MODEL 1
REMARK VINA RESULT:    -7.985      0.000      0.000
REMARK INTER + INTRA:         -10.330
REMARK INTER:                 -10.319
REMARK INTRA:                  -0.010
REMARK UNBOUND:                -0.010
REMARK  Name = 
REMARK  6 active torsions:
REMARK  status: ('A' for Active; 'I' for Inactive)
REMARK    1  A    between atoms: N_1  and  C_2
REMARK    2  A    between atoms: C_2  and  C_3
REMARK    3  A    between atoms: C_2  and  C_16
REMARK    4  A    between atoms: C_6  and  C_7
REMARK    5  A    between atoms: C_7  and  N_8
REMARK    6  A    between atoms: C_11  and  O_12
REMARK                            x       y       z     vdW  Elec       q    Type
REMARK                         _______ _______ _______ _____ _____    ______ ____
ROOT
ATOM      1  C   UNL     1      43.327   6.038  12.120  0.00  0.00    +0.000 C 
ENDROOT
BRANCH   1   2
ATOM      2  C   UNL     1      44.507   6.953  12.413  0.00  0.00    +0.000 A 
ATOM      3  C   UNL     1      44.548   8.272  11.967  0.00  0.00    +0.000 A 
ATOM      4  S   UNL     1      46.005   9.081  12.327  0.00  0.00    +0.000 S 
ATOM      5  C   UNL     1      46.627   7.719  13.132  0.00  0.00    +0.000 A 
ATOM      6  N   UNL     1      47.869   7.747  13.686  0.00  0.00    +0.000 NA
ATOM      7  C   UNL     1      48.219   6.648  14.266  0.00  0.00    +0.000 A 
ATOM      8  N   UNL     1      47.435   5.528  14.349  0.00  0.00    +0.000 N 
ATOM      9  C   UNL     1      46.169   5.457  13.824  0.00  0.00    +0.000 A 
ATOM     10  O   UNL     1      45.491   4.444  13.964  0.00  0.00    +0.000 OA
ATOM     11  C   UNL     1      45.734   6.660  13.133  0.00  0.00    +0.000 A 
ATOM     12  H   UNL     1      47.756   4.705  14.839  0.00  0.00    +0.000 HD
ENDBRANCH   1   2
BRANCH   1  13
ATOM     13  C   UNL     1      43.863   4.966  11.205  0.00  0.00    +0.000 A 
ATOM     14  C   UNL     1      44.843   5.250  10.249  0.00  0.00    +0.000 A 
ATOM     15  C   UNL     1      45.334   4.235   9.426  0.00  0.00    +0.000 A 
ATOM     16  C   UNL     1      44.825   2.944   9.562  0.00  0.00    +0.000 A 
ATOM     17  N   UNL     1      43.873   2.650  10.480  0.00  0.00    +0.000 NA
ATOM     18  C   UNL     1      43.421   3.648  11.266  0.00  0.00    +0.000 A 
BRANCH  16  19
ATOM     19  C   UNL     1      45.354   1.827   8.661  0.00  0.00    +0.000 C 
BRANCH  19  20
ATOM     20  N   UNL     1      46.490   2.109   7.758  0.00  0.00    +0.000 NA
ATOM     21  C   UNL     1      46.271   3.249   6.861  0.00  0.00    +0.000 C 
ATOM     22  C   UNL     1      46.744   2.838   5.473  0.00  0.00    +0.000 C 
ATOM     23  C   UNL     1      47.470   1.520   5.669  0.00  0.00    +0.000 C 
ATOM     24  C   UNL     1      46.902   0.944   6.963  0.00  0.00    +0.000 C 
BRANCH  23  25
ATOM     25  O   UNL     1      48.872   1.758   5.788  0.00  0.00    +0.000 OA
ATOM     26  H   UNL     1      48.958   2.655   6.174  0.00  0.00    +0.000 HD
ENDBRANCH  23  25
ENDBRANCH  19  20
ENDBRANCH  16  19
ENDBRANCH   1  13
BRANCH   1  27
ATOM     27  N   UNL     1      42.675   5.514  13.307  0.00  0.00    +0.000 NA
ATOM     28  H   UNL     1      41.683   5.441  13.144  0.00  0.00    +0.000 HD
ATOM     29  H   UNL     1      42.760   6.197  14.069  0.00  0.00    +0.000 HD
ENDBRANCH   1  27
TORSDOF 6
ENDMDL
MODEL 2
REMARK VINA RESULT:    -7.439      1.460      1.775
REMARK INTER + INTRA:          -9.624
REMARK INTER:                  -9.017
REMARK INTRA:                  -0.606
REMARK UNBOUND:                -0.010
REMARK  Name = 
REMARK  6 active torsions:
REMARK  status: ('A' for Active; 'I' for Inactive)
REMARK    1  A    between atoms: N_1  and  C_2
REMARK    2  A    between atoms: C_2  and  C_3
REMARK    3  A    between atoms: C_2  and  C_16
REMARK    4  A    between atoms: C_6  and  C_7
REMARK    5  A    between atoms: C_7  and  N_8
REMARK    6  A    between atoms: C_11  and  O_12
REMARK                            x       y       z     vdW  Elec       q    Type
REMARK                         _______ _______ _______ _____ _____    ______ ____
ROOT
ATOM      1  C   UNL     1      45.128   5.946  13.209  0.00  0.00    +0.000 C 
ENDROOT
BRANCH   1   2
ATOM      2  C   UNL     1      45.861   7.227  12.840  0.00  0.00    +0.000 A 
ATOM      3  C   UNL     1      45.186   8.425  12.615  0.00  0.00    +0.000 A 
ATOM      4  S   UNL     1      46.196   9.707  12.120  0.00  0.00    +0.000 S 
ATOM      5  C   UNL     1      47.583   8.730  12.229  0.00  0.00    +0.000 A 
ATOM      6  N   UNL     1      48.811   9.232  11.928  0.00  0.00    +0.000 NA
ATOM      7  C   UNL     1      49.778   8.385  12.051  0.00  0.00    +0.000 A 
ATOM      8  N   UNL     1      49.628   7.086  12.458  0.00  0.00    +0.000 N 
ATOM      9  C   UNL     1      48.413   6.539  12.792  0.00  0.00    +0.000 A 
ATOM     10  O   UNL     1      48.338   5.382  13.192  0.00  0.00    +0.000 OA
ATOM     11  C   UNL     1      47.283   7.442  12.643  0.00  0.00    +0.000 A 
ATOM     12  H   UNL     1      50.427   6.478  12.560  0.00  0.00    +0.000 HD
ENDBRANCH   1   2
BRANCH   1  13
ATOM     13  C   UNL     1      45.153   5.093  11.966  0.00  0.00    +0.000 A 
ATOM     14  C   UNL     1      45.161   5.668  10.691  0.00  0.00    +0.000 A 
ATOM     15  C   UNL     1      45.201   4.855   9.557  0.00  0.00    +0.000 A 
ATOM     16  C   UNL     1      45.217   3.470   9.713  0.00  0.00    +0.000 A 
ATOM     17  N   UNL     1      45.204   2.894  10.939  0.00  0.00    +0.000 NA
ATOM     18  C   UNL     1      45.172   3.703  12.019  0.00  0.00    +0.000 A 
BRANCH  16  19
ATOM     19  C   UNL     1      45.255   2.572   8.476  0.00  0.00    +0.000 C 
BRANCH  19  20
ATOM     20  N   UNL     1      46.454   2.591   7.610  0.00  0.00    +0.000 NA
ATOM     21  C   UNL     1      46.379   3.556   6.509  0.00  0.00    +0.000 C 
ATOM     22  C   UNL     1      46.881   2.857   5.251  0.00  0.00    +0.000 C 
ATOM     23  C   UNL     1      47.478   1.547   5.731  0.00  0.00    +0.000 C 
ATOM     24  C   UNL     1      46.799   1.269   7.069  0.00  0.00    +0.000 C 
BRANCH  23  25
ATOM     25  O   UNL     1      48.887   1.694   5.893  0.00  0.00    +0.000 OA
ATOM     26  H   UNL     1      49.054   1.615   6.856  0.00  0.00    +0.000 HD
ENDBRANCH  23  25
ENDBRANCH  19  20
ENDBRANCH  16  19
ENDBRANCH   1  13
BRANCH   1  27
ATOM     27  N   UNL     1      45.661   5.275  14.382  0.00  0.00    +0.000 NA
ATOM     28  H   UNL     1      46.560   5.666  14.617  0.00  0.00    +0.000 HD
ATOM     29  H   UNL     1      45.860   4.295  14.150  0.00  0.00    +0.000 HD
ENDBRANCH   1  27
TORSDOF 6
ENDMDL
MODEL 3
REMARK VINA RESULT:    -7.384      1.959      2.650
REMARK INTER + INTRA:          -9.553
REMARK INTER:                  -9.719
REMARK INTRA:                   0.166
REMARK UNBOUND:                -0.010
REMARK  Name = 
REMARK  6 active torsions:
REMARK  status: ('A' for Active; 'I' for Inactive)
REMARK    1  A    between atoms: N_1  and  C_2
REMARK    2  A    between atoms: C_2  and  C_3
REMARK    3  A    between atoms: C_2  and  C_16
REMARK    4  A    between atoms: C_6  and  C_7
REMARK    5  A    between atoms: C_7  and  N_8
REMARK    6  A    between atoms: C_11  and  O_12
REMARK                            x       y       z     vdW  Elec       q    Type
REMARK                         _______ _______ _______ _____ _____    ______ ____
ROOT
ATOM      1  C   UNL     1      43.533   6.235  12.157  0.00  0.00    +0.000 C 
ENDROOT
BRANCH   1   2
ATOM      2  C   UNL     1      44.723   7.162  12.351  0.00  0.00    +0.000 A 
ATOM      3  C   UNL     1      45.859   6.768  13.056  0.00  0.00    +0.000 A 
ATOM      4  S   UNL     1      47.027   7.999  13.231  0.00  0.00    +0.000 S 
ATOM      5  C   UNL     1      46.086   9.096  12.336  0.00  0.00    +0.000 A 
ATOM      6  N   UNL     1      46.522  10.365  12.115  0.00  0.00    +0.000 NA
ATOM      7  C   UNL     1      45.712  11.095  11.423  0.00  0.00    +0.000 A 
ATOM      8  N   UNL     1      44.511  10.665  10.924  0.00  0.00    +0.000 N 
ATOM      9  C   UNL     1      44.037   9.389  11.103  0.00  0.00    +0.000 A 
ATOM     10  O   UNL     1      42.974   9.042  10.599  0.00  0.00    +0.000 OA
ATOM     11  C   UNL     1      44.897   8.532  11.903  0.00  0.00    +0.000 A 
ATOM     12  H   UNL     1      43.932  11.276  10.367  0.00  0.00    +0.000 HD
ENDBRANCH   1   2
BRANCH   1  13
ATOM     13  C   UNL     1      44.020   5.135  11.247  0.00  0.00    +0.000 A 
ATOM     14  C   UNL     1      44.887   5.404  10.183  0.00  0.00    +0.000 A 
ATOM     15  C   UNL     1      45.336   4.365   9.366  0.00  0.00    +0.000 A 
ATOM     16  C   UNL     1      44.897   3.066   9.616  0.00  0.00    +0.000 A 
ATOM     17  N   UNL     1      44.053   2.786  10.638  0.00  0.00    +0.000 NA
ATOM     18  C   UNL     1      43.640   3.808  11.416  0.00  0.00    +0.000 A 
BRANCH  16  19
ATOM     19  C   UNL     1      45.379   1.922   8.722  0.00  0.00    +0.000 C 
BRANCH  19  20
ATOM     20  N   UNL     1      46.505   2.161   7.794  0.00  0.00    +0.000 NA
ATOM     21  C   UNL     1      46.284   3.273   6.862  0.00  0.00    +0.000 C 
ATOM     22  C   UNL     1      46.733   2.810   5.482  0.00  0.00    +0.000 C 
ATOM     23  C   UNL     1      47.448   1.492   5.712  0.00  0.00    +0.000 C 
ATOM     24  C   UNL     1      46.893   0.966   7.033  0.00  0.00    +0.000 C 
BRANCH  23  25
ATOM     25  O   UNL     1      48.853   1.719   5.802  0.00  0.00    +0.000 OA
ATOM     26  H   UNL     1      49.237   1.348   4.980  0.00  0.00    +0.000 HD
ENDBRANCH  23  25
ENDBRANCH  19  20
ENDBRANCH  16  19
ENDBRANCH   1  13
BRANCH   1  27
ATOM     27  N   UNL     1      42.954   5.747  13.396  0.00  0.00    +0.000 NA
ATOM     28  H   UNL     1      42.038   5.366  13.217  0.00  0.00    +0.000 HD
ATOM     29  H   UNL     1      42.784   6.540  14.025  0.00  0.00    +0.000 HD
ENDBRANCH   1  27
TORSDOF 6
ENDMDL
MODEL 4
REMARK VINA RESULT:    -7.105      2.297      3.399
REMARK INTER + INTRA:          -9.192
REMARK INTER:                  -8.908
REMARK INTRA:                  -0.285
REMARK UNBOUND:                -0.010
REMARK  Name = 
REMARK  6 active torsions:
REMARK  status: ('A' for Active; 'I' for Inactive)
REMARK    1  A    between atoms: N_1  and  C_2
REMARK    2  A    between atoms: C_2  and  C_3
REMARK    3  A    between atoms: C_2  and  C_16
REMARK    4  A    between atoms: C_6  and  C_7
REMARK    5  A    between atoms: C_7  and  N_8
REMARK    6  A    between atoms: C_11  and  O_12
REMARK                            x       y       z     vdW  Elec       q    Type
REMARK                         _______ _______ _______ _____ _____    ______ ____
ROOT
ATOM      1  C   UNL     1      46.727   6.326  13.630  0.00  0.00    +0.000 C 
ENDROOT
BRANCH   1   2
ATOM      2  C   UNL     1      47.701   7.193  12.847  0.00  0.00    +0.000 A 
ATOM      3  C   UNL     1      48.974   6.745  12.499  0.00  0.00    +0.000 A 
ATOM      4  S   UNL     1      49.929   7.917  11.709  0.00  0.00    +0.000 S 
ATOM      5  C   UNL     1      48.669   9.057  11.758  0.00  0.00    +0.000 A 
ATOM      6  N   UNL     1      48.840  10.302  11.238  0.00  0.00    +0.000 NA
ATOM      7  C   UNL     1      47.806  11.069  11.341  0.00  0.00    +0.000 A 
ATOM      8  N   UNL     1      46.615  10.699  11.907  0.00  0.00    +0.000 N 
ATOM      9  C   UNL     1      46.388   9.449  12.427  0.00  0.00    +0.000 A 
ATOM     10  O   UNL     1      45.288   9.154  12.884  0.00  0.00    +0.000 OA
ATOM     11  C   UNL     1      47.531   8.552  12.364  0.00  0.00    +0.000 A 
ATOM     12  H   UNL     1      45.833  11.337  11.935  0.00  0.00    +0.000 HD
ENDBRANCH   1   2
BRANCH   1  13
ATOM     13  C   UNL     1      46.054   5.446  12.606  0.00  0.00    +0.000 A 
ATOM     14  C   UNL     1      45.487   5.985  11.447  0.00  0.00    +0.000 A 
ATOM     15  C   UNL     1      44.885   5.146  10.507  0.00  0.00    +0.000 A 
ATOM     16  C   UNL     1      44.845   3.773  10.748  0.00  0.00    +0.000 A 
ATOM     17  N   UNL     1      45.385   3.233  11.867  0.00  0.00    +0.000 NA
ATOM     18  C   UNL     1      45.966   4.066  12.755  0.00  0.00    +0.000 A 
BRANCH  16  19
ATOM     19  C   UNL     1      44.183   2.848   9.727  0.00  0.00    +0.000 C 
BRANCH  19  20
ATOM     20  N   UNL     1      44.861   2.599   8.436  0.00  0.00    +0.000 NA
ATOM     21  C   UNL     1      45.652   1.365   8.405  0.00  0.00    +0.000 C 
ATOM     22  C   UNL     1      46.985   1.691   7.744  0.00  0.00    +0.000 C 
ATOM     23  C   UNL     1      46.821   3.088   7.175  0.00  0.00    +0.000 C 
ATOM     24  C   UNL     1      45.702   3.722   7.998  0.00  0.00    +0.000 C 
BRANCH  23  25
ATOM     25  O   UNL     1      46.459   3.006   5.798  0.00  0.00    +0.000 OA
ATOM     26  H   UNL     1      47.030   2.307   5.414  0.00  0.00    +0.000 HD
ENDBRANCH  23  25
ENDBRANCH  19  20
ENDBRANCH  16  19
ENDBRANCH   1  13
BRANCH   1  27
ATOM     27  N   UNL     1      47.338   5.584  14.719  0.00  0.00    +0.000 NA
ATOM     28  H   UNL     1      47.598   4.664  14.399  0.00  0.00    +0.000 HD
ATOM     29  H   UNL     1      46.635   5.413  15.447  0.00  0.00    +0.000 HD
ENDBRANCH   1  27
TORSDOF 6
ENDMDL
MODEL 5
REMARK VINA RESULT:    -6.831      3.322      5.484
REMARK INTER + INTRA:          -8.838
REMARK INTER:                  -8.176
REMARK INTRA:                  -0.662
REMARK UNBOUND:                -0.010
REMARK  Name = 
REMARK  6 active torsions:
REMARK  status: ('A' for Active; 'I' for Inactive)
REMARK    1  A    between atoms: N_1  and  C_2
REMARK    2  A    between atoms: C_2  and  C_3
REMARK    3  A    between atoms: C_2  and  C_16
REMARK    4  A    between atoms: C_6  and  C_7
REMARK    5  A    between atoms: C_7  and  N_8
REMARK    6  A    between atoms: C_11  and  O_12
REMARK                            x       y       z     vdW  Elec       q    Type
REMARK                         _______ _______ _______ _____ _____    ______ ____
ROOT
ATOM      1  C   UNL     1      49.002   6.098  14.851  0.00  0.00    +0.000 C 
ENDROOT
BRANCH   1   2
ATOM      2  C   UNL     1      48.747   6.416  16.316  0.00  0.00    +0.000 A 
ATOM      3  C   UNL     1      48.494   7.713  16.757  0.00  0.00    +0.000 A 
ATOM      4  S   UNL     1      48.332   7.851  18.450  0.00  0.00    +0.000 S 
ATOM      5  C   UNL     1      48.549   6.179  18.662  0.00  0.00    +0.000 A 
ATOM      6  N   UNL     1      48.527   5.628  19.905  0.00  0.00    +0.000 NA
ATOM      7  C   UNL     1      48.705   4.349  19.926  0.00  0.00    +0.000 A 
ATOM      8  N   UNL     1      48.894   3.572  18.815  0.00  0.00    +0.000 N 
ATOM      9  C   UNL     1      48.905   4.077  17.538  0.00  0.00    +0.000 A 
ATOM     10  O   UNL     1      49.035   3.331  16.573  0.00  0.00    +0.000 OA
ATOM     11  C   UNL     1      48.737   5.519  17.458  0.00  0.00    +0.000 A 
ATOM     12  H   UNL     1      49.003   2.571  18.894  0.00  0.00    +0.000 HD
ENDBRANCH   1   2
BRANCH   1  13
ATOM     13  C   UNL     1      47.639   5.955  14.223  0.00  0.00    +0.000 A 
ATOM     14  C   UNL     1      47.069   6.994  13.481  0.00  0.00    +0.000 A 
ATOM     15  C   UNL     1      45.812   6.830  12.897  0.00  0.00    +0.000 A 
ATOM     16  C   UNL     1      45.131   5.626  13.075  0.00  0.00    +0.000 A 
ATOM     17  N   UNL     1      45.665   4.609  13.794  0.00  0.00    +0.000 NA
ATOM     18  C   UNL     1      46.883   4.793  14.343  0.00  0.00    +0.000 A 
BRANCH  16  19
ATOM     19  C   UNL     1      43.751   5.439  12.443  0.00  0.00    +0.000 C 
BRANCH  19  20
ATOM     20  N   UNL     1      43.645   4.741  11.144  0.00  0.00    +0.000 NA
ATOM     21  C   UNL     1      43.437   3.294  11.259  0.00  0.00    +0.000 C 
ATOM     22  C   UNL     1      44.363   2.616  10.257  0.00  0.00    +0.000 C 
ATOM     23  C   UNL     1      44.915   3.737   9.397  0.00  0.00    +0.000 C 
ATOM     24  C   UNL     1      44.787   4.994  10.255  0.00  0.00    +0.000 C 
BRANCH  23  25
ATOM     25  O   UNL     1      44.142   3.852   8.204  0.00  0.00    +0.000 OA
ATOM     26  H   UNL     1      43.776   2.957   8.037  0.00  0.00    +0.000 HD
ENDBRANCH  23  25
ENDBRANCH  19  20
ENDBRANCH  16  19
ENDBRANCH   1  13
BRANCH   1  27
ATOM     27  N   UNL     1      49.853   7.062  14.175  0.00  0.00    +0.000 NA
ATOM     28  H   UNL     1      50.786   7.014  14.553  0.00  0.00    +0.000 HD
ATOM     29  H   UNL     1      49.533   8.011  14.400  0.00  0.00    +0.000 HD
ENDBRANCH   1  27
TORSDOF 6
ENDMDL
MODEL 6
REMARK VINA RESULT:    -6.788      5.093      7.450
REMARK INTER + INTRA:          -8.782
REMARK INTER:                  -8.137
REMARK INTRA:                  -0.645
REMARK UNBOUND:                -0.010
REMARK  Name = 
REMARK  6 active torsions:
REMARK  status: ('A' for Active; 'I' for Inactive)
REMARK    1  A    between atoms: N_1  and  C_2
REMARK    2  A    between atoms: C_2  and  C_3
REMARK    3  A    between atoms: C_2  and  C_16
REMARK    4  A    between atoms: C_6  and  C_7
REMARK    5  A    between atoms: C_7  and  N_8
REMARK    6  A    between atoms: C_11  and  O_12
REMARK                            x       y       z     vdW  Elec       q    Type
REMARK                         _______ _______ _______ _____ _____    ______ ____
ROOT
ATOM      1  C   UNL     1      47.551   4.275  17.589  0.00  0.00    +0.000 C 
ENDROOT
BRANCH   1   2
ATOM      2  C   UNL     1      48.966   4.179  18.141  0.00  0.00    +0.000 A 
ATOM      3  C   UNL     1      49.446   5.070  19.098  0.00  0.00    +0.000 A 
ATOM      4  S   UNL     1      51.087   4.836  19.501  0.00  0.00    +0.000 S 
ATOM      5  C   UNL     1      51.213   3.508  18.448  0.00  0.00    +0.000 A 
ATOM      6  N   UNL     1      52.389   2.837  18.314  0.00  0.00    +0.000 NA
ATOM      7  C   UNL     1      52.348   1.850  17.482  0.00  0.00    +0.000 A 
ATOM      8  N   UNL     1      51.236   1.468  16.781  0.00  0.00    +0.000 N 
ATOM      9  C   UNL     1      50.022   2.101  16.896  0.00  0.00    +0.000 A 
ATOM     10  O   UNL     1      49.045   1.692  16.277  0.00  0.00    +0.000 OA
ATOM     11  C   UNL     1      50.019   3.240  17.799  0.00  0.00    +0.000 A 
ATOM     12  H   UNL     1      51.260   0.670  16.163  0.00  0.00    +0.000 HD
ENDBRANCH   1   2
BRANCH   1  13
ATOM     13  C   UNL     1      47.693   4.872  16.212  0.00  0.00    +0.000 A 
ATOM     14  C   UNL     1      47.008   4.338  15.115  0.00  0.00    +0.000 A 
ATOM     15  C   UNL     1      47.145   4.921  13.854  0.00  0.00    +0.000 A 
ATOM     16  C   UNL     1      47.980   6.027  13.702  0.00  0.00    +0.000 A 
ATOM     17  N   UNL     1      48.655   6.555  14.751  0.00  0.00    +0.000 NA
ATOM     18  C   UNL     1      48.500   5.976  15.960  0.00  0.00    +0.000 A 
BRANCH  16  19
ATOM     19  C   UNL     1      48.140   6.668  12.323  0.00  0.00    +0.000 C 
BRANCH  19  20
ATOM     20  N   UNL     1      47.082   7.574  11.825  0.00  0.00    +0.000 NA
ATOM     21  C   UNL     1      46.830   8.730  12.693  0.00  0.00    +0.000 C 
ATOM     22  C   UNL     1      45.320   8.887  12.819  0.00  0.00    +0.000 C 
ATOM     23  C   UNL     1      44.729   7.939  11.793  0.00  0.00    +0.000 C 
ATOM     24  C   UNL     1      45.811   6.888  11.555  0.00  0.00    +0.000 C 
BRANCH  23  25
ATOM     25  O   UNL     1      44.438   8.653  10.593  0.00  0.00    +0.000 OA
ATOM     26  H   UNL     1      44.271   7.969   9.910  0.00  0.00    +0.000 HD
ENDBRANCH  23  25
ENDBRANCH  19  20
ENDBRANCH  16  19
ENDBRANCH   1  13
BRANCH   1  27
ATOM     27  N   UNL     1      46.823   3.018  17.603  0.00  0.00    +0.000 NA
ATOM     28  H   UNL     1      45.906   3.152  17.207  0.00  0.00    +0.000 HD
ATOM     29  H   UNL     1      46.646   2.741  18.576  0.00  0.00    +0.000 HD
ENDBRANCH   1  27
TORSDOF 6
ENDMDL
MODEL 7
REMARK VINA RESULT:    -6.614      3.011      7.631
REMARK INTER + INTRA:          -8.557
REMARK INTER:                  -8.438
REMARK INTRA:                  -0.119
REMARK UNBOUND:                -0.010
REMARK  Name = 
REMARK  6 active torsions:
REMARK  status: ('A' for Active; 'I' for Inactive)
REMARK    1  A    between atoms: N_1  and  C_2
REMARK    2  A    between atoms: C_2  and  C_3
REMARK    3  A    between atoms: C_2  and  C_16
REMARK    4  A    between atoms: C_6  and  C_7
REMARK    5  A    between atoms: C_7  and  N_8
REMARK    6  A    between atoms: C_11  and  O_12
REMARK                            x       y       z     vdW  Elec       q    Type
REMARK                         _______ _______ _______ _____ _____    ______ ____
ROOT
ATOM      1  C   UNL     1      44.485   6.543  11.868  0.00  0.00    +0.000 C 
ENDROOT
BRANCH   1   2
ATOM      2  C   UNL     1      44.243   5.089  11.491  0.00  0.00    +0.000 A 
ATOM      3  C   UNL     1      43.440   4.250  12.261  0.00  0.00    +0.000 A 
ATOM      4  S   UNL     1      43.389   2.639  11.705  0.00  0.00    +0.000 S 
ATOM      5  C   UNL     1      44.399   3.003  10.388  0.00  0.00    +0.000 A 
ATOM      6  N   UNL     1      44.757   2.036   9.500  0.00  0.00    +0.000 NA
ATOM      7  C   UNL     1      45.528   2.445   8.548  0.00  0.00    +0.000 A 
ATOM      8  N   UNL     1      45.963   3.735   8.399  0.00  0.00    +0.000 N 
ATOM      9  C   UNL     1      45.614   4.749   9.257  0.00  0.00    +0.000 A 
ATOM     10  O   UNL     1      45.997   5.897   9.054  0.00  0.00    +0.000 OA
ATOM     11  C   UNL     1      44.769   4.337  10.366  0.00  0.00    +0.000 A 
ATOM     12  H   UNL     1      46.545   4.000   7.618  0.00  0.00    +0.000 HD
ENDBRANCH   1   2
BRANCH   1  13
ATOM     13  C   UNL     1      45.732   6.540  12.716  0.00  0.00    +0.000 A 
ATOM     14  C   UNL     1      46.415   7.726  13.006  0.00  0.00    +0.000 A 
ATOM     15  C   UNL     1      47.557   7.697  13.807  0.00  0.00    +0.000 A 
ATOM     16  C   UNL     1      48.013   6.474  14.298  0.00  0.00    +0.000 A 
ATOM     17  N   UNL     1      47.368   5.315  14.025  0.00  0.00    +0.000 NA
ATOM     18  C   UNL     1      46.262   5.372  13.253  0.00  0.00    +0.000 A 
BRANCH  16  19
ATOM     19  C   UNL     1      49.267   6.433  15.172  0.00  0.00    +0.000 C 
BRANCH  19  20
ATOM     20  N   UNL     1      49.333   5.466  16.289  0.00  0.00    +0.000 NA
ATOM     21  C   UNL     1      48.280   5.643  17.294  0.00  0.00    +0.000 C 
ATOM     22  C   UNL     1      48.933   5.540  18.667  0.00  0.00    +0.000 C 
ATOM     23  C   UNL     1      50.344   5.047  18.405  0.00  0.00    +0.000 C 
ATOM     24  C   UNL     1      50.640   5.445  16.961  0.00  0.00    +0.000 C 
BRANCH  23  25
ATOM     25  O   UNL     1      50.395   3.631  18.566  0.00  0.00    +0.000 OA
ATOM     26  H   UNL     1      49.686   3.410  19.207  0.00  0.00    +0.000 HD
ENDBRANCH  23  25
ENDBRANCH  19  20
ENDBRANCH  16  19
ENDBRANCH   1  13
BRANCH   1  27
ATOM     27  N   UNL     1      44.558   7.445  10.732  0.00  0.00    +0.000 NA
ATOM     28  H   UNL     1      43.666   7.475  10.264  0.00  0.00    +0.000 HD
ATOM     29  H   UNL     1      45.202   7.057  10.033  0.00  0.00    +0.000 HD
ENDBRANCH   1  27
TORSDOF 6
ENDMDL
MODEL 8
REMARK VINA RESULT:    -6.591      4.710      7.315
REMARK INTER + INTRA:          -8.528
REMARK INTER:                  -7.954
REMARK INTRA:                  -0.574
REMARK UNBOUND:                -0.010
REMARK  Name = 
REMARK  6 active torsions:
REMARK  status: ('A' for Active; 'I' for Inactive)
REMARK    1  A    between atoms: N_1  and  C_2
REMARK    2  A    between atoms: C_2  and  C_3
REMARK    3  A    between atoms: C_2  and  C_16
REMARK    4  A    between atoms: C_6  and  C_7
REMARK    5  A    between atoms: C_7  and  N_8
REMARK    6  A    between atoms: C_11  and  O_12
REMARK                            x       y       z     vdW  Elec       q    Type
REMARK                         _______ _______ _______ _____ _____    ______ ____
ROOT
ATOM      1  C   UNL     1      48.120   3.955  17.656  0.00  0.00    +0.000 C 
ENDROOT
BRANCH   1   2
ATOM      2  C   UNL     1      49.530   3.384  17.628  0.00  0.00    +0.000 A 
ATOM      3  C   UNL     1      49.795   2.094  17.172  0.00  0.00    +0.000 A 
ATOM      4  S   UNL     1      51.429   1.629  17.320  0.00  0.00    +0.000 S 
ATOM      5  C   UNL     1      51.860   3.145  17.958  0.00  0.00    +0.000 A 
ATOM      6  N   UNL     1      53.147   3.409  18.309  0.00  0.00    +0.000 NA
ATOM      7  C   UNL     1      53.338   4.596  18.781  0.00  0.00    +0.000 A 
ATOM      8  N   UNL     1      52.360   5.545  18.922  0.00  0.00    +0.000 N 
ATOM      9  C   UNL     1      51.052   5.332  18.563  0.00  0.00    +0.000 A 
ATOM     10  O   UNL     1      50.222   6.230  18.670  0.00  0.00    +0.000 OA
ATOM     11  C   UNL     1      50.774   4.000  18.053  0.00  0.00    +0.000 A 
ATOM     12  H   UNL     1      52.577   6.466  19.274  0.00  0.00    +0.000 HD
ENDBRANCH   1   2
BRANCH   1  13
ATOM     13  C   UNL     1      47.868   4.482  16.266  0.00  0.00    +0.000 A 
ATOM     14  C   UNL     1      47.144   3.739  15.328  0.00  0.00    +0.000 A 
ATOM     15  C   UNL     1      46.911   4.257  14.053  0.00  0.00    +0.000 A 
ATOM     16  C   UNL     1      47.420   5.513  13.726  0.00  0.00    +0.000 A 
ATOM     17  N   UNL     1      48.128   6.246  14.619  0.00  0.00    +0.000 NA
ATOM     18  C   UNL     1      48.334   5.724  15.846  0.00  0.00    +0.000 A 
BRANCH  16  19
ATOM     19  C   UNL     1      47.174   6.086  12.330  0.00  0.00    +0.000 C 
BRANCH  19  20
ATOM     20  N   UNL     1      45.784   6.224  11.844  0.00  0.00    +0.000 NA
ATOM     21  C   UNL     1      44.804   6.478  12.905  0.00  0.00    +0.000 C 
ATOM     22  C   UNL     1      43.601   5.580  12.643  0.00  0.00    +0.000 C 
ATOM     23  C   UNL     1      43.827   4.999  11.260  0.00  0.00    +0.000 C 
ATOM     24  C   UNL     1      45.336   5.080  11.038  0.00  0.00    +0.000 C 
BRANCH  23  25
ATOM     25  O   UNL     1      43.126   5.776  10.292  0.00  0.00    +0.000 OA
ATOM     26  H   UNL     1      43.039   6.672  10.682  0.00  0.00    +0.000 HD
ENDBRANCH  23  25
ENDBRANCH  19  20
ENDBRANCH  16  19
ENDBRANCH   1  13
BRANCH   1  27
ATOM     27  N   UNL     1      47.110   3.016  18.112  0.00  0.00    +0.000 NA
ATOM     28  H   UNL     1      46.354   2.981  17.445  0.00  0.00    +0.000 HD
ATOM     29  H   UNL     1      46.678   3.375  18.971  0.00  0.00    +0.000 HD
ENDBRANCH   1  27
TORSDOF 6
ENDMDL
MODEL 9
REMARK VINA RESULT:    -6.460      2.853      7.667
REMARK INTER + INTRA:          -8.359
REMARK INTER:                  -7.583
REMARK INTRA:                  -0.776
REMARK UNBOUND:                -0.010
REMARK  Name = 
REMARK  6 active torsions:
REMARK  status: ('A' for Active; 'I' for Inactive)
REMARK    1  A    between atoms: N_1  and  C_2
REMARK    2  A    between atoms: C_2  and  C_3
REMARK    3  A    between atoms: C_2  and  C_16
REMARK    4  A    between atoms: C_6  and  C_7
REMARK    5  A    between atoms: C_7  and  N_8
REMARK    6  A    between atoms: C_11  and  O_12
REMARK                            x       y       z     vdW  Elec       q    Type
REMARK                         _______ _______ _______ _____ _____    ______ ____
ROOT
ATOM      1  C   UNL     1      44.093   6.420  11.980  0.00  0.00    +0.000 C 
ENDROOT
BRANCH   1   2
ATOM      2  C   UNL     1      43.998   4.968  11.537  0.00  0.00    +0.000 A 
ATOM      3  C   UNL     1      43.276   4.021  12.262  0.00  0.00    +0.000 A 
ATOM      4  S   UNL     1      43.386   2.439  11.635  0.00  0.00    +0.000 S 
ATOM      5  C   UNL     1      44.365   2.958  10.346  0.00  0.00    +0.000 A 
ATOM      6  N   UNL     1      44.821   2.071   9.421  0.00  0.00    +0.000 NA
ATOM      7  C   UNL     1      45.555   2.595   8.496  0.00  0.00    +0.000 A 
ATOM      8  N   UNL     1      45.863   3.927   8.408  0.00  0.00    +0.000 N 
ATOM      9  C   UNL     1      45.410   4.863   9.306  0.00  0.00    +0.000 A 
ATOM     10  O   UNL     1      45.680   6.051   9.157  0.00  0.00    +0.000 OA
ATOM     11  C   UNL     1      44.602   4.322  10.387  0.00  0.00    +0.000 A 
ATOM     12  H   UNL     1      46.421   4.282   7.646  0.00  0.00    +0.000 HD
ENDBRANCH   1   2
BRANCH   1  13
ATOM     13  C   UNL     1      45.502   6.598  12.487  0.00  0.00    +0.000 A 
ATOM     14  C   UNL     1      46.109   5.632  13.296  0.00  0.00    +0.000 A 
ATOM     15  C   UNL     1      47.420   5.814  13.738  0.00  0.00    +0.000 A 
ATOM     16  C   UNL     1      48.106   6.972  13.375  0.00  0.00    +0.000 A 
ATOM     17  N   UNL     1      47.534   7.921  12.597  0.00  0.00    +0.000 NA
ATOM     18  C   UNL     1      46.267   7.718  12.178  0.00  0.00    +0.000 A 
BRANCH  16  19
ATOM     19  C   UNL     1      49.542   7.182  13.860  0.00  0.00    +0.000 C 
BRANCH  19  20
ATOM     20  N   UNL     1      49.771   7.659  15.241  0.00  0.00    +0.000 NA
ATOM     21  C   UNL     1      49.976   6.585  16.217  0.00  0.00    +0.000 C 
ATOM     22  C   UNL     1      49.150   6.923  17.452  0.00  0.00    +0.000 C 
ATOM     23  C   UNL     1      48.673   8.347  17.239  0.00  0.00    +0.000 C 
ATOM     24  C   UNL     1      48.714   8.557  15.727  0.00  0.00    +0.000 C 
BRANCH  23  25
ATOM     25  O   UNL     1      49.553   9.252  17.904  0.00  0.00    +0.000 OA
ATOM     26  H   UNL     1      48.982   9.969  18.254  0.00  0.00    +0.000 HD
ENDBRANCH  23  25
ENDBRANCH  19  20
ENDBRANCH  16  19
ENDBRANCH   1  13
BRANCH   1  27
ATOM     27  N   UNL     1      43.722   7.378  10.953  0.00  0.00    +0.000 NA
ATOM     28  H   UNL     1      44.450   7.430  10.258  0.00  0.00    +0.000 HD
ATOM     29  H   UNL     1      43.692   8.319  11.363  0.00  0.00    +0.000 HD
ENDBRANCH   1  27
TORSDOF 6
ENDMDL
