MODEL 1
REMARK VINA RESULT:    -8.175      0.000      0.000
REMARK INTER + INTRA:         -13.339
REMARK INTER:                 -11.998
REMARK INTRA:                  -1.341
REMARK UNBOUND:                -1.341
REMARK  Name = 
REMARK  9 active torsions:
REMARK  status: ('A' for Active; 'I' for Inactive)
REMARK    1  A    between atoms: C_1  and  O_2
REMARK    2  A    between atoms: O_2  and  C_3
REMARK    3  A    between atoms: C_8  and  C_9
REMARK    4  A    between atoms: C_9  and  N_10
REMARK    5  A    between atoms: N_10  and  C_11
REMARK    6  A    between atoms: C_11  and  C_12
REMARK    7  A    between atoms: C_15  and  C_16
REMARK    8  A    between atoms: C_16  and  N_17
REMARK    9  A    between atoms: C_18  and  C_20
REMARK                            x       y       z     vdW  Elec       q    Type
REMARK                         _______ _______ _______ _____ _____    ______ ____
ROOT
ATOM      1  C   UNL     1      44.574   4.300  11.281  0.00  0.00    +0.000 A 
ATOM      2  C   UNL     1      44.555   4.510  12.668  0.00  0.00    +0.000 A 
ATOM      3  C   UNL     1      45.250   5.578  13.240  0.00  0.00    +0.000 A 
ATOM      4  C   UNL     1      45.987   6.455  12.436  0.00  0.00    +0.000 A 
ATOM      5  C   UNL     1      46.045   6.222  11.057  0.00  0.00    +0.000 A 
ATOM      6  C   UNL     1      45.340   5.161  10.483  0.00  0.00    +0.000 A 
ENDROOT
BRANCH   1   7
ATOM      7  C   UNL     1      43.812   3.151  10.661  0.00  0.00    +0.000 C 
BRANCH   7   8
ATOM      8  N   UNL     1      44.096   3.031   9.230  0.00  0.00    +0.000 NA
ATOM      9  H   UNL     1      43.224   2.849   8.735  0.00  0.00    +0.000 HD
BRANCH   8  10
ATOM     10  C   UNL     1      45.004   1.910   8.967  0.00  0.00    +0.000 C 
BRANCH  10  16
ATOM     11  C   UNL     1      46.865   1.203   7.417  0.00  0.00    +0.000 A 
ATOM     12  N   UNL     1      47.761   1.365   6.415  0.00  0.00    +0.000 NA
ATOM     13  C   UNL     1      47.818   2.586   5.844  0.00  0.00    +0.000 A 
ATOM     14  C   UNL     1      47.029   3.653   6.233  0.00  0.00    +0.000 A 
ATOM     15  C   UNL     1      46.097   3.448   7.247  0.00  0.00    +0.000 A 
ATOM     16  C   UNL     1      45.973   2.187   7.844  0.00  0.00    +0.000 A 
BRANCH  11  18
ATOM     17  C   UNL     1      46.487  -1.085   7.202  0.00  0.00    +0.000 C 
ATOM     18  O   UNL     1      46.829  -0.011   8.074  0.00  0.00    +0.000 OA
ENDBRANCH  11  18
ENDBRANCH  10  16
ENDBRANCH   8  10
ENDBRANCH   7   8
ENDBRANCH   1   7
BRANCH   4  19
ATOM     19  C   UNL     1      46.746   7.601  13.048  0.00  0.00    +0.000 C 
BRANCH  19  20
ATOM     20  N   UNL     1      47.306   7.225  14.321  0.00  0.00    +0.000 N 
ATOM     21  C   UNL     1      48.594   6.771  14.421  0.00  0.00    +0.000 C 
ATOM     22  O   UNL     1      49.336   6.698  13.444  0.00  0.00    +0.000 OA
ATOM     23  H   UNL     1      46.656   7.074  15.086  0.00  0.00    +0.000 HD
BRANCH  21  24
ATOM     24  C   UNL     1      49.068   6.436  15.768  0.00  0.00    +0.000 A 
ATOM     25  C   UNL     1      50.055   7.216  16.359  0.00  0.00    +0.000 A 
ATOM     26  S   UNL     1      50.459   6.725  17.940  0.00  0.00    +0.000 S 
ATOM     27  C   UNL     1      49.368   5.422  17.872  0.00  0.00    +0.000 A 
ATOM     28  N   UNL     1      49.237   4.565  18.922  0.00  0.00    +0.000 NA
ATOM     29  C   UNL     1      48.399   3.604  18.724  0.00  0.00    +0.000 A 
ATOM     30  N   UNL     1      47.675   3.423  17.574  0.00  0.00    +0.000 N 
ATOM     31  C   UNL     1      47.748   4.282  16.503  0.00  0.00    +0.000 A 
ATOM     32  O   UNL     1      47.044   4.122  15.511  0.00  0.00    +0.000 OA
ATOM     33  C   UNL     1      48.688   5.372  16.668  0.00  0.00    +0.000 A 
ATOM     34  H   UNL     1      47.019   2.660  17.490  0.00  0.00    +0.000 HD
ENDBRANCH  21  24
ENDBRANCH  19  20
ENDBRANCH   4  19
TORSDOF 8
ENDMDL
MODEL 2
REMARK VINA RESULT:    -7.594      1.430      2.050
REMARK INTER + INTRA:         -12.487
REMARK INTER:                 -11.105
REMARK INTRA:                  -1.382
REMARK UNBOUND:                -1.341
REMARK  Name = 
REMARK  9 active torsions:
REMARK  status: ('A' for Active; 'I' for Inactive)
REMARK    1  A    between atoms: C_1  and  O_2
REMARK    2  A    between atoms: O_2  and  C_3
REMARK    3  A    between atoms: C_8  and  C_9
REMARK    4  A    between atoms: C_9  and  N_10
REMARK    5  A    between atoms: N_10  and  C_11
REMARK    6  A    between atoms: C_11  and  C_12
REMARK    7  A    between atoms: C_15  and  C_16
REMARK    8  A    between atoms: C_16  and  N_17
REMARK    9  A    between atoms: C_18  and  C_20
REMARK                            x       y       z     vdW  Elec       q    Type
REMARK                         _______ _______ _______ _____ _____    ______ ____
ROOT
ATOM      1  C   UNL     1      44.767   4.803  11.861  0.00  0.00    +0.000 A 
ATOM      2  C   UNL     1      44.374   6.150  11.831  0.00  0.00    +0.000 A 
ATOM      3  C   UNL     1      45.197   7.147  12.358  0.00  0.00    +0.000 A 
ATOM      4  C   UNL     1      46.429   6.819  12.934  0.00  0.00    +0.000 A 
ATOM      5  C   UNL     1      46.804   5.471  13.007  0.00  0.00    +0.000 A 
ATOM      6  C   UNL     1      45.987   4.474  12.469  0.00  0.00    +0.000 A 
ENDROOT
BRANCH   1   7
ATOM      7  C   UNL     1      43.882   3.724  11.280  0.00  0.00    +0.000 C 
BRANCH   7   8
ATOM      8  N   UNL     1      44.670   2.593  10.787  0.00  0.00    +0.000 NA
ATOM      9  H   UNL     1      45.658   2.837  10.827  0.00  0.00    +0.000 HD
BRANCH   8  10
ATOM     10  C   UNL     1      44.337   2.290   9.392  0.00  0.00    +0.000 C 
BRANCH  10  16
ATOM     11  C   UNL     1      46.067   3.384   7.915  0.00  0.00    +0.000 A 
ATOM     12  N   UNL     1      47.153   3.415   7.108  0.00  0.00    +0.000 NA
ATOM     13  C   UNL     1      47.724   2.229   6.813  0.00  0.00    +0.000 A 
ATOM     14  C   UNL     1      47.256   1.014   7.279  0.00  0.00    +0.000 A 
ATOM     15  C   UNL     1      46.154   1.015   8.130  0.00  0.00    +0.000 A 
ATOM     16  C   UNL     1      45.551   2.225   8.498  0.00  0.00    +0.000 A 
BRANCH  11  18
ATOM     17  C   UNL     1      46.240   5.498   8.877  0.00  0.00    +0.000 C 
ATOM     18  O   UNL     1      45.412   4.570   8.180  0.00  0.00    +0.000 OA
ENDBRANCH  11  18
ENDBRANCH  10  16
ENDBRANCH   8  10
ENDBRANCH   7   8
ENDBRANCH   1   7
BRANCH   4  19
ATOM     19  C   UNL     1      47.314   7.888  13.513  0.00  0.00    +0.000 C 
BRANCH  19  20
ATOM     20  N   UNL     1      47.757   7.529  14.835  0.00  0.00    +0.000 N 
ATOM     21  C   UNL     1      49.084   7.320  15.105  0.00  0.00    +0.000 C 
ATOM     22  O   UNL     1      49.952   7.463  14.248  0.00  0.00    +0.000 OA
ATOM     23  H   UNL     1      47.051   7.201  15.487  0.00  0.00    +0.000 HD
BRANCH  21  24
ATOM     24  C   UNL     1      49.424   6.979  16.491  0.00  0.00    +0.000 A 
ATOM     25  C   UNL     1      50.219   7.844  17.232  0.00  0.00    +0.000 A 
ATOM     26  S   UNL     1      50.482   7.328  18.835  0.00  0.00    +0.000 S 
ATOM     27  C   UNL     1      49.587   5.905  18.580  0.00  0.00    +0.000 A 
ATOM     28  N   UNL     1      49.438   4.986  19.573  0.00  0.00    +0.000 NA
ATOM     29  C   UNL     1      48.763   3.939  19.234  0.00  0.00    +0.000 A 
ATOM     30  N   UNL     1      48.219   3.728  17.995  0.00  0.00    +0.000 N 
ATOM     31  C   UNL     1      48.314   4.642  16.972  0.00  0.00    +0.000 A 
ATOM     32  O   UNL     1      47.766   4.447  15.892  0.00  0.00    +0.000 OA
ATOM     33  C   UNL     1      49.076   5.832  17.296  0.00  0.00    +0.000 A 
ATOM     34  H   UNL     1      47.684   2.894  17.799  0.00  0.00    +0.000 HD
ENDBRANCH  21  24
ENDBRANCH  19  20
ENDBRANCH   4  19
TORSDOF 8
ENDMDL
MODEL 3
REMARK VINA RESULT:    -7.272      3.847      5.009
REMARK INTER + INTRA:         -12.015
REMARK INTER:                 -10.490
REMARK INTRA:                  -1.525
REMARK UNBOUND:                -1.341
REMARK  Name = 
REMARK  9 active torsions:
REMARK  status: ('A' for Active; 'I' for Inactive)
REMARK    1  A    between atoms: C_1  and  O_2
REMARK    2  A    between atoms: O_2  and  C_3
REMARK    3  A    between atoms: C_8  and  C_9
REMARK    4  A    between atoms: C_9  and  N_10
REMARK    5  A    between atoms: N_10  and  C_11
REMARK    6  A    between atoms: C_11  and  C_12
REMARK    7  A    between atoms: C_15  and  C_16
REMARK    8  A    between atoms: C_16  and  N_17
REMARK    9  A    between atoms: C_18  and  C_20
REMARK                            x       y       z     vdW  Elec       q    Type
REMARK                         _______ _______ _______ _____ _____    ______ ____
ROOT
ATOM      1  C   UNL     1      44.457   4.697  11.774  0.00  0.00    +0.000 A 
ATOM      2  C   UNL     1      45.626   4.806  12.542  0.00  0.00    +0.000 A 
ATOM      3  C   UNL     1      46.131   6.058  12.903  0.00  0.00    +0.000 A 
ATOM      4  C   UNL     1      45.481   7.228  12.496  0.00  0.00    +0.000 A 
ATOM      5  C   UNL     1      44.339   7.124  11.692  0.00  0.00    +0.000 A 
ATOM      6  C   UNL     1      43.828   5.872  11.340  0.00  0.00    +0.000 A 
ENDROOT
BRANCH   1   7
ATOM      7  C   UNL     1      43.905   3.343  11.392  0.00  0.00    +0.000 C 
BRANCH   7   8
ATOM      8  N   UNL     1      44.923   2.512  10.748  0.00  0.00    +0.000 NA
ATOM      9  H   UNL     1      45.793   3.039  10.694  0.00  0.00    +0.000 HD
BRANCH   8  10
ATOM     10  C   UNL     1      44.525   2.161   9.381  0.00  0.00    +0.000 C 
BRANCH  10  16
ATOM     11  C   UNL     1      46.107   3.341   7.808  0.00  0.00    +0.000 A 
ATOM     12  N   UNL     1      47.138   3.427   6.935  0.00  0.00    +0.000 NA
ATOM     13  C   UNL     1      47.744   2.271   6.596  0.00  0.00    +0.000 A 
ATOM     14  C   UNL     1      47.363   1.033   7.081  0.00  0.00    +0.000 A 
ATOM     15  C   UNL     1      46.317   0.979   7.999  0.00  0.00    +0.000 A 
ATOM     16  C   UNL     1      45.682   2.157   8.413  0.00  0.00    +0.000 A 
BRANCH  11  18
ATOM     17  C   UNL     1      46.212   5.416   8.861  0.00  0.00    +0.000 C 
ATOM     18  O   UNL     1      45.415   4.494   8.122  0.00  0.00    +0.000 OA
ENDBRANCH  11  18
ENDBRANCH  10  16
ENDBRANCH   8  10
ENDBRANCH   7   8
ENDBRANCH   1   7
BRANCH   4  19
ATOM     19  C   UNL     1      46.026   8.579  12.874  0.00  0.00    +0.000 C 
BRANCH  19  20
ATOM     20  N   UNL     1      47.239   8.863  12.152  0.00  0.00    +0.000 N 
ATOM     21  C   UNL     1      48.055   9.900  12.520  0.00  0.00    +0.000 C 
ATOM     22  O   UNL     1      47.810  10.606  13.495  0.00  0.00    +0.000 OA
ATOM     23  H   UNL     1      47.343   8.439  11.236  0.00  0.00    +0.000 HD
BRANCH  21  24
ATOM     24  C   UNL     1      49.276  10.085  11.728  0.00  0.00    +0.000 A 
ATOM     25  C   UNL     1      49.576  11.341  11.217  0.00  0.00    +0.000 A 
ATOM     26  S   UNL     1      51.049  11.399  10.363  0.00  0.00    +0.000 S 
ATOM     27  C   UNL     1      51.313   9.736  10.600  0.00  0.00    +0.000 A 
ATOM     28  N   UNL     1      52.416   9.123  10.088  0.00  0.00    +0.000 NA
ATOM     29  C   UNL     1      52.475   7.854  10.314  0.00  0.00    +0.000 A 
ATOM     30  N   UNL     1      51.535   7.141  11.012  0.00  0.00    +0.000 N 
ATOM     31  C   UNL     1      50.425   7.722  11.578  0.00  0.00    +0.000 A 
ATOM     32  O   UNL     1      49.632   7.064  12.245  0.00  0.00    +0.000 OA
ATOM     33  C   UNL     1      50.303   9.146  11.339  0.00  0.00    +0.000 A 
ATOM     34  H   UNL     1      51.651   6.151  11.173  0.00  0.00    +0.000 HD
ENDBRANCH  21  24
ENDBRANCH  19  20
ENDBRANCH   4  19
TORSDOF 8
ENDMDL
MODEL 4
REMARK VINA RESULT:    -7.257      3.007      8.734
REMARK INTER + INTRA:         -11.992
REMARK INTER:                 -10.065
REMARK INTRA:                  -1.928
REMARK UNBOUND:                -1.341
REMARK  Name = 
REMARK  9 active torsions:
REMARK  status: ('A' for Active; 'I' for Inactive)
REMARK    1  A    between atoms: C_1  and  O_2
REMARK    2  A    between atoms: O_2  and  C_3
REMARK    3  A    between atoms: C_8  and  C_9
REMARK    4  A    between atoms: C_9  and  N_10
REMARK    5  A    between atoms: N_10  and  C_11
REMARK    6  A    between atoms: C_11  and  C_12
REMARK    7  A    between atoms: C_15  and  C_16
REMARK    8  A    between atoms: C_16  and  N_17
REMARK    9  A    between atoms: C_18  and  C_20
REMARK                            x       y       z     vdW  Elec       q    Type
REMARK                         _______ _______ _______ _____ _____    ______ ____
ROOT
ATOM      1  C   UNL     1      49.255   8.123  15.999  0.00  0.00    +0.000 A 
ATOM      2  C   UNL     1      49.705   7.130  15.116  0.00  0.00    +0.000 A 
ATOM      3  C   UNL     1      49.197   7.044  13.818  0.00  0.00    +0.000 A 
ATOM      4  C   UNL     1      48.222   7.945  13.377  0.00  0.00    +0.000 A 
ATOM      5  C   UNL     1      47.739   8.909  14.270  0.00  0.00    +0.000 A 
ATOM      6  C   UNL     1      48.254   9.003  15.565  0.00  0.00    +0.000 A 
ENDROOT
BRANCH   1   7
ATOM      7  C   UNL     1      49.812   8.223  17.401  0.00  0.00    +0.000 C 
BRANCH   7   8
ATOM      8  N   UNL     1      50.572   7.025  17.762  0.00  0.00    +0.000 NA
ATOM      9  H   UNL     1      50.735   6.473  16.921  0.00  0.00    +0.000 HD
BRANCH   8  10
ATOM     10  C   UNL     1      49.822   6.194  18.708  0.00  0.00    +0.000 C 
BRANCH  10  16
ATOM     11  C   UNL     1      49.825   4.089  17.315  0.00  0.00    +0.000 A 
ATOM     12  N   UNL     1      49.266   3.023  16.694  0.00  0.00    +0.000 NA
ATOM     13  C   UNL     1      47.922   2.926  16.747  0.00  0.00    +0.000 A 
ATOM     14  C   UNL     1      47.110   3.848  17.382  0.00  0.00    +0.000 A 
ATOM     15  C   UNL     1      47.715   4.918  18.036  0.00  0.00    +0.000 A 
ATOM     16  C   UNL     1      49.110   5.041  18.043  0.00  0.00    +0.000 A 
BRANCH  11  18
ATOM     17  C   UNL     1      51.912   3.242  17.908  0.00  0.00    +0.000 C 
ATOM     18  O   UNL     1      51.192   4.261  17.220  0.00  0.00    +0.000 OA
ENDBRANCH  11  18
ENDBRANCH  10  16
ENDBRANCH   8  10
ENDBRANCH   7   8
ENDBRANCH   1   7
BRANCH   4  19
ATOM     19  C   UNL     1      47.665   7.850  11.983  0.00  0.00    +0.000 C 
BRANCH  19  20
ATOM     20  N   UNL     1      46.965   6.606  11.792  0.00  0.00    +0.000 N 
ATOM     21  C   UNL     1      45.598   6.548  11.843  0.00  0.00    +0.000 C 
ATOM     22  O   UNL     1      44.910   7.551  12.016  0.00  0.00    +0.000 OA
ATOM     23  H   UNL     1      47.511   5.753  11.865  0.00  0.00    +0.000 HD
BRANCH  21  24
ATOM     24  C   UNL     1      44.990   5.233  11.614  0.00  0.00    +0.000 A 
ATOM     25  C   UNL     1      44.307   4.605  12.649  0.00  0.00    +0.000 A 
ATOM     26  S   UNL     1      43.620   3.110  12.207  0.00  0.00    +0.000 S 
ATOM     27  C   UNL     1      44.255   3.221  10.634  0.00  0.00    +0.000 A 
ATOM     28  N   UNL     1      44.050   2.229   9.725  0.00  0.00    +0.000 NA
ATOM     29  C   UNL     1      44.615   2.427   8.582  0.00  0.00    +0.000 A 
ATOM     30  N   UNL     1      45.361   3.530   8.260  0.00  0.00    +0.000 N 
ATOM     31  C   UNL     1      45.565   4.574   9.132  0.00  0.00    +0.000 A 
ATOM     32  O   UNL     1      46.192   5.573   8.793  0.00  0.00    +0.000 OA
ATOM     33  C   UNL     1      44.964   4.394  10.439  0.00  0.00    +0.000 A 
ATOM     34  H   UNL     1      45.760   3.635   7.339  0.00  0.00    +0.000 HD
ENDBRANCH  21  24
ENDBRANCH  19  20
ENDBRANCH   4  19
TORSDOF 8
ENDMDL
MODEL 5
REMARK VINA RESULT:    -6.856      4.027      8.231
REMARK INTER + INTRA:         -11.404
REMARK INTER:                  -9.075
REMARK INTRA:                  -2.329
REMARK UNBOUND:                -1.341
REMARK  Name = 
REMARK  9 active torsions:
REMARK  status: ('A' for Active; 'I' for Inactive)
REMARK    1  A    between atoms: C_1  and  O_2
REMARK    2  A    between atoms: O_2  and  C_3
REMARK    3  A    between atoms: C_8  and  C_9
REMARK    4  A    between atoms: C_9  and  N_10
REMARK    5  A    between atoms: N_10  and  C_11
REMARK    6  A    between atoms: C_11  and  C_12
REMARK    7  A    between atoms: C_15  and  C_16
REMARK    8  A    between atoms: C_16  and  N_17
REMARK    9  A    between atoms: C_18  and  C_20
REMARK                            x       y       z     vdW  Elec       q    Type
REMARK                         _______ _______ _______ _____ _____    ______ ____
ROOT
ATOM      1  C   UNL     1      50.542   7.270  17.720  0.00  0.00    +0.000 A 
ATOM      2  C   UNL     1      49.559   8.214  18.053  0.00  0.00    +0.000 A 
ATOM      3  C   UNL     1      48.750   8.782  17.066  0.00  0.00    +0.000 A 
ATOM      4  C   UNL     1      48.913   8.424  15.724  0.00  0.00    +0.000 A 
ATOM      5  C   UNL     1      49.923   7.516  15.383  0.00  0.00    +0.000 A 
ATOM      6  C   UNL     1      50.724   6.939  16.371  0.00  0.00    +0.000 A 
ENDROOT
BRANCH   1   7
ATOM      7  C   UNL     1      51.410   6.646  18.789  0.00  0.00    +0.000 C 
BRANCH   7   8
ATOM      8  N   UNL     1      51.663   5.231  18.515  0.00  0.00    +0.000 NA
ATOM      9  H   UNL     1      51.641   5.081  17.508  0.00  0.00    +0.000 HD
BRANCH   8  10
ATOM     10  C   UNL     1      50.627   4.387  19.118  0.00  0.00    +0.000 C 
BRANCH  10  16
ATOM     11  C   UNL     1      50.312   2.690  17.276  0.00  0.00    +0.000 A 
ATOM     12  N   UNL     1      49.614   2.006  16.339  0.00  0.00    +0.000 NA
ATOM     13  C   UNL     1      48.327   2.365  16.160  0.00  0.00    +0.000 A 
ATOM     14  C   UNL     1      47.706   3.379  16.866  0.00  0.00    +0.000 A 
ATOM     15  C   UNL     1      48.441   4.046  17.843  0.00  0.00    +0.000 A 
ATOM     16  C   UNL     1      49.770   3.683  18.094  0.00  0.00    +0.000 A 
BRANCH  11  18
ATOM     17  C   UNL     1      51.890   1.002  17.566  0.00  0.00    +0.000 C 
ATOM     18  O   UNL     1      51.653   2.401  17.437  0.00  0.00    +0.000 OA
ENDBRANCH  11  18
ENDBRANCH  10  16
ENDBRANCH   8  10
ENDBRANCH   7   8
ENDBRANCH   1   7
BRANCH   4  19
ATOM     19  C   UNL     1      48.051   9.041  14.656  0.00  0.00    +0.000 C 
BRANCH  19  20
ATOM     20  N   UNL     1      47.096   8.088  14.152  0.00  0.00    +0.000 N 
ATOM     21  C   UNL     1      46.718   8.092  12.836  0.00  0.00    +0.000 C 
ATOM     22  O   UNL     1      47.199   8.878  12.024  0.00  0.00    +0.000 OA
ATOM     23  H   UNL     1      46.538   7.586  14.837  0.00  0.00    +0.000 HD
BRANCH  21  24
ATOM     24  C   UNL     1      45.755   7.063  12.428  0.00  0.00    +0.000 A 
ATOM     25  C   UNL     1      44.597   7.437  11.758  0.00  0.00    +0.000 A 
ATOM     26  S   UNL     1      43.609   6.122  11.312  0.00  0.00    +0.000 S 
ATOM     27  C   UNL     1      44.666   5.010  12.045  0.00  0.00    +0.000 A 
ATOM     28  N   UNL     1      44.389   3.678  12.044  0.00  0.00    +0.000 NA
ATOM     29  C   UNL     1      45.259   2.951  12.663  0.00  0.00    +0.000 A 
ATOM     30  N   UNL     1      46.384   3.434  13.278  0.00  0.00    +0.000 N 
ATOM     31  C   UNL     1      46.723   4.767  13.274  0.00  0.00    +0.000 A 
ATOM     32  O   UNL     1      47.768   5.159  13.786  0.00  0.00    +0.000 OA
ATOM     33  C   UNL     1      45.770   5.630  12.604  0.00  0.00    +0.000 A 
ATOM     34  H   UNL     1      47.037   2.810  13.728  0.00  0.00    +0.000 HD
ENDBRANCH  21  24
ENDBRANCH  19  20
ENDBRANCH   4  19
TORSDOF 8
ENDMDL
MODEL 6
REMARK VINA RESULT:    -6.782      3.647      8.826
REMARK INTER + INTRA:         -11.295
REMARK INTER:                  -9.645
REMARK INTRA:                  -1.650
REMARK UNBOUND:                -1.341
REMARK  Name = 
REMARK  9 active torsions:
REMARK  status: ('A' for Active; 'I' for Inactive)
REMARK    1  A    between atoms: C_1  and  O_2
REMARK    2  A    between atoms: O_2  and  C_3
REMARK    3  A    between atoms: C_8  and  C_9
REMARK    4  A    between atoms: C_9  and  N_10
REMARK    5  A    between atoms: N_10  and  C_11
REMARK    6  A    between atoms: C_11  and  C_12
REMARK    7  A    between atoms: C_15  and  C_16
REMARK    8  A    between atoms: C_16  and  N_17
REMARK    9  A    between atoms: C_18  and  C_20
REMARK                            x       y       z     vdW  Elec       q    Type
REMARK                         _______ _______ _______ _____ _____    ______ ____
ROOT
ATOM      1  C   UNL     1      50.474   7.113  15.623  0.00  0.00    +0.000 A 
ATOM      2  C   UNL     1      50.997   7.972  14.645  0.00  0.00    +0.000 A 
ATOM      3  C   UNL     1      50.238   8.332  13.528  0.00  0.00    +0.000 A 
ATOM      4  C   UNL     1      48.942   7.833  13.363  0.00  0.00    +0.000 A 
ATOM      5  C   UNL     1      48.433   6.940  14.314  0.00  0.00    +0.000 A 
ATOM      6  C   UNL     1      49.187   6.589  15.436  0.00  0.00    +0.000 A 
ENDROOT
BRANCH   1   7
ATOM      7  C   UNL     1      51.291   6.733  16.837  0.00  0.00    +0.000 C 
BRANCH   7   8
ATOM      8  N   UNL     1      50.521   6.894  18.072  0.00  0.00    +0.000 NA
ATOM      9  H   UNL     1      51.006   7.553  18.678  0.00  0.00    +0.000 HD
BRANCH   8  10
ATOM     10  C   UNL     1      50.409   5.620  18.789  0.00  0.00    +0.000 C 
BRANCH  10  16
ATOM     11  C   UNL     1      47.976   5.072  18.399  0.00  0.00    +0.000 A 
ATOM     12  N   UNL     1      46.940   4.335  17.934  0.00  0.00    +0.000 NA
ATOM     13  C   UNL     1      47.248   3.167  17.335  0.00  0.00    +0.000 A 
ATOM     14  C   UNL     1      48.539   2.696  17.186  0.00  0.00    +0.000 A 
ATOM     15  C   UNL     1      49.586   3.489  17.648  0.00  0.00    +0.000 A 
ATOM     16  C   UNL     1      49.321   4.729  18.242  0.00  0.00    +0.000 A 
BRANCH  11  18
ATOM     17  C   UNL     1      47.241   5.989  20.409  0.00  0.00    +0.000 C 
ATOM     18  O   UNL     1      47.698   6.239  19.083  0.00  0.00    +0.000 OA
ENDBRANCH  11  18
ENDBRANCH  10  16
ENDBRANCH   8  10
ENDBRANCH   7   8
ENDBRANCH   1   7
BRANCH   4  19
ATOM     19  C   UNL     1      48.124   8.209  12.157  0.00  0.00    +0.000 C 
BRANCH  19  20
ATOM     20  N   UNL     1      47.480   7.052  11.592  0.00  0.00    +0.000 N 
ATOM     21  C   UNL     1      46.123   7.016  11.408  0.00  0.00    +0.000 C 
ATOM     22  O   UNL     1      45.404   7.975  11.680  0.00  0.00    +0.000 OA
ATOM     23  H   UNL     1      48.016   6.190  11.566  0.00  0.00    +0.000 HD
BRANCH  21  24
ATOM     24  C   UNL     1      45.576   5.796  10.805  0.00  0.00    +0.000 A 
ATOM     25  C   UNL     1      45.787   5.546   9.454  0.00  0.00    +0.000 A 
ATOM     26  S   UNL     1      45.129   4.067   8.921  0.00  0.00    +0.000 S 
ATOM     27  C   UNL     1      44.493   3.733  10.462  0.00  0.00    +0.000 A 
ATOM     28  N   UNL     1      43.776   2.599  10.691  0.00  0.00    +0.000 NA
ATOM     29  C   UNL     1      43.325   2.486  11.896  0.00  0.00    +0.000 A 
ATOM     30  N   UNL     1      43.531   3.401  12.895  0.00  0.00    +0.000 N 
ATOM     31  C   UNL     1      44.278   4.542  12.721  0.00  0.00    +0.000 A 
ATOM     32  O   UNL     1      44.490   5.312  13.652  0.00  0.00    +0.000 OA
ATOM     33  C   UNL     1      44.795   4.724  11.379  0.00  0.00    +0.000 A 
ATOM     34  H   UNL     1      43.168   3.244  13.824  0.00  0.00    +0.000 HD
ENDBRANCH  21  24
ENDBRANCH  19  20
ENDBRANCH   4  19
TORSDOF 8
ENDMDL
MODEL 7
REMARK VINA RESULT:    -6.778      4.192      8.623
REMARK INTER + INTRA:         -11.290
REMARK INTER:                  -9.109
REMARK INTRA:                  -2.181
REMARK UNBOUND:                -1.341
REMARK  Name = 
REMARK  9 active torsions:
REMARK  status: ('A' for Active; 'I' for Inactive)
REMARK    1  A    between atoms: C_1  and  O_2
REMARK    2  A    between atoms: O_2  and  C_3
REMARK    3  A    between atoms: C_8  and  C_9
REMARK    4  A    between atoms: C_9  and  N_10
REMARK    5  A    between atoms: N_10  and  C_11
REMARK    6  A    between atoms: C_11  and  C_12
REMARK    7  A    between atoms: C_15  and  C_16
REMARK    8  A    between atoms: C_16  and  N_17
REMARK    9  A    between atoms: C_18  and  C_20
REMARK                            x       y       z     vdW  Elec       q    Type
REMARK                         _______ _______ _______ _____ _____    ______ ____
ROOT
ATOM      1  C   UNL     1      50.320   7.444  18.003  0.00  0.00    +0.000 A 
ATOM      2  C   UNL     1      49.098   8.135  17.996  0.00  0.00    +0.000 A 
ATOM      3  C   UNL     1      48.494   8.507  16.793  0.00  0.00    +0.000 A 
ATOM      4  C   UNL     1      49.102   8.204  15.571  0.00  0.00    +0.000 A 
ATOM      5  C   UNL     1      50.343   7.554  15.575  0.00  0.00    +0.000 A 
ATOM      6  C   UNL     1      50.943   7.171  16.777  0.00  0.00    +0.000 A 
ENDROOT
BRANCH   1   7
ATOM      7  C   UNL     1      50.969   7.031  19.304  0.00  0.00    +0.000 C 
BRANCH   7   8
ATOM      8  N   UNL     1      51.374   5.624  19.277  0.00  0.00    +0.000 NA
ATOM      9  H   UNL     1      51.576   5.358  18.315  0.00  0.00    +0.000 HD
BRANCH   8  10
ATOM     10  C   UNL     1      50.297   4.759  19.767  0.00  0.00    +0.000 C 
BRANCH  10  16
ATOM     11  C   UNL     1      49.771   3.578  17.598  0.00  0.00    +0.000 A 
ATOM     12  N   UNL     1      48.975   3.159  16.587  0.00  0.00    +0.000 NA
ATOM     13  C   UNL     1      47.690   3.570  16.617  0.00  0.00    +0.000 A 
ATOM     14  C   UNL     1      47.167   4.385  17.603  0.00  0.00    +0.000 A 
ATOM     15  C   UNL     1      48.003   4.777  18.645  0.00  0.00    +0.000 A 
ATOM     16  C   UNL     1      49.334   4.344  18.680  0.00  0.00    +0.000 A 
BRANCH  11  18
ATOM     17  C   UNL     1      51.305   1.835  17.422  0.00  0.00    +0.000 C 
ATOM     18  O   UNL     1      51.109   3.239  17.564  0.00  0.00    +0.000 OA
ENDBRANCH  11  18
ENDBRANCH  10  16
ENDBRANCH   8  10
ENDBRANCH   7   8
ENDBRANCH   1   7
BRANCH   4  19
ATOM     19  C   UNL     1      48.460   8.612  14.272  0.00  0.00    +0.000 C 
BRANCH  19  20
ATOM     20  N   UNL     1      47.411   7.696  13.908  0.00  0.00    +0.000 N 
ATOM     21  C   UNL     1      47.678   6.563  13.186  0.00  0.00    +0.000 C 
ATOM     22  O   UNL     1      48.821   6.261  12.849  0.00  0.00    +0.000 OA
ATOM     23  H   UNL     1      46.455   8.031  13.986  0.00  0.00    +0.000 HD
BRANCH  21  24
ATOM     24  C   UNL     1      46.537   5.691  12.889  0.00  0.00    +0.000 A 
ATOM     25  C   UNL     1      46.625   4.332  13.165  0.00  0.00    +0.000 A 
ATOM     26  S   UNL     1      45.200   3.468  12.808  0.00  0.00    +0.000 S 
ATOM     27  C   UNL     1      44.434   4.868  12.222  0.00  0.00    +0.000 A 
ATOM     28  N   UNL     1      43.166   4.816  11.728  0.00  0.00    +0.000 NA
ATOM     29  C   UNL     1      42.718   5.944  11.288  0.00  0.00    +0.000 A 
ATOM     30  N   UNL     1      43.419   7.121  11.301  0.00  0.00    +0.000 N 
ATOM     31  C   UNL     1      44.688   7.229  11.821  0.00  0.00    +0.000 A 
ATOM     32  O   UNL     1      45.266   8.311  11.869  0.00  0.00    +0.000 OA
ATOM     33  C   UNL     1      45.244   5.986  12.316  0.00  0.00    +0.000 A 
ATOM     34  H   UNL     1      43.004   7.975  10.959  0.00  0.00    +0.000 HD
ENDBRANCH  21  24
ENDBRANCH  19  20
ENDBRANCH   4  19
TORSDOF 8
ENDMDL
MODEL 8
REMARK VINA RESULT:    -6.530      3.482      4.117
REMARK INTER + INTRA:         -10.925
REMARK INTER:                  -9.574
REMARK INTRA:                  -1.352
REMARK UNBOUND:                -1.341
REMARK  Name = 
REMARK  9 active torsions:
REMARK  status: ('A' for Active; 'I' for Inactive)
REMARK    1  A    between atoms: C_1  and  O_2
REMARK    2  A    between atoms: O_2  and  C_3
REMARK    3  A    between atoms: C_8  and  C_9
REMARK    4  A    between atoms: C_9  and  N_10
REMARK    5  A    between atoms: N_10  and  C_11
REMARK    6  A    between atoms: C_11  and  C_12
REMARK    7  A    between atoms: C_15  and  C_16
REMARK    8  A    between atoms: C_16  and  N_17
REMARK    9  A    between atoms: C_18  and  C_20
REMARK                            x       y       z     vdW  Elec       q    Type
REMARK                         _______ _______ _______ _____ _____    ______ ____
ROOT
ATOM      1  C   UNL     1      45.032   4.503  11.563  0.00  0.00    +0.000 A 
ATOM      2  C   UNL     1      44.197   5.486  11.010  0.00  0.00    +0.000 A 
ATOM      3  C   UNL     1      44.352   6.831  11.351  0.00  0.00    +0.000 A 
ATOM      4  C   UNL     1      45.341   7.222  12.260  0.00  0.00    +0.000 A 
ATOM      5  C   UNL     1      46.147   6.239  12.849  0.00  0.00    +0.000 A 
ATOM      6  C   UNL     1      46.000   4.895  12.498  0.00  0.00    +0.000 A 
ENDROOT
BRANCH   1   7
ATOM      7  C   UNL     1      44.872   3.048  11.185  0.00  0.00    +0.000 C 
BRANCH   7   8
ATOM      8  N   UNL     1      44.260   2.903   9.863  0.00  0.00    +0.000 NA
ATOM      9  H   UNL     1      43.260   2.745   9.979  0.00  0.00    +0.000 HD
BRANCH   8  10
ATOM     10  C   UNL     1      44.819   1.751   9.150  0.00  0.00    +0.000 C 
BRANCH  10  16
ATOM     11  C   UNL     1      46.769   1.160   7.660  0.00  0.00    +0.000 A 
ATOM     12  N   UNL     1      47.767   1.414   6.781  0.00  0.00    +0.000 NA
ATOM     13  C   UNL     1      47.964   2.704   6.443  0.00  0.00    +0.000 A 
ATOM     14  C   UNL     1      47.218   3.753   6.948  0.00  0.00    +0.000 A 
ATOM     15  C   UNL     1      46.180   3.459   7.828  0.00  0.00    +0.000 A 
ATOM     16  C   UNL     1      45.910   2.131   8.179  0.00  0.00    +0.000 A 
BRANCH  11  18
ATOM     17  C   UNL     1      46.482  -1.054   6.997  0.00  0.00    +0.000 C 
ATOM     18  O   UNL     1      46.584  -0.140   8.086  0.00  0.00    +0.000 OA
ENDBRANCH  11  18
ENDBRANCH  10  16
ENDBRANCH   8  10
ENDBRANCH   7   8
ENDBRANCH   1   7
BRANCH   4  19
ATOM     19  C   UNL     1      45.505   8.669  12.639  0.00  0.00    +0.000 C 
BRANCH  19  20
ATOM     20  N   UNL     1      46.875   8.959  12.977  0.00  0.00    +0.000 N 
ATOM     21  C   UNL     1      47.467  10.132  12.588  0.00  0.00    +0.000 C 
ATOM     22  O   UNL     1      46.851  10.997  11.970  0.00  0.00    +0.000 OA
ATOM     23  H   UNL     1      47.449   8.182  13.289  0.00  0.00    +0.000 HD
BRANCH  21  24
ATOM     24  C   UNL     1      48.859  10.332  13.005  0.00  0.00    +0.000 A 
ATOM     25  C   UNL     1      49.194  11.456  13.750  0.00  0.00    +0.000 A 
ATOM     26  S   UNL     1      50.839  11.516  14.194  0.00  0.00    +0.000 S 
ATOM     27  C   UNL     1      51.172  10.071  13.362  0.00  0.00    +0.000 A 
ATOM     28  N   UNL     1      52.434   9.561  13.324  0.00  0.00    +0.000 NA
ATOM     29  C   UNL     1      52.551   8.478  12.632  0.00  0.00    +0.000 A 
ATOM     30  N   UNL     1      51.521   7.854  11.978  0.00  0.00    +0.000 N 
ATOM     31  C   UNL     1      50.225   8.312  12.017  0.00  0.00    +0.000 A 
ATOM     32  O   UNL     1      49.317   7.697  11.467  0.00  0.00    +0.000 OA
ATOM     33  C   UNL     1      50.041   9.536  12.770  0.00  0.00    +0.000 A 
ATOM     34  H   UNL     1      51.676   6.996  11.468  0.00  0.00    +0.000 HD
ENDBRANCH  21  24
ENDBRANCH  19  20
ENDBRANCH   4  19
TORSDOF 8
ENDMDL
MODEL 9
REMARK VINA RESULT:    -6.345      3.906      5.509
REMARK INTER + INTRA:         -10.654
REMARK INTER:                  -9.126
REMARK INTRA:                  -1.528
REMARK UNBOUND:                -1.341
REMARK  Name = 
REMARK  9 active torsions:
REMARK  status: ('A' for Active; 'I' for Inactive)
REMARK    1  A    between atoms: C_1  and  O_2
REMARK    2  A    between atoms: O_2  and  C_3
REMARK    3  A    between atoms: C_8  and  C_9
REMARK    4  A    between atoms: C_9  and  N_10
REMARK    5  A    between atoms: N_10  and  C_11
REMARK    6  A    between atoms: C_11  and  C_12
REMARK    7  A    between atoms: C_15  and  C_16
REMARK    8  A    between atoms: C_16  and  N_17
REMARK    9  A    between atoms: C_18  and  C_20
REMARK                            x       y       z     vdW  Elec       q    Type
REMARK                         _______ _______ _______ _____ _____    ______ ____
ROOT
ATOM      1  C   UNL     1      48.163   7.979  13.518  0.00  0.00    +0.000 A 
ATOM      2  C   UNL     1      47.796   9.004  14.403  0.00  0.00    +0.000 A 
ATOM      3  C   UNL     1      48.253   9.008  15.722  0.00  0.00    +0.000 A 
ATOM      4  C   UNL     1      49.082   7.982  16.188  0.00  0.00    +0.000 A 
ATOM      5  C   UNL     1      49.414   6.933  15.321  0.00  0.00    +0.000 A 
ATOM      6  C   UNL     1      48.966   6.935  13.998  0.00  0.00    +0.000 A 
ENDROOT
BRANCH   1   7
ATOM      7  C   UNL     1      47.678   7.980  12.086  0.00  0.00    +0.000 C 
BRANCH   7   8
ATOM      8  N   UNL     1      46.890   6.783  11.787  0.00  0.00    +0.000 NA
ATOM      9  H   UNL     1      46.721   6.742  10.783  0.00  0.00    +0.000 HD
BRANCH   8  10
ATOM     10  C   UNL     1      45.590   6.829  12.461  0.00  0.00    +0.000 C 
BRANCH  10  16
ATOM     11  C   UNL     1      44.993   4.460  13.099  0.00  0.00    +0.000 A 
ATOM     12  N   UNL     1      44.311   3.295  13.003  0.00  0.00    +0.000 NA
ATOM     13  C   UNL     1      43.415   3.197  12.000  0.00  0.00    +0.000 A 
ATOM     14  C   UNL     1      43.174   4.205  11.084  0.00  0.00    +0.000 A 
ATOM     15  C   UNL     1      43.871   5.402  11.224  0.00  0.00    +0.000 A 
ATOM     16  C   UNL     1      44.783   5.567  12.274  0.00  0.00    +0.000 A 
BRANCH  11  18
ATOM     17  C   UNL     1      47.046   3.659  13.853  0.00  0.00    +0.000 C 
ATOM     18  O   UNL     1      45.972   4.571  14.067  0.00  0.00    +0.000 OA
ENDBRANCH  11  18
ENDBRANCH  10  16
ENDBRANCH   8  10
ENDBRANCH   7   8
ENDBRANCH   1   7
BRANCH   4  19
ATOM     19  C   UNL     1      49.569   7.976  17.612  0.00  0.00    +0.000 C 
BRANCH  19  20
ATOM     20  N   UNL     1      50.522   6.917  17.825  0.00  0.00    +0.000 N 
ATOM     21  C   UNL     1      50.269   5.905  18.713  0.00  0.00    +0.000 C 
ATOM     22  O   UNL     1      49.213   5.836  19.336  0.00  0.00    +0.000 OA
ATOM     23  H   UNL     1      51.468   7.072  17.490  0.00  0.00    +0.000 HD
BRANCH  21  24
ATOM     24  C   UNL     1      51.300   4.868  18.834  0.00  0.00    +0.000 A 
ATOM     25  C   UNL     1      52.425   5.110  19.611  0.00  0.00    +0.000 A 
ATOM     26  S   UNL     1      53.501   3.790  19.687  0.00  0.00    +0.000 S 
ATOM     27  C   UNL     1      52.527   2.868  18.642  0.00  0.00    +0.000 A 
ATOM     28  N   UNL     1      52.897   1.612  18.270  0.00  0.00    +0.000 NA
ATOM     29  C   UNL     1      52.083   1.038  17.448  0.00  0.00    +0.000 A 
ATOM     30  N   UNL     1      50.930   1.602  16.969  0.00  0.00    +0.000 N 
ATOM     31  C   UNL     1      50.498   2.852  17.344  0.00  0.00    +0.000 A 
ATOM     32  O   UNL     1      49.432   3.304  16.940  0.00  0.00    +0.000 OA
ATOM     33  C   UNL     1      51.386   3.547  18.255  0.00  0.00    +0.000 A 
ATOM     34  H   UNL     1      50.325   1.091  16.343  0.00  0.00    +0.000 HD
ENDBRANCH  21  24
ENDBRANCH  19  20
ENDBRANCH   4  19
TORSDOF 8
ENDMDL
