MODEL 1
REMARK VINA RESULT:    -8.644      0.000      0.000
REMARK INTER + INTRA:         -11.918
REMARK INTER:                 -11.170
REMARK INTRA:                  -0.747
REMARK UNBOUND:                -0.747
REMARK  Name = 
REMARK  5 active torsions:
REMARK  status: ('A' for Active; 'I' for Inactive)
REMARK    1  A    between atoms: C_2  and  C_4
REMARK    2  A    between atoms: C_7  and  N_8
REMARK    3  A    between atoms: N_8  and  C_9
REMARK    4  A    between atoms: C_9  and  C_10
REMARK    5  A    between atoms: C_12  and  C_13
REMARK                            x       y       z     vdW  Elec       q    Type
REMARK                         _______ _______ _______ _____ _____    ______ ____
ROOT
ATOM      1  N   UNL     1      43.792   4.778   9.985  0.00  0.00    +0.000 N 
ATOM      2  H   UNL     1      42.965   5.080   9.481  0.00  0.00    +0.000 HD
ENDROOT
BRANCH   1   6
ATOM      3  C   UNL     1      46.375   2.276   7.780  0.00  0.00    +0.000 A 
ATOM      4  C   UNL     1      45.475   1.706   8.684  0.00  0.00    +0.000 A 
ATOM      5  C   UNL     1      44.613   2.523   9.427  0.00  0.00    +0.000 A 
ATOM      6  C   UNL     1      44.597   3.911   9.255  0.00  0.00    +0.000 A 
ATOM      7  C   UNL     1      45.532   4.468   8.369  0.00  0.00    +0.000 A 
ATOM      8  C   UNL     1      46.420   3.664   7.643  0.00  0.00    +0.000 A 
BRANCH   3  10
ATOM      9  N   UNL     1      48.448   2.058   6.524  0.00  0.00    +0.000 N 
ATOM     10  C   UNL     1      47.314   1.446   6.985  0.00  0.00    +0.000 C 
ATOM     11  O   UNL     1      47.111   0.257   6.778  0.00  0.00    +0.000 OA
ATOM     12  H   UNL     1      49.131   1.462   6.076  0.00  0.00    +0.000 HD
ATOM     13  H   UNL     1      48.764   2.948   6.885  0.00  0.00    +0.000 HD
ENDBRANCH   3  10
ENDBRANCH   1   6
BRANCH   1  14
ATOM     14  C   UNL     1      43.607   4.660  11.433  0.00  0.00    +0.000 C 
BRANCH  14  15
ATOM     15  C   UNL     1      44.889   4.940  12.200  0.00  0.00    +0.000 A 
ATOM     16  C   UNL     1      45.657   6.070  11.899  0.00  0.00    +0.000 A 
ATOM     17  C   UNL     1      46.851   6.330  12.585  0.00  0.00    +0.000 A 
ATOM     18  C   UNL     1      47.199   5.426  13.596  0.00  0.00    +0.000 A 
ATOM     19  C   UNL     1      46.370   4.346  13.861  0.00  0.00    +0.000 A 
ATOM     20  N   UNL     1      45.230   4.082  13.191  0.00  0.00    +0.000 NA
BRANCH  17  21
ATOM     21  C   UNL     1      47.704   7.492  12.241  0.00  0.00    +0.000 A 
ATOM     22  C   UNL     1      49.069   7.349  11.956  0.00  0.00    +0.000 A 
ATOM     23  C   UNL     1      49.821   8.468  11.627  0.00  0.00    +0.000 A 
ATOM     24  N   UNL     1      49.323   9.719  11.568  0.00  0.00    +0.000 NA
ATOM     25  C   UNL     1      48.013   9.853  11.846  0.00  0.00    +0.000 A 
ATOM     26  C   UNL     1      47.181   8.794  12.176  0.00  0.00    +0.000 A 
ENDBRANCH  17  21
ENDBRANCH  14  15
ENDBRANCH   1  14
TORSDOF 5
ENDMDL
MODEL 2
REMARK VINA RESULT:    -8.321      1.836      3.391
REMARK INTER + INTRA:         -11.501
REMARK INTER:                 -10.924
REMARK INTRA:                  -0.577
REMARK UNBOUND:                -0.747
REMARK  Name = 
REMARK  5 active torsions:
REMARK  status: ('A' for Active; 'I' for Inactive)
REMARK    1  A    between atoms: C_2  and  C_4
REMARK    2  A    between atoms: C_7  and  N_8
REMARK    3  A    between atoms: N_8  and  C_9
REMARK    4  A    between atoms: C_9  and  C_10
REMARK    5  A    between atoms: C_12  and  C_13
REMARK                            x       y       z     vdW  Elec       q    Type
REMARK                         _______ _______ _______ _____ _____    ______ ____
ROOT
ATOM      1  N   UNL     1      43.805   4.785  10.023  0.00  0.00    +0.000 N 
ATOM      2  H   UNL     1      42.890   4.938   9.614  0.00  0.00    +0.000 HD
ENDROOT
BRANCH   1   6
ATOM      3  C   UNL     1      46.374   2.315   7.767  0.00  0.00    +0.000 A 
ATOM      4  C   UNL     1      45.516   1.736   8.705  0.00  0.00    +0.000 A 
ATOM      5  C   UNL     1      44.659   2.542   9.466  0.00  0.00    +0.000 A 
ATOM      6  C   UNL     1      44.607   3.927   9.279  0.00  0.00    +0.000 A 
ATOM      7  C   UNL     1      45.500   4.494   8.357  0.00  0.00    +0.000 A 
ATOM      8  C   UNL     1      46.383   3.702   7.613  0.00  0.00    +0.000 A 
BRANCH   3  10
ATOM      9  N   UNL     1      48.443   2.112   6.501  0.00  0.00    +0.000 N 
ATOM     10  C   UNL     1      47.307   1.497   6.952  0.00  0.00    +0.000 C 
ATOM     11  O   UNL     1      47.096   0.314   6.720  0.00  0.00    +0.000 OA
ATOM     12  H   UNL     1      49.121   1.522   6.039  0.00  0.00    +0.000 HD
ATOM     13  H   UNL     1      48.765   2.992   6.880  0.00  0.00    +0.000 HD
ENDBRANCH   3  10
ENDBRANCH   1   6
BRANCH   1  14
ATOM     14  C   UNL     1      43.825   4.819  11.488  0.00  0.00    +0.000 C 
BRANCH  14  15
ATOM     15  C   UNL     1      45.113   5.417  12.029  0.00  0.00    +0.000 A 
ATOM     16  C   UNL     1      45.684   4.913  13.203  0.00  0.00    +0.000 A 
ATOM     17  C   UNL     1      46.861   5.466  13.724  0.00  0.00    +0.000 A 
ATOM     18  C   UNL     1      47.440   6.508  12.988  0.00  0.00    +0.000 A 
ATOM     19  C   UNL     1      46.835   6.932  11.814  0.00  0.00    +0.000 A 
ATOM     20  N   UNL     1      45.692   6.415  11.319  0.00  0.00    +0.000 NA
BRANCH  17  21
ATOM     21  C   UNL     1      47.448   4.982  14.996  0.00  0.00    +0.000 A 
ATOM     22  C   UNL     1      47.210   3.685  15.474  0.00  0.00    +0.000 A 
ATOM     23  C   UNL     1      47.792   3.277  16.665  0.00  0.00    +0.000 A 
ATOM     24  N   UNL     1      48.587   4.059  17.422  0.00  0.00    +0.000 NA
ATOM     25  C   UNL     1      48.810   5.305  16.962  0.00  0.00    +0.000 A 
ATOM     26  C   UNL     1      48.278   5.799  15.780  0.00  0.00    +0.000 A 
ENDBRANCH  17  21
ENDBRANCH  14  15
ENDBRANCH   1  14
TORSDOF 5
ENDMDL
MODEL 3
REMARK VINA RESULT:    -7.893      1.493      2.206
REMARK INTER + INTRA:         -10.948
REMARK INTER:                 -10.313
REMARK INTRA:                  -0.636
REMARK UNBOUND:                -0.747
REMARK  Name = 
REMARK  5 active torsions:
REMARK  status: ('A' for Active; 'I' for Inactive)
REMARK    1  A    between atoms: C_2  and  C_4
REMARK    2  A    between atoms: C_7  and  N_8
REMARK    3  A    between atoms: N_8  and  C_9
REMARK    4  A    between atoms: C_9  and  C_10
REMARK    5  A    between atoms: C_12  and  C_13
REMARK                            x       y       z     vdW  Elec       q    Type
REMARK                         _______ _______ _______ _____ _____    ______ ____
ROOT
ATOM      1  N   UNL     1      43.858   3.258  10.435  0.00  0.00    +0.000 N 
ATOM      2  H   UNL     1      43.104   2.579  10.407  0.00  0.00    +0.000 HD
ENDROOT
BRANCH   1   6
ATOM      3  C   UNL     1      46.596   2.590   7.297  0.00  0.00    +0.000 A 
ATOM      4  C   UNL     1      46.108   3.880   7.518  0.00  0.00    +0.000 A 
ATOM      5  C   UNL     1      45.196   4.119   8.553  0.00  0.00    +0.000 A 
ATOM      6  C   UNL     1      44.785   3.094   9.412  0.00  0.00    +0.000 A 
ATOM      7  C   UNL     1      45.259   1.799   9.154  0.00  0.00    +0.000 A 
ATOM      8  C   UNL     1      46.149   1.542   8.103  0.00  0.00    +0.000 A 
BRANCH   3  10
ATOM      9  N   UNL     1      47.473   3.068   5.078  0.00  0.00    +0.000 N 
ATOM     10  C   UNL     1      47.554   2.293   6.202  0.00  0.00    +0.000 C 
ATOM     11  O   UNL     1      48.407   1.422   6.308  0.00  0.00    +0.000 OA
ATOM     12  H   UNL     1      48.195   2.931   4.384  0.00  0.00    +0.000 HD
ATOM     13  H   UNL     1      46.963   3.941   5.061  0.00  0.00    +0.000 HD
ENDBRANCH   3  10
ENDBRANCH   1   6
BRANCH   1  14
ATOM     14  C   UNL     1      44.231   3.691  11.784  0.00  0.00    +0.000 C 
BRANCH  14  15
ATOM     15  C   UNL     1      44.686   5.141  11.814  0.00  0.00    +0.000 A 
ATOM     16  C   UNL     1      45.998   5.459  12.178  0.00  0.00    +0.000 A 
ATOM     17  C   UNL     1      46.426   6.793  12.229  0.00  0.00    +0.000 A 
ATOM     18  C   UNL     1      45.486   7.764  11.861  0.00  0.00    +0.000 A 
ATOM     19  C   UNL     1      44.213   7.370  11.479  0.00  0.00    +0.000 A 
ATOM     20  N   UNL     1      43.791   6.089  11.447  0.00  0.00    +0.000 NA
BRANCH  17  21
ATOM     21  C   UNL     1      47.796   7.150  12.667  0.00  0.00    +0.000 A 
ATOM     22  C   UNL     1      48.220   6.973  13.992  0.00  0.00    +0.000 A 
ATOM     23  C   UNL     1      49.517   7.312  14.347  0.00  0.00    +0.000 A 
ATOM     24  N   UNL     1      50.424   7.821  13.490  0.00  0.00    +0.000 NA
ATOM     25  C   UNL     1      50.013   7.994  12.219  0.00  0.00    +0.000 A 
ATOM     26  C   UNL     1      48.739   7.677  11.770  0.00  0.00    +0.000 A 
ENDBRANCH  17  21
ENDBRANCH  14  15
ENDBRANCH   1  14
TORSDOF 5
ENDMDL
MODEL 4
REMARK VINA RESULT:    -7.360      2.999      6.902
REMARK INTER + INTRA:         -10.258
REMARK INTER:                  -9.741
REMARK INTRA:                  -0.517
REMARK UNBOUND:                -0.747
REMARK  Name = 
REMARK  5 active torsions:
REMARK  status: ('A' for Active; 'I' for Inactive)
REMARK    1  A    between atoms: C_2  and  C_4
REMARK    2  A    between atoms: C_7  and  N_8
REMARK    3  A    between atoms: N_8  and  C_9
REMARK    4  A    between atoms: C_9  and  C_10
REMARK    5  A    between atoms: C_12  and  C_13
REMARK                            x       y       z     vdW  Elec       q    Type
REMARK                         _______ _______ _______ _____ _____    ______ ____
ROOT
ATOM      1  N   UNL     1      44.737   7.253  10.970  0.00  0.00    +0.000 N 
ATOM      2  H   UNL     1      45.070   7.244  10.012  0.00  0.00    +0.000 HD
ENDROOT
BRANCH   1   6
ATOM      3  C   UNL     1      47.951   7.506  13.690  0.00  0.00    +0.000 A 
ATOM      4  C   UNL     1      46.959   8.489  13.707  0.00  0.00    +0.000 A 
ATOM      5  C   UNL     1      45.887   8.423  12.809  0.00  0.00    +0.000 A 
ATOM      6  C   UNL     1      45.756   7.359  11.909  0.00  0.00    +0.000 A 
ATOM      7  C   UNL     1      46.779   6.399  11.883  0.00  0.00    +0.000 A 
ATOM      8  C   UNL     1      47.872   6.472  12.755  0.00  0.00    +0.000 A 
BRANCH   3  10
ATOM      9  N   UNL     1      50.356   7.461  14.058  0.00  0.00    +0.000 N 
ATOM     10  C   UNL     1      49.110   7.548  14.616  0.00  0.00    +0.000 C 
ATOM     11  O   UNL     1      48.968   7.693  15.823  0.00  0.00    +0.000 OA
ATOM     12  H   UNL     1      51.139   7.597  14.682  0.00  0.00    +0.000 HD
ATOM     13  H   UNL     1      50.514   7.596  13.068  0.00  0.00    +0.000 HD
ENDBRANCH   3  10
ENDBRANCH   1   6
BRANCH   1  14
ATOM     14  C   UNL     1      43.530   6.453  11.196  0.00  0.00    +0.000 C 
BRANCH  14  15
ATOM     15  C   UNL     1      43.757   4.979  10.907  0.00  0.00    +0.000 A 
ATOM     16  C   UNL     1      44.596   4.588   9.858  0.00  0.00    +0.000 A 
ATOM     17  C   UNL     1      44.800   3.232   9.568  0.00  0.00    +0.000 A 
ATOM     18  C   UNL     1      44.156   2.312  10.405  0.00  0.00    +0.000 A 
ATOM     19  C   UNL     1      43.366   2.773  11.447  0.00  0.00    +0.000 A 
ATOM     20  N   UNL     1      43.152   4.077  11.718  0.00  0.00    +0.000 NA
BRANCH  17  21
ATOM     21  C   UNL     1      45.641   2.802   8.426  0.00  0.00    +0.000 A 
ATOM     22  C   UNL     1      45.988   3.682   7.391  0.00  0.00    +0.000 A 
ATOM     23  C   UNL     1      46.788   3.234   6.350  0.00  0.00    +0.000 A 
ATOM     24  N   UNL     1      47.262   1.976   6.253  0.00  0.00    +0.000 NA
ATOM     25  C   UNL     1      46.923   1.132   7.246  0.00  0.00    +0.000 A 
ATOM     26  C   UNL     1      46.136   1.492   8.330  0.00  0.00    +0.000 A 
ENDBRANCH  17  21
ENDBRANCH  14  15
ENDBRANCH   1  14
TORSDOF 5
ENDMDL
MODEL 5
REMARK VINA RESULT:    -7.097      3.017      7.239
REMARK INTER + INTRA:          -9.919
REMARK INTER:                  -9.506
REMARK INTRA:                  -0.413
REMARK UNBOUND:                -0.747
REMARK  Name = 
REMARK  5 active torsions:
REMARK  status: ('A' for Active; 'I' for Inactive)
REMARK    1  A    between atoms: C_2  and  C_4
REMARK    2  A    between atoms: C_7  and  N_8
REMARK    3  A    between atoms: N_8  and  C_9
REMARK    4  A    between atoms: C_9  and  C_10
REMARK    5  A    between atoms: C_12  and  C_13
REMARK                            x       y       z     vdW  Elec       q    Type
REMARK                         _______ _______ _______ _____ _____    ______ ____
ROOT
ATOM      1  N   UNL     1      46.280   6.757  11.547  0.00  0.00    +0.000 N 
ATOM      2  H   UNL     1      46.895   6.564  10.764  0.00  0.00    +0.000 HD
ENDROOT
BRANCH   1   6
ATOM      3  C   UNL     1      48.084   5.890  15.259  0.00  0.00    +0.000 A 
ATOM      4  C   UNL     1      48.413   7.076  14.597  0.00  0.00    +0.000 A 
ATOM      5  C   UNL     1      47.826   7.378  13.362  0.00  0.00    +0.000 A 
ATOM      6  C   UNL     1      46.873   6.533  12.784  0.00  0.00    +0.000 A 
ATOM      7  C   UNL     1      46.580   5.331  13.446  0.00  0.00    +0.000 A 
ATOM      8  C   UNL     1      47.183   5.004  14.667  0.00  0.00    +0.000 A 
BRANCH   3  10
ATOM      9  N   UNL     1      47.955   5.778  17.687  0.00  0.00    +0.000 N 
ATOM     10  C   UNL     1      48.695   5.528  16.563  0.00  0.00    +0.000 C 
ATOM     11  O   UNL     1      49.793   4.993  16.636  0.00  0.00    +0.000 OA
ATOM     12  H   UNL     1      48.331   5.432  18.559  0.00  0.00    +0.000 HD
ATOM     13  H   UNL     1      46.964   5.976  17.647  0.00  0.00    +0.000 HD
ENDBRANCH   3  10
ENDBRANCH   1   6
BRANCH   1  14
ATOM     14  C   UNL     1      44.864   6.484  11.284  0.00  0.00    +0.000 C 
BRANCH  14  15
ATOM     15  C   UNL     1      44.635   5.060  10.806  0.00  0.00    +0.000 A 
ATOM     16  C   UNL     1      45.390   4.542   9.748  0.00  0.00    +0.000 A 
ATOM     17  C   UNL     1      45.176   3.238   9.284  0.00  0.00    +0.000 A 
ATOM     18  C   UNL     1      44.206   2.486   9.960  0.00  0.00    +0.000 A 
ATOM     19  C   UNL     1      43.521   3.056  11.023  0.00  0.00    +0.000 A 
ATOM     20  N   UNL     1      43.710   4.317  11.460  0.00  0.00    +0.000 NA
BRANCH  17  21
ATOM     21  C   UNL     1      45.928   2.694   8.129  0.00  0.00    +0.000 A 
ATOM     22  C   UNL     1      46.388   1.370   8.102  0.00  0.00    +0.000 A 
ATOM     23  C   UNL     1      47.077   0.906   6.991  0.00  0.00    +0.000 A 
ATOM     24  N   UNL     1      47.351   1.658   5.907  0.00  0.00    +0.000 NA
ATOM     25  C   UNL     1      46.911   2.931   5.937  0.00  0.00    +0.000 A 
ATOM     26  C   UNL     1      46.208   3.480   7.000  0.00  0.00    +0.000 A 
ENDBRANCH  17  21
ENDBRANCH  14  15
ENDBRANCH   1  14
TORSDOF 5
ENDMDL
MODEL 6
REMARK VINA RESULT:    -6.813      2.773      6.758
REMARK INTER + INTRA:          -9.552
REMARK INTER:                  -8.889
REMARK INTRA:                  -0.663
REMARK UNBOUND:                -0.747
REMARK  Name = 
REMARK  5 active torsions:
REMARK  status: ('A' for Active; 'I' for Inactive)
REMARK    1  A    between atoms: C_2  and  C_4
REMARK    2  A    between atoms: C_7  and  N_8
REMARK    3  A    between atoms: N_8  and  C_9
REMARK    4  A    between atoms: C_9  and  C_10
REMARK    5  A    between atoms: C_12  and  C_13
REMARK                            x       y       z     vdW  Elec       q    Type
REMARK                         _______ _______ _______ _____ _____    ______ ____
ROOT
ATOM      1  N   UNL     1      45.777   6.343  13.267  0.00  0.00    +0.000 N 
ATOM      2  H   UNL     1      45.487   6.481  14.229  0.00  0.00    +0.000 HD
ENDROOT
BRANCH   1   6
ATOM      3  C   UNL     1      49.678   7.777  12.551  0.00  0.00    +0.000 A 
ATOM      4  C   UNL     1      48.754   7.752  11.503  0.00  0.00    +0.000 A 
ATOM      5  C   UNL     1      47.455   7.276  11.723  0.00  0.00    +0.000 A 
ATOM      6  C   UNL     1      47.038   6.858  12.991  0.00  0.00    +0.000 A 
ATOM      7  C   UNL     1      47.990   6.857  14.022  0.00  0.00    +0.000 A 
ATOM      8  C   UNL     1      49.300   7.303  13.808  0.00  0.00    +0.000 A 
BRANCH   3  10
ATOM      9  N   UNL     1      51.444   8.573  11.077  0.00  0.00    +0.000 N 
ATOM     10  C   UNL     1      51.068   8.262  12.355  0.00  0.00    +0.000 C 
ATOM     11  O   UNL     1      51.837   8.416  13.295  0.00  0.00    +0.000 OA
ATOM     12  H   UNL     1      52.353   9.002  10.968  0.00  0.00    +0.000 HD
ATOM     13  H   UNL     1      50.771   8.699  10.333  0.00  0.00    +0.000 HD
ENDBRANCH   3  10
ENDBRANCH   1   6
BRANCH   1  14
ATOM     14  C   UNL     1      44.679   6.368  12.297  0.00  0.00    +0.000 C 
BRANCH  14  15
ATOM     15  C   UNL     1      44.437   5.006  11.670  0.00  0.00    +0.000 A 
ATOM     16  C   UNL     1      45.157   4.615  10.535  0.00  0.00    +0.000 A 
ATOM     17  C   UNL     1      44.931   3.369   9.935  0.00  0.00    +0.000 A 
ATOM     18  C   UNL     1      43.987   2.540  10.554  0.00  0.00    +0.000 A 
ATOM     19  C   UNL     1      43.337   2.982  11.697  0.00  0.00    +0.000 A 
ATOM     20  N   UNL     1      43.537   4.188  12.267  0.00  0.00    +0.000 NA
BRANCH  17  21
ATOM     21  C   UNL     1      45.645   2.963   8.701  0.00  0.00    +0.000 A 
ATOM     22  C   UNL     1      46.006   1.630   8.460  0.00  0.00    +0.000 A 
ATOM     23  C   UNL     1      46.662   1.301   7.283  0.00  0.00    +0.000 A 
ATOM     24  N   UNL     1      46.995   2.195   6.331  0.00  0.00    +0.000 NA
ATOM     25  C   UNL     1      46.651   3.475   6.568  0.00  0.00    +0.000 A 
ATOM     26  C   UNL     1      45.987   3.897   7.710  0.00  0.00    +0.000 A 
ENDBRANCH  17  21
ENDBRANCH  14  15
ENDBRANCH   1  14
TORSDOF 5
ENDMDL
MODEL 7
REMARK VINA RESULT:    -6.518      5.311      8.356
REMARK INTER + INTRA:          -9.170
REMARK INTER:                  -8.659
REMARK INTRA:                  -0.511
REMARK UNBOUND:                -0.747
REMARK  Name = 
REMARK  5 active torsions:
REMARK  status: ('A' for Active; 'I' for Inactive)
REMARK    1  A    between atoms: C_2  and  C_4
REMARK    2  A    between atoms: C_7  and  N_8
REMARK    3  A    between atoms: N_8  and  C_9
REMARK    4  A    between atoms: C_9  and  C_10
REMARK    5  A    between atoms: C_12  and  C_13
REMARK                            x       y       z     vdW  Elec       q    Type
REMARK                         _______ _______ _______ _____ _____    ______ ____
ROOT
ATOM      1  N   UNL     1      48.970   4.527  17.376  0.00  0.00    +0.000 N 
ATOM      2  H   UNL     1      49.269   5.481  17.207  0.00  0.00    +0.000 HD
ENDROOT
BRANCH   1   6
ATOM      3  C   UNL     1      52.123   1.734  17.606  0.00  0.00    +0.000 A 
ATOM      4  C   UNL     1      52.322   3.033  18.081  0.00  0.00    +0.000 A 
ATOM      5  C   UNL     1      51.287   3.974  18.009  0.00  0.00    +0.000 A 
ATOM      6  C   UNL     1      50.027   3.632  17.507  0.00  0.00    +0.000 A 
ATOM      7  C   UNL     1      49.856   2.334  17.003  0.00  0.00    +0.000 A 
ATOM      8  C   UNL     1      50.893   1.393  17.042  0.00  0.00    +0.000 A 
BRANCH   3  10
ATOM      9  N   UNL     1      52.982  -0.384  18.442  0.00  0.00    +0.000 N 
ATOM     10  C   UNL     1      53.199   0.712  17.652  0.00  0.00    +0.000 C 
ATOM     11  O   UNL     1      54.219   0.817  16.985  0.00  0.00    +0.000 OA
ATOM     12  H   UNL     1      53.670  -1.122  18.385  0.00  0.00    +0.000 HD
ATOM     13  H   UNL     1      52.065  -0.620  18.796  0.00  0.00    +0.000 HD
ENDBRANCH   3  10
ENDBRANCH   1   6
BRANCH   1  14
ATOM     14  C   UNL     1      47.701   4.169  16.738  0.00  0.00    +0.000 C 
BRANCH  14  15
ATOM     15  C   UNL     1      47.523   4.854  15.393  0.00  0.00    +0.000 A 
ATOM     16  C   UNL     1      46.549   4.403  14.496  0.00  0.00    +0.000 A 
ATOM     17  C   UNL     1      46.386   5.013  13.246  0.00  0.00    +0.000 A 
ATOM     18  C   UNL     1      47.217   6.106  12.972  0.00  0.00    +0.000 A 
ATOM     19  C   UNL     1      48.138   6.518  13.924  0.00  0.00    +0.000 A 
ATOM     20  N   UNL     1      48.311   5.922  15.121  0.00  0.00    +0.000 NA
BRANCH  17  21
ATOM     21  C   UNL     1      45.396   4.512  12.263  0.00  0.00    +0.000 A 
ATOM     22  C   UNL     1      44.484   3.497  12.583  0.00  0.00    +0.000 A 
ATOM     23  C   UNL     1      43.569   3.072  11.630  0.00  0.00    +0.000 A 
ATOM     24  N   UNL     1      43.497   3.572  10.381  0.00  0.00    +0.000 NA
ATOM     25  C   UNL     1      44.378   4.544  10.075  0.00  0.00    +0.000 A 
ATOM     26  C   UNL     1      45.321   5.038  10.963  0.00  0.00    +0.000 A 
ENDBRANCH  17  21
ENDBRANCH  14  15
ENDBRANCH   1  14
TORSDOF 5
ENDMDL
MODEL 8
REMARK VINA RESULT:    -6.430      3.263      7.123
REMARK INTER + INTRA:          -9.058
REMARK INTER:                  -8.706
REMARK INTRA:                  -0.352
REMARK UNBOUND:                -0.747
REMARK  Name = 
REMARK  5 active torsions:
REMARK  status: ('A' for Active; 'I' for Inactive)
REMARK    1  A    between atoms: C_2  and  C_4
REMARK    2  A    between atoms: C_7  and  N_8
REMARK    3  A    between atoms: N_8  and  C_9
REMARK    4  A    between atoms: C_9  and  C_10
REMARK    5  A    between atoms: C_12  and  C_13
REMARK                            x       y       z     vdW  Elec       q    Type
REMARK                         _______ _______ _______ _____ _____    ______ ____
ROOT
ATOM      1  N   UNL     1      46.607   5.693  12.971  0.00  0.00    +0.000 N 
ATOM      2  H   UNL     1      47.547   5.720  13.350  0.00  0.00    +0.000 HD
ENDROOT
BRANCH   1   6
ATOM      3  C   UNL     1      44.947   9.419  11.896  0.00  0.00    +0.000 A 
ATOM      4  C   UNL     1      46.047   9.381  12.757  0.00  0.00    +0.000 A 
ATOM      5  C   UNL     1      46.608   8.152  13.127  0.00  0.00    +0.000 A 
ATOM      6  C   UNL     1      46.118   6.946  12.617  0.00  0.00    +0.000 A 
ATOM      7  C   UNL     1      44.992   7.001  11.781  0.00  0.00    +0.000 A 
ATOM      8  C   UNL     1      44.404   8.222  11.428  0.00  0.00    +0.000 A 
BRANCH   3  10
ATOM      9  N   UNL     1      43.060  10.954  11.971  0.00  0.00    +0.000 N 
ATOM     10  C   UNL     1      44.316  10.700  11.491  0.00  0.00    +0.000 C 
ATOM     11  O   UNL     1      44.900  11.515  10.790  0.00  0.00    +0.000 OA
ATOM     12  H   UNL     1      42.682  11.871  11.779  0.00  0.00    +0.000 HD
ATOM     13  H   UNL     1      42.662  10.432  12.741  0.00  0.00    +0.000 HD
ENDBRANCH   3  10
ENDBRANCH   1   6
BRANCH   1  14
ATOM     14  C   UNL     1      45.758   4.640  13.536  0.00  0.00    +0.000 C 
BRANCH  14  15
ATOM     15  C   UNL     1      45.078   3.813  12.459  0.00  0.00    +0.000 A 
ATOM     16  C   UNL     1      45.691   3.637  11.213  0.00  0.00    +0.000 A 
ATOM     17  C   UNL     1      45.066   2.893  10.204  0.00  0.00    +0.000 A 
ATOM     18  C   UNL     1      43.832   2.314  10.528  0.00  0.00    +0.000 A 
ATOM     19  C   UNL     1      43.302   2.504  11.795  0.00  0.00    +0.000 A 
ATOM     20  N   UNL     1      43.891   3.235  12.763  0.00  0.00    +0.000 NA
BRANCH  17  21
ATOM     21  C   UNL     1      45.676   2.744   8.862  0.00  0.00    +0.000 A 
ATOM     22  C   UNL     1      45.870   3.841   8.011  0.00  0.00    +0.000 A 
ATOM     23  C   UNL     1      46.457   3.650   6.769  0.00  0.00    +0.000 A 
ATOM     24  N   UNL     1      46.859   2.451   6.303  0.00  0.00    +0.000 NA
ATOM     25  C   UNL     1      46.667   1.398   7.120  0.00  0.00    +0.000 A 
ATOM     26  C   UNL     1      46.097   1.493   8.381  0.00  0.00    +0.000 A 
ENDBRANCH  17  21
ENDBRANCH  14  15
ENDBRANCH   1  14
TORSDOF 5
ENDMDL
MODEL 9
REMARK VINA RESULT:    -6.358      4.071      8.011
REMARK INTER + INTRA:          -8.964
REMARK INTER:                  -8.601
REMARK INTRA:                  -0.363
REMARK UNBOUND:                -0.747
REMARK  Name = 
REMARK  5 active torsions:
REMARK  status: ('A' for Active; 'I' for Inactive)
REMARK    1  A    between atoms: C_2  and  C_4
REMARK    2  A    between atoms: C_7  and  N_8
REMARK    3  A    between atoms: N_8  and  C_9
REMARK    4  A    between atoms: C_9  and  C_10
REMARK    5  A    between atoms: C_12  and  C_13
REMARK                            x       y       z     vdW  Elec       q    Type
REMARK                         _______ _______ _______ _____ _____    ______ ____
ROOT
ATOM      1  N   UNL     1      46.435   4.324  14.653  0.00  0.00    +0.000 N 
ATOM      2  H   UNL     1      45.706   3.639  14.822  0.00  0.00    +0.000 HD
ENDROOT
BRANCH   1   6
ATOM      3  C   UNL     1      49.274   4.427  17.771  0.00  0.00    +0.000 A 
ATOM      4  C   UNL     1      49.096   5.557  16.968  0.00  0.00    +0.000 A 
ATOM      5  C   UNL     1      48.160   5.538  15.925  0.00  0.00    +0.000 A 
ATOM      6  C   UNL     1      47.356   4.419  15.690  0.00  0.00    +0.000 A 
ATOM      7  C   UNL     1      47.572   3.282  16.484  0.00  0.00    +0.000 A 
ATOM      8  C   UNL     1      48.525   3.278  17.510  0.00  0.00    +0.000 A 
BRANCH   3  10
ATOM      9  N   UNL     1      49.772   4.426  20.153  0.00  0.00    +0.000 N 
ATOM     10  C   UNL     1      50.264   4.402  18.876  0.00  0.00    +0.000 C 
ATOM     11  O   UNL     1      51.467   4.325  18.665  0.00  0.00    +0.000 OA
ATOM     12  H   UNL     1      50.445   4.301  20.896  0.00  0.00    +0.000 HD
ATOM     13  H   UNL     1      48.801   4.234  20.360  0.00  0.00    +0.000 HD
ENDBRANCH   3  10
ENDBRANCH   1   6
BRANCH   1  14
ATOM     14  C   UNL     1      46.003   5.483  13.866  0.00  0.00    +0.000 C 
BRANCH  14  15
ATOM     15  C   UNL     1      45.096   5.087  12.713  0.00  0.00    +0.000 A 
ATOM     16  C   UNL     1      45.630   4.461  11.581  0.00  0.00    +0.000 A 
ATOM     17  C   UNL     1      44.809   4.107  10.502  0.00  0.00    +0.000 A 
ATOM     18  C   UNL     1      43.442   4.378  10.643  0.00  0.00    +0.000 A 
ATOM     19  C   UNL     1      42.980   4.969  11.810  0.00  0.00    +0.000 A 
ATOM     20  N   UNL     1      43.769   5.328  12.843  0.00  0.00    +0.000 NA
BRANCH  17  21
ATOM     21  C   UNL     1      45.367   3.496   9.273  0.00  0.00    +0.000 A 
ATOM     22  C   UNL     1      45.798   4.274   8.189  0.00  0.00    +0.000 A 
ATOM     23  C   UNL     1      46.324   3.653   7.066  0.00  0.00    +0.000 A 
ATOM     24  N   UNL     1      46.448   2.317   6.933  0.00  0.00    +0.000 NA
ATOM     25  C   UNL     1      46.029   1.573   7.973  0.00  0.00    +0.000 A 
ATOM     26  C   UNL     1      45.498   2.104   9.139  0.00  0.00    +0.000 A 
ENDBRANCH  17  21
ENDBRANCH  14  15
ENDBRANCH   1  14
TORSDOF 5
ENDMDL
