MODEL 1
REMARK VINA RESULT:    -7.330      0.000      0.000
REMARK INTER + INTRA:         -12.299
REMARK INTER:                 -10.973
REMARK INTRA:                  -1.326
REMARK UNBOUND:                -1.326
REMARK  Name = 
REMARK  12 active torsions:
REMARK  status: ('A' for Active; 'I' for Inactive)
REMARK    1  A    between atoms: C_1  and  C_2
REMARK    2  A    between atoms: C_2  and  C_3
REMARK    3  A    between atoms: C_2  and  C_4
REMARK    4  A    between atoms: C_2  and  C_5
REMARK    5  A    between atoms: C_5  and  C_6
REMARK    6  A    between atoms: C_6  and  N_7
REMARK    7  A    between atoms: C_6  and  C_8
REMARK    8  A    between atoms: C_8  and  O_9
REMARK    9  A    between atoms: O_9  and  C_10
REMARK   10  A    between atoms: C_13  and  C_14
REMARK   11  A    between atoms: C_14  and  N_15
REMARK   12  A    between atoms: C_20  and  C_21
REMARK                            x       y       z     vdW  Elec       q    Type
REMARK                         _______ _______ _______ _____ _____    ______ ____
ROOT
ATOM      1  C   UNL     1      47.476   7.492  12.476  0.00  0.00    +0.000 C 
ATOM      2  C   UNL     1      47.192   6.024  12.133  0.00  0.00    +0.000 C 
ATOM      3  C   UNL     1      45.907   5.556  12.819  0.00  0.00    +0.000 C 
ATOM      4  C   UNL     1      44.685   6.384  12.382  0.00  0.00    +0.000 C 
ATOM      5  C   UNL     1      44.955   7.881  12.623  0.00  0.00    +0.000 C 
ATOM      6  C   UNL     1      46.280   8.347  12.011  0.00  0.00    +0.000 C 
ENDROOT
BRANCH   1   7
ATOM      7  O   UNL     1      47.677   7.650  13.891  0.00  0.00    +0.000 OA
BRANCH   7   8
ATOM      8  C   UNL     1      48.959   7.153  14.327  0.00  0.00    +0.000 C 
BRANCH   8   9
ATOM      9  C   UNL     1      48.889   6.685  15.791  0.00  0.00    +0.000 C 
BRANCH   9  10
ATOM     10  N   UNL     1      48.289   7.765  16.590  0.00  0.00    +0.000 NA
ATOM     11  H   UNL     1      47.308   7.878  16.334  0.00  0.00    +0.000 HD
ATOM     12  H   UNL     1      48.748   8.639  16.323  0.00  0.00    +0.000 HD
ENDBRANCH   9  10
BRANCH   9  13
ATOM     13  C   UNL     1      48.074   5.369  15.899  0.00  0.00    +0.000 C 
BRANCH  13  15
ATOM     14  C   UNL     1      49.914   4.563  17.507  0.00  0.00    +0.000 C 
ATOM     15  C   UNL     1      48.449   4.408  17.067  0.00  0.00    +0.000 C 
ATOM     16  C   UNL     1      48.183   2.952  16.653  0.00  0.00    +0.000 C 
ATOM     17  C   UNL     1      47.572   4.735  18.294  0.00  0.00    +0.000 C 
ENDBRANCH  13  15
ENDBRANCH   9  13
ENDBRANCH   8   9
ENDBRANCH   7   8
ENDBRANCH   1   7
BRANCH   4  18
ATOM     18  C   UNL     1      44.284   6.139  10.908  0.00  0.00    +0.000 C 
BRANCH  18  19
ATOM     19  N   UNL     1      44.339   4.746  10.507  0.00  0.00    +0.000 N 
ATOM     20  C   UNL     1      43.578   3.751  11.067  0.00  0.00    +0.000 A 
ATOM     21  C   UNL     1      43.998   2.550  10.551  0.00  0.00    +0.000 A 
ATOM     22  C   UNL     1      44.957   2.831   9.545  0.00  0.00    +0.000 A 
ATOM     23  C   UNL     1      45.668   2.015   8.649  0.00  0.00    +0.000 A 
ATOM     24  C   UNL     1      46.523   2.611   7.716  0.00  0.00    +0.000 A 
ATOM     25  C   UNL     1      46.715   3.996   7.710  0.00  0.00    +0.000 A 
ATOM     26  C   UNL     1      46.036   4.822   8.613  0.00  0.00    +0.000 A 
ATOM     27  C   UNL     1      45.153   4.220   9.511  0.00  0.00    +0.000 A 
BRANCH  24  28
ATOM     28  C   UNL     1      47.251   1.793   6.720  0.00  0.00    +0.000 C 
ATOM     29  N   UNL     1      48.205   2.416   5.957  0.00  0.00    +0.000 N 
ATOM     30  O   UNL     1      47.041   0.594   6.603  0.00  0.00    +0.000 OA
ATOM     31  H   UNL     1      48.553   3.343   6.148  0.00  0.00    +0.000 HD
ATOM     32  H   UNL     1      48.755   1.821   5.352  0.00  0.00    +0.000 HD
ENDBRANCH  24  28
ENDBRANCH  18  19
ENDBRANCH   4  18
TORSDOF 9
ENDMDL
MODEL 2
REMARK VINA RESULT:    -6.550      3.195      7.725
REMARK INTER + INTRA:         -11.131
REMARK INTER:                 -10.013
REMARK INTRA:                  -1.118
REMARK UNBOUND:                -1.326
REMARK  Name = 
REMARK  12 active torsions:
REMARK  status: ('A' for Active; 'I' for Inactive)
REMARK    1  A    between atoms: C_1  and  C_2
REMARK    2  A    between atoms: C_2  and  C_3
REMARK    3  A    between atoms: C_2  and  C_4
REMARK    4  A    between atoms: C_2  and  C_5
REMARK    5  A    between atoms: C_5  and  C_6
REMARK    6  A    between atoms: C_6  and  N_7
REMARK    7  A    between atoms: C_6  and  C_8
REMARK    8  A    between atoms: C_8  and  O_9
REMARK    9  A    between atoms: O_9  and  C_10
REMARK   10  A    between atoms: C_13  and  C_14
REMARK   11  A    between atoms: C_14  and  N_15
REMARK   12  A    between atoms: C_20  and  C_21
REMARK                            x       y       z     vdW  Elec       q    Type
REMARK                         _______ _______ _______ _____ _____    ______ ____
ROOT
ATOM      1  C   UNL     1      44.249   3.398  11.617  0.00  0.00    +0.000 C 
ATOM      2  C   UNL     1      45.531   4.212  11.404  0.00  0.00    +0.000 C 
ATOM      3  C   UNL     1      45.217   5.516  10.670  0.00  0.00    +0.000 C 
ATOM      4  C   UNL     1      44.227   6.397  11.454  0.00  0.00    +0.000 C 
ATOM      5  C   UNL     1      42.953   5.594  11.772  0.00  0.00    +0.000 C 
ATOM      6  C   UNL     1      43.255   4.246  12.436  0.00  0.00    +0.000 C 
ENDROOT
BRANCH   1   7
ATOM      7  O   UNL     1      43.665   3.035  10.353  0.00  0.00    +0.000 OA
BRANCH   7   8
ATOM      8  C   UNL     1      44.528   2.183   9.570  0.00  0.00    +0.000 C 
BRANCH   8   9
ATOM      9  C   UNL     1      44.780   2.799   8.183  0.00  0.00    +0.000 C 
BRANCH   9  10
ATOM     10  N   UNL     1      44.011   4.051   8.089  0.00  0.00    +0.000 NA
ATOM     11  H   UNL     1      44.649   4.838   7.971  0.00  0.00    +0.000 HD
ATOM     12  H   UNL     1      43.550   4.198   8.989  0.00  0.00    +0.000 HD
ENDBRANCH   9  10
BRANCH   9  13
ATOM     13  C   UNL     1      46.297   3.039   7.967  0.00  0.00    +0.000 C 
BRANCH  13  15
ATOM     14  C   UNL     1      46.369   2.365   5.485  0.00  0.00    +0.000 C 
ATOM     15  C   UNL     1      46.995   2.172   6.876  0.00  0.00    +0.000 C 
ATOM     16  C   UNL     1      46.936   0.688   7.269  0.00  0.00    +0.000 C 
ATOM     17  C   UNL     1      48.476   2.591   6.766  0.00  0.00    +0.000 C 
ENDBRANCH  13  15
ENDBRANCH   9  13
ENDBRANCH   8   9
ENDBRANCH   7   8
ENDBRANCH   1   7
BRANCH   4  18
ATOM     18  C   UNL     1      44.835   6.982  12.751  0.00  0.00    +0.000 C 
BRANCH  18  19
ATOM     19  N   UNL     1      45.762   8.075  12.525  0.00  0.00    +0.000 N 
ATOM     20  C   UNL     1      45.387   9.387  12.378  0.00  0.00    +0.000 A 
ATOM     21  C   UNL     1      46.500  10.113  12.034  0.00  0.00    +0.000 A 
ATOM     22  C   UNL     1      47.616   9.241  12.103  0.00  0.00    +0.000 A 
ATOM     23  C   UNL     1      48.995   9.438  11.923  0.00  0.00    +0.000 A 
ATOM     24  C   UNL     1      49.869   8.363  12.119  0.00  0.00    +0.000 A 
ATOM     25  C   UNL     1      49.375   7.093  12.431  0.00  0.00    +0.000 A 
ATOM     26  C   UNL     1      48.003   6.871  12.586  0.00  0.00    +0.000 A 
ATOM     27  C   UNL     1      47.143   7.961  12.432  0.00  0.00    +0.000 A 
BRANCH  24  28
ATOM     28  C   UNL     1      51.334   8.540  11.991  0.00  0.00    +0.000 C 
ATOM     29  N   UNL     1      52.024   7.620  11.246  0.00  0.00    +0.000 N 
ATOM     30  O   UNL     1      51.907   9.493  12.498  0.00  0.00    +0.000 OA
ATOM     31  H   UNL     1      51.580   6.938  10.651  0.00  0.00    +0.000 HD
ATOM     32  H   UNL     1      53.005   7.811  11.094  0.00  0.00    +0.000 HD
ENDBRANCH  24  28
ENDBRANCH  18  19
ENDBRANCH   4  18
TORSDOF 9
ENDMDL
MODEL 3
REMARK VINA RESULT:    -6.374      2.214      3.492
REMARK INTER + INTRA:         -10.867
REMARK INTER:                  -9.963
REMARK INTRA:                  -0.904
REMARK UNBOUND:                -1.326
REMARK  Name = 
REMARK  12 active torsions:
REMARK  status: ('A' for Active; 'I' for Inactive)
REMARK    1  A    between atoms: C_1  and  C_2
REMARK    2  A    between atoms: C_2  and  C_3
REMARK    3  A    between atoms: C_2  and  C_4
REMARK    4  A    between atoms: C_2  and  C_5
REMARK    5  A    between atoms: C_5  and  C_6
REMARK    6  A    between atoms: C_6  and  N_7
REMARK    7  A    between atoms: C_6  and  C_8
REMARK    8  A    between atoms: C_8  and  O_9
REMARK    9  A    between atoms: O_9  and  C_10
REMARK   10  A    between atoms: C_13  and  C_14
REMARK   11  A    between atoms: C_14  and  N_15
REMARK   12  A    between atoms: C_20  and  C_21
REMARK                            x       y       z     vdW  Elec       q    Type
REMARK                         _______ _______ _______ _____ _____    ______ ____
ROOT
ATOM      1  C   UNL     1      46.354   7.946  13.540  0.00  0.00    +0.000 C 
ATOM      2  C   UNL     1      45.189   8.491  12.705  0.00  0.00    +0.000 C 
ATOM      3  C   UNL     1      45.450   8.264  11.215  0.00  0.00    +0.000 C 
ATOM      4  C   UNL     1      45.610   6.770  10.878  0.00  0.00    +0.000 C 
ATOM      5  C   UNL     1      46.711   6.150  11.758  0.00  0.00    +0.000 C 
ATOM      6  C   UNL     1      46.507   6.440  13.249  0.00  0.00    +0.000 C 
ENDROOT
BRANCH   1   7
ATOM      7  O   UNL     1      47.573   8.639  13.220  0.00  0.00    +0.000 OA
BRANCH   7   8
ATOM      8  C   UNL     1      48.482   8.704  14.339  0.00  0.00    +0.000 C 
BRANCH   8   9
ATOM      9  C   UNL     1      49.791   7.963  14.016  0.00  0.00    +0.000 C 
BRANCH   9  10
ATOM     10  N   UNL     1      49.782   6.680  14.736  0.00  0.00    +0.000 NA
ATOM     11  H   UNL     1      50.736   6.420  14.985  0.00  0.00    +0.000 HD
ATOM     12  H   UNL     1      49.458   5.962  14.085  0.00  0.00    +0.000 HD
ENDBRANCH   9  10
BRANCH   9  13
ATOM     13  C   UNL     1      49.933   7.762  12.484  0.00  0.00    +0.000 C 
BRANCH  13  15
ATOM     14  C   UNL     1      51.725   7.755  10.639  0.00  0.00    +0.000 C 
ATOM     15  C   UNL     1      51.071   8.556  11.776  0.00  0.00    +0.000 C 
ATOM     16  C   UNL     1      52.140   8.967  12.801  0.00  0.00    +0.000 C 
ATOM     17  C   UNL     1      50.481   9.835  11.146  0.00  0.00    +0.000 C 
ENDBRANCH  13  15
ENDBRANCH   9  13
ENDBRANCH   8   9
ENDBRANCH   7   8
ENDBRANCH   1   7
BRANCH   4  18
ATOM     18  C   UNL     1      44.291   5.973  11.024  0.00  0.00    +0.000 C 
BRANCH  18  19
ATOM     19  N   UNL     1      44.381   4.599  10.565  0.00  0.00    +0.000 N 
ATOM     20  C   UNL     1      43.703   3.551  11.134  0.00  0.00    +0.000 A 
ATOM     21  C   UNL     1      44.139   2.390  10.545  0.00  0.00    +0.000 A 
ATOM     22  C   UNL     1      45.015   2.751   9.490  0.00  0.00    +0.000 A 
ATOM     23  C   UNL     1      45.699   2.002   8.518  0.00  0.00    +0.000 A 
ATOM     24  C   UNL     1      46.462   2.671   7.555  0.00  0.00    +0.000 A 
ATOM     25  C   UNL     1      46.593   4.063   7.592  0.00  0.00    +0.000 A 
ATOM     26  C   UNL     1      45.942   4.823   8.568  0.00  0.00    +0.000 A 
ATOM     27  C   UNL     1      45.148   4.148   9.498  0.00  0.00    +0.000 A 
BRANCH  24  28
ATOM     28  C   UNL     1      47.158   1.924   6.482  0.00  0.00    +0.000 C 
ATOM     29  N   UNL     1      47.853   2.648   5.548  0.00  0.00    +0.000 N 
ATOM     30  O   UNL     1      47.147   0.702   6.446  0.00  0.00    +0.000 OA
ATOM     31  H   UNL     1      48.056   3.630   5.643  0.00  0.00    +0.000 HD
ATOM     32  H   UNL     1      48.396   2.115   4.882  0.00  0.00    +0.000 HD
ENDBRANCH  24  28
ENDBRANCH  18  19
ENDBRANCH   4  18
TORSDOF 9
ENDMDL
MODEL 4
REMARK VINA RESULT:    -5.659      3.045      8.243
REMARK INTER + INTRA:          -9.796
REMARK INTER:                  -8.428
REMARK INTRA:                  -1.369
REMARK UNBOUND:                -1.326
REMARK  Name = 
REMARK  12 active torsions:
REMARK  status: ('A' for Active; 'I' for Inactive)
REMARK    1  A    between atoms: C_1  and  C_2
REMARK    2  A    between atoms: C_2  and  C_3
REMARK    3  A    between atoms: C_2  and  C_4
REMARK    4  A    between atoms: C_2  and  C_5
REMARK    5  A    between atoms: C_5  and  C_6
REMARK    6  A    between atoms: C_6  and  N_7
REMARK    7  A    between atoms: C_6  and  C_8
REMARK    8  A    between atoms: C_8  and  O_9
REMARK    9  A    between atoms: O_9  and  C_10
REMARK   10  A    between atoms: C_13  and  C_14
REMARK   11  A    between atoms: C_14  and  N_15
REMARK   12  A    between atoms: C_20  and  C_21
REMARK                            x       y       z     vdW  Elec       q    Type
REMARK                         _______ _______ _______ _____ _____    ______ ____
ROOT
ATOM      1  C   UNL     1      45.881   7.252  12.871  0.00  0.00    +0.000 C 
ATOM      2  C   UNL     1      47.166   6.598  13.395  0.00  0.00    +0.000 C 
ATOM      3  C   UNL     1      48.389   7.189  12.692  0.00  0.00    +0.000 C 
ATOM      4  C   UNL     1      48.509   8.706  12.919  0.00  0.00    +0.000 C 
ATOM      5  C   UNL     1      47.205   9.404  12.491  0.00  0.00    +0.000 C 
ATOM      6  C   UNL     1      45.961   8.771  13.125  0.00  0.00    +0.000 C 
ENDROOT
BRANCH   1   7
ATOM      7  O   UNL     1      45.719   6.992  11.466  0.00  0.00    +0.000 OA
BRANCH   7   8
ATOM      8  C   UNL     1      44.343   7.075  11.043  0.00  0.00    +0.000 C 
BRANCH   8   9
ATOM      9  C   UNL     1      43.560   5.834  11.504  0.00  0.00    +0.000 C 
BRANCH   9  10
ATOM     10  N   UNL     1      42.155   6.224  11.702  0.00  0.00    +0.000 NA
ATOM     11  H   UNL     1      41.918   6.989  11.072  0.00  0.00    +0.000 HD
ATOM     12  H   UNL     1      42.070   6.604  12.648  0.00  0.00    +0.000 HD
ENDBRANCH   9  10
BRANCH   9  13
ATOM     13  C   UNL     1      43.698   4.691  10.463  0.00  0.00    +0.000 C 
BRANCH  13  15
ATOM     14  C   UNL     1      45.442   3.589  12.001  0.00  0.00    +0.000 C 
ATOM     15  C   UNL     1      44.327   3.358  10.967  0.00  0.00    +0.000 C 
ATOM     16  C   UNL     1      44.882   2.558   9.778  0.00  0.00    +0.000 C 
ATOM     17  C   UNL     1      43.238   2.512  11.660  0.00  0.00    +0.000 C 
ENDBRANCH  13  15
ENDBRANCH   9  13
ENDBRANCH   8   9
ENDBRANCH   7   8
ENDBRANCH   1   7
BRANCH   4  18
ATOM     18  C   UNL     1      48.861   9.073  14.380  0.00  0.00    +0.000 C 
BRANCH  18  19
ATOM     19  N   UNL     1      50.062   8.425  14.876  0.00  0.00    +0.000 N 
ATOM     20  C   UNL     1      51.336   8.787  14.520  0.00  0.00    +0.000 A 
ATOM     21  C   UNL     1      52.206   7.871  15.058  0.00  0.00    +0.000 A 
ATOM     22  C   UNL     1      51.449   6.997  15.880  0.00  0.00    +0.000 A 
ATOM     23  C   UNL     1      51.805   5.926  16.717  0.00  0.00    +0.000 A 
ATOM     24  C   UNL     1      50.810   5.281  17.459  0.00  0.00    +0.000 A 
ATOM     25  C   UNL     1      49.469   5.655  17.326  0.00  0.00    +0.000 A 
ATOM     26  C   UNL     1      49.093   6.700  16.476  0.00  0.00    +0.000 A 
ATOM     27  C   UNL     1      50.100   7.366  15.774  0.00  0.00    +0.000 A 
BRANCH  24  28
ATOM     28  C   UNL     1      51.148   4.182  18.392  0.00  0.00    +0.000 C 
ATOM     29  N   UNL     1      50.850   4.358  19.719  0.00  0.00    +0.000 N 
ATOM     30  O   UNL     1      51.642   3.137  17.994  0.00  0.00    +0.000 OA
ATOM     31  H   UNL     1      50.271   5.107  20.065  0.00  0.00    +0.000 HD
ATOM     32  H   UNL     1      51.002   3.561  20.322  0.00  0.00    +0.000 HD
ENDBRANCH  24  28
ENDBRANCH  18  19
ENDBRANCH   4  18
TORSDOF 9
ENDMDL
MODEL 5
REMARK VINA RESULT:    -5.623      2.434      8.754
REMARK INTER + INTRA:          -9.743
REMARK INTER:                  -8.819
REMARK INTRA:                  -0.924
REMARK UNBOUND:                -1.326
REMARK  Name = 
REMARK  12 active torsions:
REMARK  status: ('A' for Active; 'I' for Inactive)
REMARK    1  A    between atoms: C_1  and  C_2
REMARK    2  A    between atoms: C_2  and  C_3
REMARK    3  A    between atoms: C_2  and  C_4
REMARK    4  A    between atoms: C_2  and  C_5
REMARK    5  A    between atoms: C_5  and  C_6
REMARK    6  A    between atoms: C_6  and  N_7
REMARK    7  A    between atoms: C_6  and  C_8
REMARK    8  A    between atoms: C_8  and  O_9
REMARK    9  A    between atoms: O_9  and  C_10
REMARK   10  A    between atoms: C_13  and  C_14
REMARK   11  A    between atoms: C_14  and  N_15
REMARK   12  A    between atoms: C_20  and  C_21
REMARK                            x       y       z     vdW  Elec       q    Type
REMARK                         _______ _______ _______ _____ _____    ______ ____
ROOT
ATOM      1  C   UNL     1      44.665   4.831  11.927  0.00  0.00    +0.000 C 
ATOM      2  C   UNL     1      45.291   4.472  13.281  0.00  0.00    +0.000 C 
ATOM      3  C   UNL     1      46.817   4.502  13.187  0.00  0.00    +0.000 C 
ATOM      4  C   UNL     1      47.344   5.890  12.780  0.00  0.00    +0.000 C 
ATOM      5  C   UNL     1      46.676   6.338  11.467  0.00  0.00    +0.000 C 
ATOM      6  C   UNL     1      45.148   6.237  11.518  0.00  0.00    +0.000 C 
ENDROOT
BRANCH   1   7
ATOM      7  O   UNL     1      45.040   3.868  10.927  0.00  0.00    +0.000 OA
BRANCH   7   8
ATOM      8  C   UNL     1      44.266   3.999   9.716  0.00  0.00    +0.000 C 
BRANCH   8   9
ATOM      9  C   UNL     1      45.174   3.880   8.480  0.00  0.00    +0.000 C 
BRANCH   9  10
ATOM     10  N   UNL     1      45.946   5.127   8.356  0.00  0.00    +0.000 NA
ATOM     11  H   UNL     1      46.394   5.164   7.440  0.00  0.00    +0.000 HD
ATOM     12  H   UNL     1      46.708   5.087   9.037  0.00  0.00    +0.000 HD
ENDBRANCH   9  10
BRANCH   9  13
ATOM     13  C   UNL     1      46.098   2.641   8.605  0.00  0.00    +0.000 C 
BRANCH  13  15
ATOM     14  C   UNL     1      45.810   2.390   6.061  0.00  0.00    +0.000 C 
ATOM     15  C   UNL     1      46.691   2.073   7.280  0.00  0.00    +0.000 C 
ATOM     16  C   UNL     1      46.880   0.553   7.400  0.00  0.00    +0.000 C 
ATOM     17  C   UNL     1      48.068   2.718   7.022  0.00  0.00    +0.000 C 
ENDBRANCH  13  15
ENDBRANCH   9  13
ENDBRANCH   8   9
ENDBRANCH   7   8
ENDBRANCH   1   7
BRANCH   4  18
ATOM     18  C   UNL     1      47.142   6.959  13.880  0.00  0.00    +0.000 C 
BRANCH  18  19
ATOM     19  N   UNL     1      48.323   7.203  14.687  0.00  0.00    +0.000 N 
ATOM     20  C   UNL     1      49.151   8.287  14.533  0.00  0.00    +0.000 A 
ATOM     21  C   UNL     1      50.237   8.114  15.357  0.00  0.00    +0.000 A 
ATOM     22  C   UNL     1      50.000   6.953  16.136  0.00  0.00    +0.000 A 
ATOM     23  C   UNL     1      50.720   6.336  17.172  0.00  0.00    +0.000 A 
ATOM     24  C   UNL     1      50.183   5.203  17.794  0.00  0.00    +0.000 A 
ATOM     25  C   UNL     1      48.975   4.655  17.352  0.00  0.00    +0.000 A 
ATOM     26  C   UNL     1      48.258   5.239  16.303  0.00  0.00    +0.000 A 
ATOM     27  C   UNL     1      48.782   6.395  15.719  0.00  0.00    +0.000 A 
BRANCH  24  28
ATOM     28  C   UNL     1      50.883   4.552  18.925  0.00  0.00    +0.000 C 
ATOM     29  N   UNL     1      51.493   3.347  18.689  0.00  0.00    +0.000 N 
ATOM     30  O   UNL     1      50.951   5.084  20.024  0.00  0.00    +0.000 OA
ATOM     31  H   UNL     1      51.635   2.966  17.766  0.00  0.00    +0.000 HD
ATOM     32  H   UNL     1      52.043   2.967  19.447  0.00  0.00    +0.000 HD
ENDBRANCH  24  28
ENDBRANCH  18  19
ENDBRANCH   4  18
TORSDOF 9
ENDMDL
MODEL 6
REMARK VINA RESULT:    -5.622      4.325      6.426
REMARK INTER + INTRA:          -9.743
REMARK INTER:                  -8.377
REMARK INTRA:                  -1.366
REMARK UNBOUND:                -1.326
REMARK  Name = 
REMARK  12 active torsions:
REMARK  status: ('A' for Active; 'I' for Inactive)
REMARK    1  A    between atoms: C_1  and  C_2
REMARK    2  A    between atoms: C_2  and  C_3
REMARK    3  A    between atoms: C_2  and  C_4
REMARK    4  A    between atoms: C_2  and  C_5
REMARK    5  A    between atoms: C_5  and  C_6
REMARK    6  A    between atoms: C_6  and  N_7
REMARK    7  A    between atoms: C_6  and  C_8
REMARK    8  A    between atoms: C_8  and  O_9
REMARK    9  A    between atoms: O_9  and  C_10
REMARK   10  A    between atoms: C_13  and  C_14
REMARK   11  A    between atoms: C_14  and  N_15
REMARK   12  A    between atoms: C_20  and  C_21
REMARK                            x       y       z     vdW  Elec       q    Type
REMARK                         _______ _______ _______ _____ _____    ______ ____
ROOT
ATOM      1  C   UNL     1      51.113   9.496  12.680  0.00  0.00    +0.000 C 
ATOM      2  C   UNL     1      49.845  10.343  12.518  0.00  0.00    +0.000 C 
ATOM      3  C   UNL     1      48.959   9.769  11.412  0.00  0.00    +0.000 C 
ATOM      4  C   UNL     1      48.521   8.325  11.714  0.00  0.00    +0.000 C 
ATOM      5  C   UNL     1      49.759   7.447  11.974  0.00  0.00    +0.000 C 
ATOM      6  C   UNL     1      50.700   8.050  13.023  0.00  0.00    +0.000 C 
ENDROOT
BRANCH   1   7
ATOM      7  O   UNL     1      51.891   9.515  11.471  0.00  0.00    +0.000 OA
BRANCH   7   8
ATOM      8  C   UNL     1      53.301   9.334  11.718  0.00  0.00    +0.000 C 
BRANCH   8   9
ATOM      9  C   UNL     1      53.815   8.066  11.014  0.00  0.00    +0.000 C 
BRANCH   9  10
ATOM     10  N   UNL     1      54.067   7.041  12.040  0.00  0.00    +0.000 NA
ATOM     11  H   UNL     1      53.955   6.113  11.632  0.00  0.00    +0.000 HD
ATOM     12  H   UNL     1      53.333   7.125  12.747  0.00  0.00    +0.000 HD
ENDBRANCH   9  10
BRANCH   9  13
ATOM     13  C   UNL     1      52.789   7.582   9.957  0.00  0.00    +0.000 C 
BRANCH  13  15
ATOM     14  C   UNL     1      52.379   6.683   7.582  0.00  0.00    +0.000 C 
ATOM     15  C   UNL     1      53.265   7.568   8.473  0.00  0.00    +0.000 C 
ATOM     16  C   UNL     1      54.722   7.087   8.395  0.00  0.00    +0.000 C 
ATOM     17  C   UNL     1      53.191   9.000   7.903  0.00  0.00    +0.000 C 
ENDBRANCH  13  15
ENDBRANCH   9  13
ENDBRANCH   8   9
ENDBRANCH   7   8
ENDBRANCH   1   7
BRANCH   4  18
ATOM     18  C   UNL     1      47.533   8.227  12.900  0.00  0.00    +0.000 C 
BRANCH  18  19
ATOM     19  N   UNL     1      47.164   6.868  13.249  0.00  0.00    +0.000 N 
ATOM     20  C   UNL     1      47.578   6.225  14.388  0.00  0.00    +0.000 A 
ATOM     21  C   UNL     1      47.165   4.917  14.314  0.00  0.00    +0.000 A 
ATOM     22  C   UNL     1      46.358   4.790  13.155  0.00  0.00    +0.000 A 
ATOM     23  C   UNL     1      45.625   3.721  12.615  0.00  0.00    +0.000 A 
ATOM     24  C   UNL     1      44.866   3.930  11.458  0.00  0.00    +0.000 A 
ATOM     25  C   UNL     1      44.884   5.170  10.810  0.00  0.00    +0.000 A 
ATOM     26  C   UNL     1      45.630   6.238  11.318  0.00  0.00    +0.000 A 
ATOM     27  C   UNL     1      46.348   6.030  12.498  0.00  0.00    +0.000 A 
BRANCH  24  28
ATOM     28  C   UNL     1      44.038   2.845  10.884  0.00  0.00    +0.000 C 
ATOM     29  N   UNL     1      44.517   2.193   9.778  0.00  0.00    +0.000 N 
ATOM     30  O   UNL     1      42.979   2.513  11.397  0.00  0.00    +0.000 OA
ATOM     31  H   UNL     1      45.461   2.292   9.438  0.00  0.00    +0.000 HD
ATOM     32  H   UNL     1      43.983   1.396   9.460  0.00  0.00    +0.000 HD
ENDBRANCH  24  28
ENDBRANCH  18  19
ENDBRANCH   4  18
TORSDOF 9
ENDMDL
MODEL 7
REMARK VINA RESULT:    -5.469      1.383      2.026
REMARK INTER + INTRA:          -9.513
REMARK INTER:                  -9.052
REMARK INTRA:                  -0.461
REMARK UNBOUND:                -1.326
REMARK  Name = 
REMARK  12 active torsions:
REMARK  status: ('A' for Active; 'I' for Inactive)
REMARK    1  A    between atoms: C_1  and  C_2
REMARK    2  A    between atoms: C_2  and  C_3
REMARK    3  A    between atoms: C_2  and  C_4
REMARK    4  A    between atoms: C_2  and  C_5
REMARK    5  A    between atoms: C_5  and  C_6
REMARK    6  A    between atoms: C_6  and  N_7
REMARK    7  A    between atoms: C_6  and  C_8
REMARK    8  A    between atoms: C_8  and  O_9
REMARK    9  A    between atoms: O_9  and  C_10
REMARK   10  A    between atoms: C_13  and  C_14
REMARK   11  A    between atoms: C_14  and  N_15
REMARK   12  A    between atoms: C_20  and  C_21
REMARK                            x       y       z     vdW  Elec       q    Type
REMARK                         _______ _______ _______ _____ _____    ______ ____
ROOT
ATOM      1  C   UNL     1      47.124   7.724  13.902  0.00  0.00    +0.000 C 
ATOM      2  C   UNL     1      45.974   8.532  13.288  0.00  0.00    +0.000 C 
ATOM      3  C   UNL     1      46.044   8.481  11.761  0.00  0.00    +0.000 C 
ATOM      4  C   UNL     1      45.943   7.042  11.226  0.00  0.00    +0.000 C 
ATOM      5  C   UNL     1      47.024   6.163  11.882  0.00  0.00    +0.000 C 
ATOM      6  C   UNL     1      47.020   6.266  13.411  0.00  0.00    +0.000 C 
ENDROOT
BRANCH   1   7
ATOM      7  O   UNL     1      48.393   8.285  13.525  0.00  0.00    +0.000 OA
BRANCH   7   8
ATOM      8  C   UNL     1      49.169   8.714  14.663  0.00  0.00    +0.000 C 
BRANCH   8   9
ATOM      9  C   UNL     1      49.901   7.519  15.299  0.00  0.00    +0.000 C 
BRANCH   9  10
ATOM     10  N   UNL     1      51.286   7.511  14.802  0.00  0.00    +0.000 NA
ATOM     11  H   UNL     1      51.921   7.260  15.558  0.00  0.00    +0.000 HD
ATOM     12  H   UNL     1      51.527   8.470  14.541  0.00  0.00    +0.000 HD
ENDBRANCH   9  10
BRANCH   9  13
ATOM     13  C   UNL     1      49.847   7.615  16.846  0.00  0.00    +0.000 C 
BRANCH  13  15
ATOM     14  C   UNL     1      48.525   5.417  16.640  0.00  0.00    +0.000 C 
ATOM     15  C   UNL     1      49.186   6.421  17.599  0.00  0.00    +0.000 C 
ATOM     16  C   UNL     1      48.145   6.944  18.600  0.00  0.00    +0.000 C 
ATOM     17  C   UNL     1      50.272   5.650  18.380  0.00  0.00    +0.000 C 
ENDBRANCH  13  15
ENDBRANCH   9  13
ENDBRANCH   8   9
ENDBRANCH   7   8
ENDBRANCH   1   7
BRANCH   4  18
ATOM     18  C   UNL     1      44.543   6.417  11.431  0.00  0.00    +0.000 C 
BRANCH  18  19
ATOM     19  N   UNL     1      44.429   5.054  10.944  0.00  0.00    +0.000 N 
ATOM     20  C   UNL     1      43.656   4.086  11.534  0.00  0.00    +0.000 A 
ATOM     21  C   UNL     1      43.906   2.895  10.899  0.00  0.00    +0.000 A 
ATOM     22  C   UNL     1      44.759   3.169   9.800  0.00  0.00    +0.000 A 
ATOM     23  C   UNL     1      45.286   2.363   8.776  0.00  0.00    +0.000 A 
ATOM     24  C   UNL     1      46.072   2.954   7.781  0.00  0.00    +0.000 A 
ATOM     25  C   UNL     1      46.381   4.317   7.834  0.00  0.00    +0.000 A 
ATOM     26  C   UNL     1      45.889   5.128   8.861  0.00  0.00    +0.000 A 
ATOM     27  C   UNL     1      45.070   4.537   9.825  0.00  0.00    +0.000 A 
BRANCH  24  28
ATOM     28  C   UNL     1      46.603   2.152   6.655  0.00  0.00    +0.000 C 
ATOM     29  N   UNL     1      47.155   0.932   6.947  0.00  0.00    +0.000 N 
ATOM     30  O   UNL     1      46.522   2.543   5.500  0.00  0.00    +0.000 OA
ATOM     31  H   UNL     1      47.070   0.481   7.845  0.00  0.00    +0.000 HD
ATOM     32  H   UNL     1      47.425   0.361   6.156  0.00  0.00    +0.000 HD
ENDBRANCH  24  28
ENDBRANCH  18  19
ENDBRANCH   4  18
TORSDOF 9
ENDMDL
MODEL 8
REMARK VINA RESULT:    -5.308      3.325      7.924
REMARK INTER + INTRA:          -9.272
REMARK INTER:                  -7.913
REMARK INTRA:                  -1.359
REMARK UNBOUND:                -1.326
REMARK  Name = 
REMARK  12 active torsions:
REMARK  status: ('A' for Active; 'I' for Inactive)
REMARK    1  A    between atoms: C_1  and  C_2
REMARK    2  A    between atoms: C_2  and  C_3
REMARK    3  A    between atoms: C_2  and  C_4
REMARK    4  A    between atoms: C_2  and  C_5
REMARK    5  A    between atoms: C_5  and  C_6
REMARK    6  A    between atoms: C_6  and  N_7
REMARK    7  A    between atoms: C_6  and  C_8
REMARK    8  A    between atoms: C_8  and  O_9
REMARK    9  A    between atoms: O_9  and  C_10
REMARK   10  A    between atoms: C_13  and  C_14
REMARK   11  A    between atoms: C_14  and  N_15
REMARK   12  A    between atoms: C_20  and  C_21
REMARK                            x       y       z     vdW  Elec       q    Type
REMARK                         _______ _______ _______ _____ _____    ______ ____
ROOT
ATOM      1  C   UNL     1      45.587   4.886  10.909  0.00  0.00    +0.000 C 
ATOM      2  C   UNL     1      46.322   6.224  10.766  0.00  0.00    +0.000 C 
ATOM      3  C   UNL     1      45.797   7.232  11.789  0.00  0.00    +0.000 C 
ATOM      4  C   UNL     1      45.992   6.743  13.235  0.00  0.00    +0.000 C 
ATOM      5  C   UNL     1      45.346   5.356  13.409  0.00  0.00    +0.000 C 
ATOM      6  C   UNL     1      45.802   4.355  12.341  0.00  0.00    +0.000 C 
ENDROOT
BRANCH   1   7
ATOM      7  O   UNL     1      44.183   5.051  10.648  0.00  0.00    +0.000 OA
BRANCH   7   8
ATOM      8  C   UNL     1      43.754   4.348   9.463  0.00  0.00    +0.000 C 
BRANCH   8   9
ATOM      9  C   UNL     1      44.713   3.188   9.146  0.00  0.00    +0.000 C 
BRANCH   9  10
ATOM     10  N   UNL     1      44.160   1.960   9.739  0.00  0.00    +0.000 NA
ATOM     11  H   UNL     1      43.783   2.164  10.664  0.00  0.00    +0.000 HD
ATOM     12  H   UNL     1      44.938   1.313   9.892  0.00  0.00    +0.000 HD
ENDBRANCH   9  10
BRANCH   9  13
ATOM     13  C   UNL     1      44.907   3.050   7.614  0.00  0.00    +0.000 C 
BRANCH  13  15
ATOM     14  C   UNL     1      47.078   1.670   7.598  0.00  0.00    +0.000 C 
ATOM     15  C   UNL     1      46.374   2.943   7.100  0.00  0.00    +0.000 C 
ATOM     16  C   UNL     1      47.173   4.181   7.534  0.00  0.00    +0.000 C 
ATOM     17  C   UNL     1      46.368   2.880   5.558  0.00  0.00    +0.000 C 
ENDBRANCH  13  15
ENDBRANCH   9  13
ENDBRANCH   8   9
ENDBRANCH   7   8
ENDBRANCH   1   7
BRANCH   4  18
ATOM     18  C   UNL     1      47.477   6.704  13.666  0.00  0.00    +0.000 C 
BRANCH  18  19
ATOM     19  N   UNL     1      48.177   7.962  13.481  0.00  0.00    +0.000 N 
ATOM     20  C   UNL     1      47.900   9.108  14.183  0.00  0.00    +0.000 A 
ATOM     21  C   UNL     1      48.646  10.128  13.646  0.00  0.00    +0.000 A 
ATOM     22  C   UNL     1      49.506   9.560  12.671  0.00  0.00    +0.000 A 
ATOM     23  C   UNL     1      50.518  10.099  11.860  0.00  0.00    +0.000 A 
ATOM     24  C   UNL     1      51.242   9.248  11.018  0.00  0.00    +0.000 A 
ATOM     25  C   UNL     1      50.925   7.888  10.938  0.00  0.00    +0.000 A 
ATOM     26  C   UNL     1      49.902   7.339  11.718  0.00  0.00    +0.000 A 
ATOM     27  C   UNL     1      49.216   8.189  12.587  0.00  0.00    +0.000 A 
BRANCH  24  28
ATOM     28  C   UNL     1      52.351   9.765  10.184  0.00  0.00    +0.000 C 
ATOM     29  N   UNL     1      53.354   8.894   9.845  0.00  0.00    +0.000 N 
ATOM     30  O   UNL     1      52.359  10.918   9.779  0.00  0.00    +0.000 OA
ATOM     31  H   UNL     1      53.297   7.897   9.984  0.00  0.00    +0.000 HD
ATOM     32  H   UNL     1      54.050   9.242   9.199  0.00  0.00    +0.000 HD
ENDBRANCH  24  28
ENDBRANCH  18  19
ENDBRANCH   4  18
TORSDOF 9
ENDMDL
MODEL 9
REMARK VINA RESULT:    -5.233      3.716      5.537
REMARK INTER + INTRA:          -9.160
REMARK INTER:                  -7.363
REMARK INTRA:                  -1.797
REMARK UNBOUND:                -1.326
REMARK  Name = 
REMARK  12 active torsions:
REMARK  status: ('A' for Active; 'I' for Inactive)
REMARK    1  A    between atoms: C_1  and  C_2
REMARK    2  A    between atoms: C_2  and  C_3
REMARK    3  A    between atoms: C_2  and  C_4
REMARK    4  A    between atoms: C_2  and  C_5
REMARK    5  A    between atoms: C_5  and  C_6
REMARK    6  A    between atoms: C_6  and  N_7
REMARK    7  A    between atoms: C_6  and  C_8
REMARK    8  A    between atoms: C_8  and  O_9
REMARK    9  A    between atoms: O_9  and  C_10
REMARK   10  A    between atoms: C_13  and  C_14
REMARK   11  A    between atoms: C_14  and  N_15
REMARK   12  A    between atoms: C_20  and  C_21
REMARK                            x       y       z     vdW  Elec       q    Type
REMARK                         _______ _______ _______ _____ _____    ______ ____
ROOT
ATOM      1  C   UNL     1      50.924   6.868  16.214  0.00  0.00    +0.000 C 
ATOM      2  C   UNL     1      49.457   6.563  15.887  0.00  0.00    +0.000 C 
ATOM      3  C   UNL     1      48.652   7.859  15.795  0.00  0.00    +0.000 C 
ATOM      4  C   UNL     1      49.190   8.798  14.700  0.00  0.00    +0.000 C 
ATOM      5  C   UNL     1      50.689   9.066  14.932  0.00  0.00    +0.000 C 
ATOM      6  C   UNL     1      51.498   7.776  15.107  0.00  0.00    +0.000 C 
ENDROOT
BRANCH   1   7
ATOM      7  O   UNL     1      51.032   7.518  17.493  0.00  0.00    +0.000 OA
BRANCH   7   8
ATOM      8  C   UNL     1      51.499   6.628  18.528  0.00  0.00    +0.000 C 
BRANCH   8   9
ATOM      9  C   UNL     1      50.364   6.304  19.515  0.00  0.00    +0.000 C 
BRANCH   9  10
ATOM     10  N   UNL     1      50.966   5.803  20.760  0.00  0.00    +0.000 NA
ATOM     11  H   UNL     1      50.282   5.250  21.275  0.00  0.00    +0.000 HD
ATOM     12  H   UNL     1      51.173   6.612  21.351  0.00  0.00    +0.000 HD
ENDBRANCH   9  10
BRANCH   9  13
ATOM     13  C   UNL     1      49.491   7.562  19.764  0.00  0.00    +0.000 C 
BRANCH  13  15
ATOM     14  C   UNL     1      47.545   6.110  18.914  0.00  0.00    +0.000 C 
ATOM     15  C   UNL     1      47.946   7.365  19.706  0.00  0.00    +0.000 C 
ATOM     16  C   UNL     1      47.283   8.604  19.084  0.00  0.00    +0.000 C 
ATOM     17  C   UNL     1      47.402   7.187  21.139  0.00  0.00    +0.000 C 
ENDBRANCH  13  15
ENDBRANCH   9  13
ENDBRANCH   8   9
ENDBRANCH   7   8
ENDBRANCH   1   7
BRANCH   4  18
ATOM     18  C   UNL     1      48.954   8.257  13.270  0.00  0.00    +0.000 C 
BRANCH  18  19
ATOM     19  N   UNL     1      47.554   8.168  12.898  0.00  0.00    +0.000 N 
ATOM     20  C   UNL     1      46.783   9.243  12.536  0.00  0.00    +0.000 A 
ATOM     21  C   UNL     1      45.487   8.812  12.398  0.00  0.00    +0.000 A 
ATOM     22  C   UNL     1      45.489   7.402  12.552  0.00  0.00    +0.000 A 
ATOM     23  C   UNL     1      44.480   6.429  12.451  0.00  0.00    +0.000 A 
ATOM     24  C   UNL     1      44.816   5.080  12.606  0.00  0.00    +0.000 A 
ATOM     25  C   UNL     1      46.127   4.705  12.917  0.00  0.00    +0.000 A 
ATOM     26  C   UNL     1      47.139   5.662  13.049  0.00  0.00    +0.000 A 
ATOM     27  C   UNL     1      46.800   7.002  12.849  0.00  0.00    +0.000 A 
BRANCH  24  28
ATOM     28  C   UNL     1      43.794   4.019  12.456  0.00  0.00    +0.000 C 
ATOM     29  N   UNL     1      42.649   4.329  11.768  0.00  0.00    +0.000 N 
ATOM     30  O   UNL     1      43.975   2.893  12.895  0.00  0.00    +0.000 OA
ATOM     31  H   UNL     1      42.537   5.169  11.223  0.00  0.00    +0.000 HD
ATOM     32  H   UNL     1      42.009   3.566  11.597  0.00  0.00    +0.000 HD
ENDBRANCH  24  28
ENDBRANCH  18  19
ENDBRANCH   4  18
TORSDOF 9
ENDMDL
