MODEL 1
REMARK VINA RESULT:    -8.579      0.000      0.000
REMARK INTER + INTRA:         -11.707
REMARK INTER:                 -10.585
REMARK INTRA:                  -1.123
REMARK UNBOUND:                -1.123
REMARK  Name = 
REMARK  4 active torsions:
REMARK  status: ('A' for Active; 'I' for Inactive)
REMARK    1  A    between atoms: C_2  and  C_4
REMARK    2  A    between atoms: N_8  and  C_9
REMARK    3  A    between atoms: C_9  and  C_10
REMARK    4  A    between atoms: C_15  and  N_16
REMARK                            x       y       z     vdW  Elec       q    Type
REMARK                         _______ _______ _______ _____ _____    ______ ____
ROOT
ATOM      1  C   UNL     1      43.849   4.944  11.379  0.00  0.00    +0.000 C 
ATOM      2  C   UNL     1      42.482   5.154  12.034  0.00  0.00    +0.000 C 
ATOM      3  C   UNL     1      42.974   6.136  11.029  0.00  0.00    +0.000 C 
ENDROOT
BRANCH   1   8
ATOM      4  C   UNL     1      46.568   2.765   7.511  0.00  0.00    +0.000 A 
ATOM      5  C   UNL     1      46.191   4.094   7.664  0.00  0.00    +0.000 A 
ATOM      6  C   UNL     1      45.328   4.442   8.705  0.00  0.00    +0.000 A 
ATOM      7  C   UNL     1      44.856   3.460   9.565  0.00  0.00    +0.000 A 
ATOM      8  N   UNL     1      43.936   3.711  10.584  0.00  0.00    +0.000 N 
ATOM      9  N   UNL     1      45.198   2.162   9.409  0.00  0.00    +0.000 NA
ATOM     10  C   UNL     1      46.035   1.838   8.389  0.00  0.00    +0.000 A 
ATOM     11  H   UNL     1      43.823   2.833  11.087  0.00  0.00    +0.000 HD
BRANCH   4  13
ATOM     12  N   UNL     1      47.405   2.977   5.246  0.00  0.00    +0.000 N 
ATOM     13  C   UNL     1      47.477   2.310   6.438  0.00  0.00    +0.000 C 
ATOM     14  O   UNL     1      48.277   1.405   6.614  0.00  0.00    +0.000 OA
ATOM     15  H   UNL     1      48.093   2.727   4.549  0.00  0.00    +0.000 HD
ATOM     16  H   UNL     1      46.948   3.874   5.148  0.00  0.00    +0.000 HD
ENDBRANCH   4  13
ENDBRANCH   1   8
BRANCH   1  17
ATOM     17  C   UNL     1      45.092   5.244  12.216  0.00  0.00    +0.000 A 
ATOM     18  C   UNL     1      45.552   4.362  13.202  0.00  0.00    +0.000 A 
ATOM     19  C   UNL     1      46.754   4.599  13.868  0.00  0.00    +0.000 A 
ATOM     20  C   UNL     1      47.507   5.736  13.569  0.00  0.00    +0.000 A 
ATOM     21  F   UNL     1      48.653   5.917  14.244  0.00  0.00    +0.000 F 
ATOM     22  C   UNL     1      47.073   6.685  12.632  0.00  0.00    +0.000 A 
ATOM     23  C   UNL     1      45.857   6.405  11.983  0.00  0.00    +0.000 A 
BRANCH  22  24
ATOM     24  N   UNL     1      47.768   7.833  12.300  0.00  0.00    +0.000 N 
ATOM     25  C   UNL     1      48.975   7.844  11.462  0.00  0.00    +0.000 C 
ATOM     26  C   UNL     1      50.172   8.423  12.231  0.00  0.00    +0.000 C 
ATOM     27  O   UNL     1      49.864   9.699  12.823  0.00  0.00    +0.000 OA
ATOM     28  C   UNL     1      48.760   9.564  13.733  0.00  0.00    +0.000 C 
ATOM     29  C   UNL     1      47.494   9.092  13.006  0.00  0.00    +0.000 C 
ENDBRANCH  22  24
ENDBRANCH   1  17
TORSDOF 4
ENDMDL
MODEL 2
REMARK VINA RESULT:    -6.545      3.667      8.317
REMARK INTER + INTRA:          -9.198
REMARK INTER:                  -8.100
REMARK INTRA:                  -1.098
REMARK UNBOUND:                -1.123
REMARK  Name = 
REMARK  4 active torsions:
REMARK  status: ('A' for Active; 'I' for Inactive)
REMARK    1  A    between atoms: C_2  and  C_4
REMARK    2  A    between atoms: N_8  and  C_9
REMARK    3  A    between atoms: C_9  and  C_10
REMARK    4  A    between atoms: C_15  and  N_16
REMARK                            x       y       z     vdW  Elec       q    Type
REMARK                         _______ _______ _______ _____ _____    ______ ____
ROOT
ATOM      1  C   UNL     1      49.259   8.004  12.897  0.00  0.00    +0.000 C 
ATOM      2  C   UNL     1      50.229   8.129  11.722  0.00  0.00    +0.000 C 
ATOM      3  C   UNL     1      49.887   9.336  12.523  0.00  0.00    +0.000 C 
ENDROOT
BRANCH   1   8
ATOM      4  C   UNL     1      48.467   6.864  17.916  0.00  0.00    +0.000 A 
ATOM      5  C   UNL     1      48.403   8.102  17.287  0.00  0.00    +0.000 A 
ATOM      6  C   UNL     1      48.802   8.211  15.954  0.00  0.00    +0.000 A 
ATOM      7  C   UNL     1      49.260   7.088  15.279  0.00  0.00    +0.000 A 
ATOM      8  N   UNL     1      49.746   7.125  13.971  0.00  0.00    +0.000 N 
ATOM      9  N   UNL     1      49.349   5.886  15.889  0.00  0.00    +0.000 NA
ATOM     10  C   UNL     1      48.962   5.796  17.188  0.00  0.00    +0.000 A 
ATOM     11  H   UNL     1      49.948   6.160  13.715  0.00  0.00    +0.000 HD
BRANCH   4  13
ATOM     12  N   UNL     1      47.193   5.635  19.572  0.00  0.00    +0.000 N 
ATOM     13  C   UNL     1      48.065   6.659  19.323  0.00  0.00    +0.000 C 
ATOM     14  O   UNL     1      48.514   7.347  20.226  0.00  0.00    +0.000 OA
ATOM     15  H   UNL     1      46.996   5.438  20.544  0.00  0.00    +0.000 HD
ATOM     16  H   UNL     1      47.005   4.902  18.902  0.00  0.00    +0.000 HD
ENDBRANCH   4  13
ENDBRANCH   1   8
BRANCH   1  17
ATOM     17  C   UNL     1      47.772   7.847  12.580  0.00  0.00    +0.000 A 
ATOM     18  C   UNL     1      46.897   8.941  12.568  0.00  0.00    +0.000 A 
ATOM     19  C   UNL     1      45.572   8.792  12.158  0.00  0.00    +0.000 A 
ATOM     20  C   UNL     1      45.097   7.538  11.770  0.00  0.00    +0.000 A 
ATOM     21  F   UNL     1      43.813   7.451  11.389  0.00  0.00    +0.000 F 
ATOM     22  C   UNL     1      45.909   6.395  11.811  0.00  0.00    +0.000 A 
ATOM     23  C   UNL     1      47.237   6.591  12.228  0.00  0.00    +0.000 A 
BRANCH  22  24
ATOM     24  N   UNL     1      45.494   5.127  11.449  0.00  0.00    +0.000 N 
ATOM     25  C   UNL     1      45.232   4.718  10.062  0.00  0.00    +0.000 C 
ATOM     26  C   UNL     1      43.775   4.264   9.889  0.00  0.00    +0.000 C 
ATOM     27  O   UNL     1      43.400   3.276  10.867  0.00  0.00    +0.000 OA
ATOM     28  C   UNL     1      43.556   3.811  12.190  0.00  0.00    +0.000 C 
ATOM     29  C   UNL     1      45.018   4.184  12.471  0.00  0.00    +0.000 C 
ENDBRANCH  22  24
ENDBRANCH   1  17
TORSDOF 4
ENDMDL
MODEL 3
REMARK VINA RESULT:    -6.321      3.576      5.688
REMARK INTER + INTRA:          -8.921
REMARK INTER:                  -8.499
REMARK INTRA:                  -0.422
REMARK UNBOUND:                -1.123
REMARK  Name = 
REMARK  4 active torsions:
REMARK  status: ('A' for Active; 'I' for Inactive)
REMARK    1  A    between atoms: C_2  and  C_4
REMARK    2  A    between atoms: N_8  and  C_9
REMARK    3  A    between atoms: C_9  and  C_10
REMARK    4  A    between atoms: C_15  and  N_16
REMARK                            x       y       z     vdW  Elec       q    Type
REMARK                         _______ _______ _______ _____ _____    ______ ____
ROOT
ATOM      1  C   UNL     1      47.939   8.103  13.383  0.00  0.00    +0.000 C 
ATOM      2  C   UNL     1      47.826   9.614  13.176  0.00  0.00    +0.000 C 
ATOM      3  C   UNL     1      48.387   8.763  12.091  0.00  0.00    +0.000 C 
ENDROOT
BRANCH   1   8
ATOM      4  C   UNL     1      44.773   4.617  11.161  0.00  0.00    +0.000 A 
ATOM      5  C   UNL     1      45.576   5.573  10.549  0.00  0.00    +0.000 A 
ATOM      6  C   UNL     1      46.236   6.516  11.340  0.00  0.00    +0.000 A 
ATOM      7  C   UNL     1      46.078   6.489  12.719  0.00  0.00    +0.000 A 
ATOM      8  N   UNL     1      46.642   7.437  13.574  0.00  0.00    +0.000 N 
ATOM      9  N   UNL     1      45.280   5.579  13.319  0.00  0.00    +0.000 NA
ATOM     10  C   UNL     1      44.641   4.672  12.537  0.00  0.00    +0.000 A 
ATOM     11  H   UNL     1      46.417   7.136  14.520  0.00  0.00    +0.000 HD
BRANCH   4  13
ATOM     12  N   UNL     1      44.152   3.626   9.038  0.00  0.00    +0.000 N 
ATOM     13  C   UNL     1      44.040   3.584  10.400  0.00  0.00    +0.000 C 
ATOM     14  O   UNL     1      43.392   2.713  10.960  0.00  0.00    +0.000 OA
ATOM     15  H   UNL     1      43.728   2.862   8.528  0.00  0.00    +0.000 HD
ATOM     16  H   UNL     1      44.867   4.162   8.564  0.00  0.00    +0.000 HD
ENDBRANCH   4  13
ENDBRANCH   1   8
BRANCH   1  17
ATOM     17  C   UNL     1      49.050   7.591  14.299  0.00  0.00    +0.000 A 
ATOM     18  C   UNL     1      50.360   8.082  14.221  0.00  0.00    +0.000 A 
ATOM     19  C   UNL     1      51.328   7.689  15.145  0.00  0.00    +0.000 A 
ATOM     20  C   UNL     1      51.001   6.781  16.155  0.00  0.00    +0.000 A 
ATOM     21  F   UNL     1      51.972   6.434  17.014  0.00  0.00    +0.000 F 
ATOM     22  C   UNL     1      49.723   6.213  16.253  0.00  0.00    +0.000 A 
ATOM     23  C   UNL     1      48.779   6.639  15.302  0.00  0.00    +0.000 A 
BRANCH  22  24
ATOM     24  N   UNL     1      49.343   5.303  17.223  0.00  0.00    +0.000 N 
ATOM     25  C   UNL     1      50.024   4.022  17.453  0.00  0.00    +0.000 C 
ATOM     26  C   UNL     1      49.060   2.843  17.251  0.00  0.00    +0.000 C 
ATOM     27  O   UNL     1      47.849   3.003  18.014  0.00  0.00    +0.000 OA
ATOM     28  C   UNL     1      47.179   4.212  17.623  0.00  0.00    +0.000 C 
ATOM     29  C   UNL     1      48.048   5.446  17.902  0.00  0.00    +0.000 C 
ENDBRANCH  22  24
ENDBRANCH   1  17
TORSDOF 4
ENDMDL
MODEL 4
REMARK VINA RESULT:    -6.108      4.117      6.545
REMARK INTER + INTRA:          -8.659
REMARK INTER:                  -7.607
REMARK INTRA:                  -1.053
REMARK UNBOUND:                -1.123
REMARK  Name = 
REMARK  4 active torsions:
REMARK  status: ('A' for Active; 'I' for Inactive)
REMARK    1  A    between atoms: C_2  and  C_4
REMARK    2  A    between atoms: N_8  and  C_9
REMARK    3  A    between atoms: C_9  and  C_10
REMARK    4  A    between atoms: C_15  and  N_16
REMARK                            x       y       z     vdW  Elec       q    Type
REMARK                         _______ _______ _______ _____ _____    ______ ____
ROOT
ATOM      1  C   UNL     1      48.787   8.159  13.817  0.00  0.00    +0.000 C 
ATOM      2  C   UNL     1      49.786   9.174  13.260  0.00  0.00    +0.000 C 
ATOM      3  C   UNL     1      50.111   7.722  13.213  0.00  0.00    +0.000 C 
ENDROOT
BRANCH   1   8
ATOM      4  C   UNL     1      44.771   5.044  12.684  0.00  0.00    +0.000 A 
ATOM      5  C   UNL     1      46.121   4.722  12.771  0.00  0.00    +0.000 A 
ATOM      6  C   UNL     1      47.056   5.745  12.939  0.00  0.00    +0.000 A 
ATOM      7  C   UNL     1      46.629   7.063  13.010  0.00  0.00    +0.000 A 
ATOM      8  N   UNL     1      47.501   8.148  13.103  0.00  0.00    +0.000 N 
ATOM      9  N   UNL     1      45.321   7.387  12.901  0.00  0.00    +0.000 NA
ATOM     10  C   UNL     1      44.424   6.382  12.733  0.00  0.00    +0.000 A 
ATOM     11  H   UNL     1      46.917   8.976  13.203  0.00  0.00    +0.000 HD
BRANCH   4  13
ATOM     12  N   UNL     1      42.646   4.375  11.729  0.00  0.00    +0.000 N 
ATOM     13  C   UNL     1      43.716   4.025  12.506  0.00  0.00    +0.000 C 
ATOM     14  O   UNL     1      43.807   2.912  13.000  0.00  0.00    +0.000 OA
ATOM     15  H   UNL     1      41.975   3.644  11.532  0.00  0.00    +0.000 HD
ATOM     16  H   UNL     1      42.658   5.175  11.111  0.00  0.00    +0.000 HD
ENDBRANCH   4  13
ENDBRANCH   1   8
BRANCH   1  17
ATOM     17  C   UNL     1      48.666   8.038  15.335  0.00  0.00    +0.000 A 
ATOM     18  C   UNL     1      48.335   9.134  16.142  0.00  0.00    +0.000 A 
ATOM     19  C   UNL     1      48.114   8.973  17.510  0.00  0.00    +0.000 A 
ATOM     20  C   UNL     1      48.237   7.712  18.095  0.00  0.00    +0.000 A 
ATOM     21  F   UNL     1      48.017   7.616  19.416  0.00  0.00    +0.000 F 
ATOM     22  C   UNL     1      48.619   6.586  17.351  0.00  0.00    +0.000 A 
ATOM     23  C   UNL     1      48.830   6.793  15.976  0.00  0.00    +0.000 A 
BRANCH  22  24
ATOM     24  N   UNL     1      48.767   5.315  17.874  0.00  0.00    +0.000 N 
ATOM     25  C   UNL     1      50.051   4.762  18.327  0.00  0.00    +0.000 C 
ATOM     26  C   UNL     1      50.416   3.500  17.531  0.00  0.00    +0.000 C 
ATOM     27  O   UNL     1      49.341   2.541  17.521  0.00  0.00    +0.000 OA
ATOM     28  C   UNL     1      48.168   3.125  16.935  0.00  0.00    +0.000 C 
ATOM     29  C   UNL     1      47.681   4.332  17.747  0.00  0.00    +0.000 C 
ENDBRANCH  22  24
ENDBRANCH   1  17
TORSDOF 4
ENDMDL
MODEL 5
REMARK VINA RESULT:    -5.935      5.478      8.241
REMARK INTER + INTRA:          -8.445
REMARK INTER:                  -8.084
REMARK INTRA:                  -0.362
REMARK UNBOUND:                -1.123
REMARK  Name = 
REMARK  4 active torsions:
REMARK  status: ('A' for Active; 'I' for Inactive)
REMARK    1  A    between atoms: C_2  and  C_4
REMARK    2  A    between atoms: N_8  and  C_9
REMARK    3  A    between atoms: C_9  and  C_10
REMARK    4  A    between atoms: C_15  and  N_16
REMARK                            x       y       z     vdW  Elec       q    Type
REMARK                         _______ _______ _______ _____ _____    ______ ____
ROOT
ATOM      1  C   UNL     1      48.292   4.873  17.226  0.00  0.00    +0.000 C 
ATOM      2  C   UNL     1      47.124   5.164  18.170  0.00  0.00    +0.000 C 
ATOM      3  C   UNL     1      47.134   3.901  17.382  0.00  0.00    +0.000 C 
ENDROOT
BRANCH   1   8
ATOM      4  C   UNL     1      52.424   1.727  17.601  0.00  0.00    +0.000 A 
ATOM      5  C   UNL     1      51.085   1.386  17.447  0.00  0.00    +0.000 A 
ATOM      6  C   UNL     1      50.114   2.386  17.521  0.00  0.00    +0.000 A 
ATOM      7  C   UNL     1      50.495   3.700  17.753  0.00  0.00    +0.000 A 
ATOM      8  N   UNL     1      49.585   4.746  17.913  0.00  0.00    +0.000 N 
ATOM      9  N   UNL     1      51.792   4.037  17.928  0.00  0.00    +0.000 NA
ATOM     10  C   UNL     1      52.725   3.053  17.858  0.00  0.00    +0.000 A 
ATOM     11  H   UNL     1      50.140   5.595  18.004  0.00  0.00    +0.000 HD
BRANCH   4  13
ATOM     12  N   UNL     1      53.339  -0.423  18.246  0.00  0.00    +0.000 N 
ATOM     13  C   UNL     1      53.516   0.733  17.536  0.00  0.00    +0.000 C 
ATOM     14  O   UNL     1      54.513   0.918  16.857  0.00  0.00    +0.000 OA
ATOM     15  H   UNL     1      54.042  -1.138  18.122  0.00  0.00    +0.000 HD
ATOM     16  H   UNL     1      52.438  -0.712  18.604  0.00  0.00    +0.000 HD
ENDBRANCH   4  13
ENDBRANCH   1   8
BRANCH   1  17
ATOM     17  C   UNL     1      48.351   5.645  15.909  0.00  0.00    +0.000 A 
ATOM     18  C   UNL     1      49.316   6.633  15.672  0.00  0.00    +0.000 A 
ATOM     19  C   UNL     1      49.425   7.239  14.420  0.00  0.00    +0.000 A 
ATOM     20  C   UNL     1      48.557   6.876  13.389  0.00  0.00    +0.000 A 
ATOM     21  F   UNL     1      48.704   7.494  12.207  0.00  0.00    +0.000 F 
ATOM     22  C   UNL     1      47.536   5.934  13.580  0.00  0.00    +0.000 A 
ATOM     23  C   UNL     1      47.463   5.347  14.856  0.00  0.00    +0.000 A 
BRANCH  22  24
ATOM     24  N   UNL     1      46.640   5.540  12.602  0.00  0.00    +0.000 N 
ATOM     25  C   UNL     1      46.290   6.363  11.436  0.00  0.00    +0.000 C 
ATOM     26  C   UNL     1      44.786   6.676  11.417  0.00  0.00    +0.000 C 
ATOM     27  O   UNL     1      43.988   5.485  11.549  0.00  0.00    +0.000 OA
ATOM     28  C   UNL     1      44.298   4.820  12.783  0.00  0.00    +0.000 C 
ATOM     29  C   UNL     1      45.768   4.379  12.824  0.00  0.00    +0.000 C 
ENDBRANCH  22  24
ENDBRANCH   1  17
TORSDOF 4
ENDMDL
MODEL 6
REMARK VINA RESULT:    -5.690      5.164      8.648
REMARK INTER + INTRA:          -8.144
REMARK INTER:                  -7.883
REMARK INTRA:                  -0.260
REMARK UNBOUND:                -1.123
REMARK  Name = 
REMARK  4 active torsions:
REMARK  status: ('A' for Active; 'I' for Inactive)
REMARK    1  A    between atoms: C_2  and  C_4
REMARK    2  A    between atoms: N_8  and  C_9
REMARK    3  A    between atoms: C_9  and  C_10
REMARK    4  A    between atoms: C_15  and  N_16
REMARK                            x       y       z     vdW  Elec       q    Type
REMARK                         _______ _______ _______ _____ _____    ______ ____
ROOT
ATOM      1  C   UNL     1      48.177   4.679  16.686  0.00  0.00    +0.000 C 
ATOM      2  C   UNL     1      47.150   4.396  17.783  0.00  0.00    +0.000 C 
ATOM      3  C   UNL     1      47.779   3.260  17.056  0.00  0.00    +0.000 C 
ENDROOT
BRANCH   1   8
ATOM      4  C   UNL     1      53.196   3.814  17.767  0.00  0.00    +0.000 A 
ATOM      5  C   UNL     1      52.110   2.969  17.961  0.00  0.00    +0.000 A 
ATOM      6  C   UNL     1      50.820   3.457  17.743  0.00  0.00    +0.000 A 
ATOM      7  C   UNL     1      50.641   4.774  17.342  0.00  0.00    +0.000 A 
ATOM      8  N   UNL     1      49.386   5.360  17.173  0.00  0.00    +0.000 N 
ATOM      9  N   UNL     1      51.690   5.609  17.175  0.00  0.00    +0.000 NA
ATOM     10  C   UNL     1      52.938   5.122  17.396  0.00  0.00    +0.000 A 
ATOM     11  H   UNL     1      49.555   6.300  16.819  0.00  0.00    +0.000 HD
BRANCH   4  13
ATOM     12  N   UNL     1      55.532   3.892  17.121  0.00  0.00    +0.000 N 
ATOM     13  C   UNL     1      54.594   3.380  17.975  0.00  0.00    +0.000 C 
ATOM     14  O   UNL     1      54.904   2.628  18.885  0.00  0.00    +0.000 OA
ATOM     15  H   UNL     1      56.496   3.670  17.326  0.00  0.00    +0.000 HD
ATOM     16  H   UNL     1      55.355   4.696  16.533  0.00  0.00    +0.000 HD
ENDBRANCH   4  13
ENDBRANCH   1   8
BRANCH   1  17
ATOM     17  C   UNL     1      47.660   5.195  15.343  0.00  0.00    +0.000 A 
ATOM     18  C   UNL     1      48.272   6.264  14.675  0.00  0.00    +0.000 A 
ATOM     19  C   UNL     1      47.858   6.639  13.398  0.00  0.00    +0.000 A 
ATOM     20  C   UNL     1      46.810   5.959  12.775  0.00  0.00    +0.000 A 
ATOM     21  F   UNL     1      46.449   6.365  11.547  0.00  0.00    +0.000 F 
ATOM     22  C   UNL     1      46.122   4.917  13.413  0.00  0.00    +0.000 A 
ATOM     23  C   UNL     1      46.574   4.570  14.699  0.00  0.00    +0.000 A 
BRANCH  22  24
ATOM     24  N   UNL     1      45.072   4.212  12.853  0.00  0.00    +0.000 N 
ATOM     25  C   UNL     1      45.225   3.265  11.740  0.00  0.00    +0.000 C 
ATOM     26  C   UNL     1      44.394   3.706  10.525  0.00  0.00    +0.000 C 
ATOM     27  O   UNL     1      43.024   3.971  10.879  0.00  0.00    +0.000 OA
ATOM     28  C   UNL     1      42.964   5.007  11.872  0.00  0.00    +0.000 C 
ATOM     29  C   UNL     1      43.684   4.586  13.160  0.00  0.00    +0.000 C 
ENDBRANCH  22  24
ENDBRANCH   1  17
TORSDOF 4
ENDMDL
