MODEL 1
REMARK VINA RESULT:    -8.665      0.000      0.000
REMARK INTER + INTRA:          -9.694
REMARK INTER:                 -10.184
REMARK INTRA:                   0.490
REMARK UNBOUND:                 0.490
REMARK  Name = 
REMARK  3 active torsions:
REMARK  status: ('A' for Active; 'I' for Inactive)
REMARK    1  A    between atoms: C_2  and  C_4
REMARK    2  A    between atoms: N_8  and  C_9
REMARK    3  A    between atoms: C_9  and  C_10
REMARK                            x       y       z     vdW  Elec       q    Type
REMARK                         _______ _______ _______ _____ _____    ______ ____
ROOT
ATOM      1  C   UNL     1      46.362   2.105   7.859  0.00  0.00    +0.000 A 
ATOM      2  C   UNL     1      46.355   3.376   7.299  0.00  0.00    +0.000 A 
ATOM      3  C   UNL     1      45.664   4.395   7.952  0.00  0.00    +0.000 A 
ATOM      4  C   UNL     1      45.018   4.136   9.165  0.00  0.00    +0.000 A 
ATOM      5  N   UNL     1      44.381   5.235   9.784  0.00  0.00    +0.000 N 
ATOM      6  N   UNL     1      45.022   2.906   9.714  0.00  0.00    +0.000 NA
ATOM      7  C   UNL     1      45.660   1.912   9.039  0.00  0.00    +0.000 A 
ATOM      8  H   UNL     1      43.680   5.606   9.151  0.00  0.00    +0.000 HD
ENDROOT
BRANCH   1  10
ATOM      9  N   UNL     1      46.733  -0.285   7.673  0.00  0.00    +0.000 N 
ATOM     10  C   UNL     1      47.079   0.969   7.249  0.00  0.00    +0.000 C 
ATOM     11  O   UNL     1      47.913   1.136   6.369  0.00  0.00    +0.000 OA
ATOM     12  H   UNL     1      47.144  -1.060   7.167  0.00  0.00    +0.000 HD
ATOM     13  H   UNL     1      45.884  -0.466   8.190  0.00  0.00    +0.000 HD
ENDBRANCH   1  10
BRANCH   5  14
ATOM     14  C   UNL     1      43.975   5.208  11.203  0.00  0.00    +0.000 C 
ATOM     15  C   UNL     1      42.972   4.111  11.538  0.00  0.00    +0.000 C 
ATOM     16  C   UNL     1      42.555   5.543  11.612  0.00  0.00    +0.000 C 
BRANCH  14  17
ATOM     17  C   UNL     1      45.098   5.486  12.196  0.00  0.00    +0.000 A 
ATOM     18  C   UNL     1      45.683   6.763  12.301  0.00  0.00    +0.000 A 
ATOM     19  C   UNL     1      46.752   7.020  13.167  0.00  0.00    +0.000 A 
ATOM     20  C   UNL     1      47.257   5.992  13.956  0.00  0.00    +0.000 A 
ATOM     21 CL   UNL     1      48.594   6.296  14.995  0.00  0.00    +0.000 Cl
ATOM     22  C   UNL     1      46.681   4.725  13.883  0.00  0.00    +0.000 A 
ATOM     23  F   UNL     1      47.147   3.719  14.640  0.00  0.00    +0.000 F 
ATOM     24  C   UNL     1      45.618   4.474  13.021  0.00  0.00    +0.000 A 
ENDBRANCH  14  17
ENDBRANCH   5  14
TORSDOF 3
ENDMDL
MODEL 2
REMARK VINA RESULT:    -8.350      4.185      6.716
REMARK INTER + INTRA:          -9.324
REMARK INTER:                  -9.242
REMARK INTRA:                  -0.081
REMARK UNBOUND:                 0.490
REMARK  Name = 
REMARK  3 active torsions:
REMARK  status: ('A' for Active; 'I' for Inactive)
REMARK    1  A    between atoms: C_2  and  C_4
REMARK    2  A    between atoms: N_8  and  C_9
REMARK    3  A    between atoms: C_9  and  C_10
REMARK                            x       y       z     vdW  Elec       q    Type
REMARK                         _______ _______ _______ _____ _____    ______ ____
ROOT
ATOM      1  C   UNL     1      46.903   8.228  13.067  0.00  0.00    +0.000 A 
ATOM      2  C   UNL     1      45.725   8.748  12.546  0.00  0.00    +0.000 A 
ATOM      3  C   UNL     1      44.914   7.925  11.766  0.00  0.00    +0.000 A 
ATOM      4  C   UNL     1      45.276   6.593  11.544  0.00  0.00    +0.000 A 
ATOM      5  N   UNL     1      44.376   5.816  10.783  0.00  0.00    +0.000 N 
ATOM      6  N   UNL     1      46.417   6.083  12.048  0.00  0.00    +0.000 NA
ATOM      7  C   UNL     1      47.221   6.912  12.766  0.00  0.00    +0.000 A 
ATOM      8  H   UNL     1      44.263   6.246   9.870  0.00  0.00    +0.000 HD
ENDROOT
BRANCH   1  10
ATOM      9  N   UNL     1      47.545   9.048  15.258  0.00  0.00    +0.000 N 
ATOM     10  C   UNL     1      47.815   9.017  13.917  0.00  0.00    +0.000 C 
ATOM     11  O   UNL     1      48.797   9.581  13.451  0.00  0.00    +0.000 OA
ATOM     12  H   UNL     1      48.240   9.492  15.846  0.00  0.00    +0.000 HD
ATOM     13  H   UNL     1      46.915   8.392  15.698  0.00  0.00    +0.000 HD
ENDBRANCH   1  10
BRANCH   5  14
ATOM     14  C   UNL     1      44.434   4.341  10.764  0.00  0.00    +0.000 C 
ATOM     15  C   UNL     1      43.144   3.666  11.214  0.00  0.00    +0.000 C 
ATOM     16  C   UNL     1      44.374   3.545  12.053  0.00  0.00    +0.000 C 
BRANCH  14  17
ATOM     17  C   UNL     1      45.186   3.744   9.580  0.00  0.00    +0.000 A 
ATOM     18  C   UNL     1      45.760   4.565   8.589  0.00  0.00    +0.000 A 
ATOM     19  C   UNL     1      46.404   4.031   7.467  0.00  0.00    +0.000 A 
ATOM     20  C   UNL     1      46.490   2.651   7.318  0.00  0.00    +0.000 A 
ATOM     21 CL   UNL     1      47.250   1.993   5.922  0.00  0.00    +0.000 Cl
ATOM     22  C   UNL     1      45.946   1.820   8.295  0.00  0.00    +0.000 A 
ATOM     23  F   UNL     1      46.024   0.486   8.178  0.00  0.00    +0.000 F 
ATOM     24  C   UNL     1      45.307   2.355   9.411  0.00  0.00    +0.000 A 
ENDBRANCH  14  17
ENDBRANCH   5  14
TORSDOF 3
ENDMDL
MODEL 3
REMARK VINA RESULT:    -8.136      4.213      6.449
REMARK INTER + INTRA:          -9.073
REMARK INTER:                  -8.737
REMARK INTRA:                  -0.336
REMARK UNBOUND:                 0.490
REMARK  Name = 
REMARK  3 active torsions:
REMARK  status: ('A' for Active; 'I' for Inactive)
REMARK    1  A    between atoms: C_2  and  C_4
REMARK    2  A    between atoms: N_8  and  C_9
REMARK    3  A    between atoms: C_9  and  C_10
REMARK                            x       y       z     vdW  Elec       q    Type
REMARK                         _______ _______ _______ _____ _____    ______ ____
ROOT
ATOM      1  C   UNL     1      47.387   4.123  15.279  0.00  0.00    +0.000 A 
ATOM      2  C   UNL     1      47.348   5.483  14.995  0.00  0.00    +0.000 A 
ATOM      3  C   UNL     1      46.745   5.906  13.812  0.00  0.00    +0.000 A 
ATOM      4  C   UNL     1      46.166   4.971  12.948  0.00  0.00    +0.000 A 
ATOM      5  N   UNL     1      45.535   5.488  11.795  0.00  0.00    +0.000 N 
ATOM      6  N   UNL     1      46.200   3.652  13.218  0.00  0.00    +0.000 NA
ATOM      7  C   UNL     1      46.835   3.251  14.353  0.00  0.00    +0.000 A 
ATOM      8  H   UNL     1      46.219   6.006  11.252  0.00  0.00    +0.000 HD
ENDROOT
BRANCH   1  10
ATOM      9  N   UNL     1      47.135   3.055  17.442  0.00  0.00    +0.000 N 
ATOM     10  C   UNL     1      47.989   3.584  16.513  0.00  0.00    +0.000 C 
ATOM     11  O   UNL     1      49.202   3.565  16.679  0.00  0.00    +0.000 OA
ATOM     12  H   UNL     1      47.563   2.582  18.229  0.00  0.00    +0.000 HD
ATOM     13  H   UNL     1      46.177   2.818  17.222  0.00  0.00    +0.000 HD
ENDBRANCH   1  10
BRANCH   5  14
ATOM     14  C   UNL     1      44.592   4.685  10.992  0.00  0.00    +0.000 C 
ATOM     15  C   UNL     1      43.210   5.313  10.852  0.00  0.00    +0.000 C 
ATOM     16  C   UNL     1      43.374   4.048  11.630  0.00  0.00    +0.000 C 
BRANCH  14  17
ATOM     17  C   UNL     1      45.205   4.010   9.770  0.00  0.00    +0.000 A 
ATOM     18  C   UNL     1      45.774   4.765   8.725  0.00  0.00    +0.000 A 
ATOM     19  C   UNL     1      46.289   4.163   7.572  0.00  0.00    +0.000 A 
ATOM     20  C   UNL     1      46.247   2.779   7.444  0.00  0.00    +0.000 A 
ATOM     21 CL   UNL     1      46.847   2.039   6.011  0.00  0.00    +0.000 Cl
ATOM     22  C   UNL     1      45.706   2.011   8.473  0.00  0.00    +0.000 A 
ATOM     23  F   UNL     1      45.661   0.673   8.376  0.00  0.00    +0.000 F 
ATOM     24  C   UNL     1      45.195   2.613   9.619  0.00  0.00    +0.000 A 
ENDBRANCH  14  17
ENDBRANCH   5  14
TORSDOF 3
ENDMDL
MODEL 4
REMARK VINA RESULT:    -7.820      1.948      2.437
REMARK INTER + INTRA:          -8.701
REMARK INTER:                  -8.280
REMARK INTRA:                  -0.421
REMARK UNBOUND:                 0.490
REMARK  Name = 
REMARK  3 active torsions:
REMARK  status: ('A' for Active; 'I' for Inactive)
REMARK    1  A    between atoms: C_2  and  C_4
REMARK    2  A    between atoms: N_8  and  C_9
REMARK    3  A    between atoms: C_9  and  C_10
REMARK                            x       y       z     vdW  Elec       q    Type
REMARK                         _______ _______ _______ _____ _____    ______ ____
ROOT
ATOM      1  C   UNL     1      46.438   2.949   7.421  0.00  0.00    +0.000 A 
ATOM      2  C   UNL     1      45.829   1.898   8.094  0.00  0.00    +0.000 A 
ATOM      3  C   UNL     1      45.221   2.147   9.323  0.00  0.00    +0.000 A 
ATOM      4  C   UNL     1      45.204   3.445   9.844  0.00  0.00    +0.000 A 
ATOM      5  N   UNL     1      44.526   3.620  11.071  0.00  0.00    +0.000 N 
ATOM      6  N   UNL     1      45.792   4.469   9.196  0.00  0.00    +0.000 NA
ATOM      7  C   UNL     1      46.423   4.199   8.022  0.00  0.00    +0.000 A 
ATOM      8  H   UNL     1      44.959   3.027  11.772  0.00  0.00    +0.000 HD
ENDROOT
BRANCH   1  10
ATOM      9  N   UNL     1      48.432   2.506   6.113  0.00  0.00    +0.000 N 
ATOM     10  C   UNL     1      47.092   2.784   6.109  0.00  0.00    +0.000 C 
ATOM     11  O   UNL     1      46.457   2.845   5.065  0.00  0.00    +0.000 OA
ATOM     12  H   UNL     1      48.846   2.278   5.217  0.00  0.00    +0.000 HD
ATOM     13  H   UNL     1      48.917   2.192   6.943  0.00  0.00    +0.000 HD
ENDBRANCH   1  10
BRANCH   5  14
ATOM     14  C   UNL     1      44.121   4.953  11.559  0.00  0.00    +0.000 C 
ATOM     15  C   UNL     1      42.784   4.962  12.292  0.00  0.00    +0.000 C 
ATOM     16  C   UNL     1      42.913   5.659  10.977  0.00  0.00    +0.000 C 
BRANCH  14  17
ATOM     17  C   UNL     1      45.256   5.803  12.119  0.00  0.00    +0.000 A 
ATOM     18  C   UNL     1      46.210   5.260  13.002  0.00  0.00    +0.000 A 
ATOM     19  C   UNL     1      47.224   6.042  13.568  0.00  0.00    +0.000 A 
ATOM     20  C   UNL     1      47.304   7.393  13.253  0.00  0.00    +0.000 A 
ATOM     21 CL   UNL     1      48.527   8.364  13.975  0.00  0.00    +0.000 Cl
ATOM     22  C   UNL     1      46.382   7.947  12.367  0.00  0.00    +0.000 A 
ATOM     23  F   UNL     1      46.444   9.248  12.042  0.00  0.00    +0.000 F 
ATOM     24  C   UNL     1      45.375   7.167  11.805  0.00  0.00    +0.000 A 
ENDBRANCH  14  17
ENDBRANCH   5  14
TORSDOF 3
ENDMDL
MODEL 5
REMARK VINA RESULT:    -7.681      4.338      6.644
REMARK INTER + INTRA:          -8.538
REMARK INTER:                  -8.194
REMARK INTRA:                  -0.345
REMARK UNBOUND:                 0.490
REMARK  Name = 
REMARK  3 active torsions:
REMARK  status: ('A' for Active; 'I' for Inactive)
REMARK    1  A    between atoms: C_2  and  C_4
REMARK    2  A    between atoms: N_8  and  C_9
REMARK    3  A    between atoms: C_9  and  C_10
REMARK                            x       y       z     vdW  Elec       q    Type
REMARK                         _______ _______ _______ _____ _____    ______ ____
ROOT
ATOM      1  C   UNL     1      47.262   4.386  15.155  0.00  0.00    +0.000 A 
ATOM      2  C   UNL     1      47.325   5.705  14.723  0.00  0.00    +0.000 A 
ATOM      3  C   UNL     1      46.774   6.034  13.486  0.00  0.00    +0.000 A 
ATOM      4  C   UNL     1      46.145   5.050  12.716  0.00  0.00    +0.000 A 
ATOM      5  N   UNL     1      45.572   5.477  11.498  0.00  0.00    +0.000 N 
ATOM      6  N   UNL     1      46.080   3.770  13.131  0.00  0.00    +0.000 NA
ATOM      7  C   UNL     1      46.665   3.456  14.318  0.00  0.00    +0.000 A 
ATOM      8  H   UNL     1      46.300   5.883  10.918  0.00  0.00    +0.000 HD
ENDROOT
BRANCH   1  10
ATOM      9  N   UNL     1      48.889   4.627  16.939  0.00  0.00    +0.000 N 
ATOM     10  C   UNL     1      47.803   3.947  16.456  0.00  0.00    +0.000 C 
ATOM     11  O   UNL     1      47.277   3.048  17.098  0.00  0.00    +0.000 OA
ATOM     12  H   UNL     1      49.179   4.398  17.882  0.00  0.00    +0.000 HD
ATOM     13  H   UNL     1      49.174   5.523  16.570  0.00  0.00    +0.000 HD
ENDBRANCH   1  10
BRANCH   5  14
ATOM     14  C   UNL     1      44.588   4.656  10.765  0.00  0.00    +0.000 C 
ATOM     15  C   UNL     1      43.242   5.342  10.560  0.00  0.00    +0.000 C 
ATOM     16  C   UNL     1      43.336   4.146  11.451  0.00  0.00    +0.000 C 
BRANCH  14  17
ATOM     17  C   UNL     1      45.164   3.841   9.613  0.00  0.00    +0.000 A 
ATOM     18  C   UNL     1      45.145   2.432   9.632  0.00  0.00    +0.000 A 
ATOM     19  C   UNL     1      45.720   1.670   8.609  0.00  0.00    +0.000 A 
ATOM     20  C   UNL     1      46.328   2.310   7.536  0.00  0.00    +0.000 A 
ATOM     21 CL   UNL     1      47.068   1.375   6.295  0.00  0.00    +0.000 Cl
ATOM     22  C   UNL     1      46.343   3.703   7.486  0.00  0.00    +0.000 A 
ATOM     23  F   UNL     1      46.917   4.344   6.457  0.00  0.00    +0.000 F 
ATOM     24  C   UNL     1      45.769   4.458   8.505  0.00  0.00    +0.000 A 
ENDBRANCH  14  17
ENDBRANCH   5  14
TORSDOF 3
ENDMDL
MODEL 6
REMARK VINA RESULT:    -6.860      4.032      6.697
REMARK INTER + INTRA:          -7.573
REMARK INTER:                  -8.056
REMARK INTRA:                   0.483
REMARK UNBOUND:                 0.490
REMARK  Name = 
REMARK  3 active torsions:
REMARK  status: ('A' for Active; 'I' for Inactive)
REMARK    1  A    between atoms: C_2  and  C_4
REMARK    2  A    between atoms: N_8  and  C_9
REMARK    3  A    between atoms: C_9  and  C_10
REMARK                            x       y       z     vdW  Elec       q    Type
REMARK                         _______ _______ _______ _____ _____    ______ ____
ROOT
ATOM      1  C   UNL     1      46.874   7.340  13.331  0.00  0.00    +0.000 A 
ATOM      2  C   UNL     1      47.552   6.214  13.783  0.00  0.00    +0.000 A 
ATOM      3  C   UNL     1      47.038   4.954  13.485  0.00  0.00    +0.000 A 
ATOM      4  C   UNL     1      45.875   4.837  12.716  0.00  0.00    +0.000 A 
ATOM      5  N   UNL     1      45.448   3.524  12.420  0.00  0.00    +0.000 N 
ATOM      6  N   UNL     1      45.214   5.924  12.274  0.00  0.00    +0.000 NA
ATOM      7  C   UNL     1      45.702   7.147  12.616  0.00  0.00    +0.000 A 
ATOM      8  H   UNL     1      45.276   3.030  13.291  0.00  0.00    +0.000 HD
ENDROOT
BRANCH   1  10
ATOM      9  N   UNL     1      47.408   9.121  14.889  0.00  0.00    +0.000 N 
ATOM     10  C   UNL     1      47.351   8.713  13.584  0.00  0.00    +0.000 C 
ATOM     11  O   UNL     1      47.724   9.440  12.673  0.00  0.00    +0.000 OA
ATOM     12  H   UNL     1      47.846  10.017  15.062  0.00  0.00    +0.000 HD
ATOM     13  H   UNL     1      47.362   8.470  15.662  0.00  0.00    +0.000 HD
ENDBRANCH   1  10
BRANCH   5  14
ATOM     14  C   UNL     1      44.472   3.240  11.350  0.00  0.00    +0.000 C 
ATOM     15  C   UNL     1      43.161   4.004  11.491  0.00  0.00    +0.000 C 
ATOM     16  C   UNL     1      43.173   2.519  11.654  0.00  0.00    +0.000 C 
BRANCH  14  17
ATOM     17  C   UNL     1      45.073   3.089   9.957  0.00  0.00    +0.000 A 
ATOM     18  C   UNL     1      45.073   1.847   9.291  0.00  0.00    +0.000 A 
ATOM     19  C   UNL     1      45.671   1.681   8.036  0.00  0.00    +0.000 A 
ATOM     20  C   UNL     1      46.282   2.766   7.418  0.00  0.00    +0.000 A 
ATOM     21 CL   UNL     1      47.048   2.555   5.893  0.00  0.00    +0.000 Cl
ATOM     22  C   UNL     1      46.276   4.008   8.050  0.00  0.00    +0.000 A 
ATOM     23  F   UNL     1      46.852   5.072   7.470  0.00  0.00    +0.000 F 
ATOM     24  C   UNL     1      45.680   4.171   9.297  0.00  0.00    +0.000 A 
ENDBRANCH  14  17
ENDBRANCH   5  14
TORSDOF 3
ENDMDL
MODEL 7
REMARK VINA RESULT:    -6.522      3.829      5.458
REMARK INTER + INTRA:          -7.176
REMARK INTER:                  -6.669
REMARK INTRA:                  -0.507
REMARK UNBOUND:                 0.490
REMARK  Name = 
REMARK  3 active torsions:
REMARK  status: ('A' for Active; 'I' for Inactive)
REMARK    1  A    between atoms: C_2  and  C_4
REMARK    2  A    between atoms: N_8  and  C_9
REMARK    3  A    between atoms: C_9  and  C_10
REMARK                            x       y       z     vdW  Elec       q    Type
REMARK                         _______ _______ _______ _____ _____    ______ ____
ROOT
ATOM      1  C   UNL     1      44.693   4.816  11.890  0.00  0.00    +0.000 A 
ATOM      2  C   UNL     1      44.227   6.008  11.351  0.00  0.00    +0.000 A 
ATOM      3  C   UNL     1      45.004   7.157  11.486  0.00  0.00    +0.000 A 
ATOM      4  C   UNL     1      46.244   7.091  12.128  0.00  0.00    +0.000 A 
ATOM      5  N   UNL     1      46.989   8.291  12.180  0.00  0.00    +0.000 N 
ATOM      6  N   UNL     1      46.703   5.938  12.652  0.00  0.00    +0.000 NA
ATOM      7  C   UNL     1      45.910   4.837  12.555  0.00  0.00    +0.000 A 
ATOM      8  H   UNL     1      46.442   8.995  12.667  0.00  0.00    +0.000 HD
ENDROOT
BRANCH   1  10
ATOM      9  N   UNL     1      44.400   2.495  12.533  0.00  0.00    +0.000 N 
ATOM     10  C   UNL     1      43.948   3.547  11.783  0.00  0.00    +0.000 C 
ATOM     11  O   UNL     1      42.943   3.451  11.091  0.00  0.00    +0.000 OA
ATOM     12  H   UNL     1      43.816   1.668  12.544  0.00  0.00    +0.000 HD
ATOM     13  H   UNL     1      45.049   2.616  13.298  0.00  0.00    +0.000 HD
ENDBRANCH   1  10
BRANCH   5  14
ATOM     14  C   UNL     1      48.430   8.305  12.496  0.00  0.00    +0.000 C 
ATOM     15  C   UNL     1      49.244   9.256  11.626  0.00  0.00    +0.000 C 
ATOM     16  C   UNL     1      49.449   7.781  11.503  0.00  0.00    +0.000 C 
BRANCH  14  17
ATOM     17  C   UNL     1      48.762   8.225  13.982  0.00  0.00    +0.000 A 
ATOM     18  C   UNL     1      49.734   7.328  14.467  0.00  0.00    +0.000 A 
ATOM     19  C   UNL     1      50.010   7.203  15.834  0.00  0.00    +0.000 A 
ATOM     20  C   UNL     1      49.313   7.985  16.748  0.00  0.00    +0.000 A 
ATOM     21 CL   UNL     1      49.624   7.807  18.431  0.00  0.00    +0.000 Cl
ATOM     22  C   UNL     1      48.360   8.892  16.289  0.00  0.00    +0.000 A 
ATOM     23  F   UNL     1      47.680   9.663  17.152  0.00  0.00    +0.000 F 
ATOM     24  C   UNL     1      48.089   9.015  14.929  0.00  0.00    +0.000 A 
ENDBRANCH  14  17
ENDBRANCH   5  14
TORSDOF 3
ENDMDL
MODEL 8
REMARK VINA RESULT:    -6.377      4.545      6.894
REMARK INTER + INTRA:          -7.006
REMARK INTER:                  -6.662
REMARK INTRA:                  -0.343
REMARK UNBOUND:                 0.490
REMARK  Name = 
REMARK  3 active torsions:
REMARK  status: ('A' for Active; 'I' for Inactive)
REMARK    1  A    between atoms: C_2  and  C_4
REMARK    2  A    between atoms: N_8  and  C_9
REMARK    3  A    between atoms: C_9  and  C_10
REMARK                            x       y       z     vdW  Elec       q    Type
REMARK                         _______ _______ _______ _____ _____    ______ ____
ROOT
ATOM      1  C   UNL     1      48.591   5.823  15.659  0.00  0.00    +0.000 A 
ATOM      2  C   UNL     1      49.104   6.847  14.873  0.00  0.00    +0.000 A 
ATOM      3  C   UNL     1      48.484   7.140  13.660  0.00  0.00    +0.000 A 
ATOM      4  C   UNL     1      47.346   6.428  13.266  0.00  0.00    +0.000 A 
ATOM      5  N   UNL     1      46.751   6.819  12.046  0.00  0.00    +0.000 N 
ATOM      6  N   UNL     1      46.843   5.434  14.024  0.00  0.00    +0.000 NA
ATOM      7  C   UNL     1      47.489   5.129  15.182  0.00  0.00    +0.000 A 
ATOM      8  H   UNL     1      47.434   6.717  11.302  0.00  0.00    +0.000 HD
ENDROOT
BRANCH   1  10
ATOM      9  N   UNL     1      48.585   5.989  18.079  0.00  0.00    +0.000 N 
ATOM     10  C   UNL     1      49.170   5.453  16.964  0.00  0.00    +0.000 C 
ATOM     11  O   UNL     1      50.103   4.665  17.051  0.00  0.00    +0.000 OA
ATOM     12  H   UNL     1      48.912   5.638  18.971  0.00  0.00    +0.000 HD
ATOM     13  H   UNL     1      47.671   6.419  18.056  0.00  0.00    +0.000 HD
ENDBRANCH   1  10
BRANCH   5  14
ATOM     14  C   UNL     1      45.378   6.419  11.680  0.00  0.00    +0.000 C 
ATOM     15  C   UNL     1      44.472   7.588  11.312  0.00  0.00    +0.000 C 
ATOM     16  C   UNL     1      44.199   6.801  12.552  0.00  0.00    +0.000 C 
BRANCH  14  17
ATOM     17  C   UNL     1      45.282   5.143  10.852  0.00  0.00    +0.000 A 
ATOM     18  C   UNL     1      44.841   3.932  11.422  0.00  0.00    +0.000 A 
ATOM     19  C   UNL     1      44.800   2.740  10.690  0.00  0.00    +0.000 A 
ATOM     20  C   UNL     1      45.201   2.740   9.358  0.00  0.00    +0.000 A 
ATOM     21 CL   UNL     1      45.186   1.268   8.467  0.00  0.00    +0.000 Cl
ATOM     22  C   UNL     1      45.623   3.929   8.768  0.00  0.00    +0.000 A 
ATOM     23  F   UNL     1      46.007   3.955   7.483  0.00  0.00    +0.000 F 
ATOM     24  C   UNL     1      45.661   5.113   9.499  0.00  0.00    +0.000 A 
ENDBRANCH  14  17
ENDBRANCH   5  14
TORSDOF 3
ENDMDL
MODEL 9
REMARK VINA RESULT:    -6.263      2.521      3.879
REMARK INTER + INTRA:          -6.871
REMARK INTER:                  -6.418
REMARK INTRA:                  -0.454
REMARK UNBOUND:                 0.490
REMARK  Name = 
REMARK  3 active torsions:
REMARK  status: ('A' for Active; 'I' for Inactive)
REMARK    1  A    between atoms: C_2  and  C_4
REMARK    2  A    between atoms: N_8  and  C_9
REMARK    3  A    between atoms: C_9  and  C_10
REMARK                            x       y       z     vdW  Elec       q    Type
REMARK                         _______ _______ _______ _____ _____    ______ ____
ROOT
ATOM      1  C   UNL     1      44.678   4.138   9.816  0.00  0.00    +0.000 A 
ATOM      2  C   UNL     1      43.703   4.245  10.799  0.00  0.00    +0.000 A 
ATOM      3  C   UNL     1      43.733   5.341  11.660  0.00  0.00    +0.000 A 
ATOM      4  C   UNL     1      44.715   6.325  11.506  0.00  0.00    +0.000 A 
ATOM      5  N   UNL     1      44.646   7.425  12.388  0.00  0.00    +0.000 N 
ATOM      6  N   UNL     1      45.663   6.227  10.553  0.00  0.00    +0.000 NA
ATOM      7  C   UNL     1      45.648   5.127   9.753  0.00  0.00    +0.000 A 
ATOM      8  H   UNL     1      44.718   7.085  13.342  0.00  0.00    +0.000 HD
ENDROOT
BRANCH   1  10
ATOM      9  N   UNL     1      44.501   1.765   9.344  0.00  0.00    +0.000 N 
ATOM     10  C   UNL     1      44.716   3.023   8.850  0.00  0.00    +0.000 C 
ATOM     11  O   UNL     1      44.886   3.217   7.653  0.00  0.00    +0.000 OA
ATOM     12  H   UNL     1      44.412   1.023   8.661  0.00  0.00    +0.000 HD
ATOM     13  H   UNL     1      44.103   1.604  10.259  0.00  0.00    +0.000 HD
ENDBRANCH   1  10
BRANCH   5  14
ATOM     14  C   UNL     1      45.371   8.685  12.129  0.00  0.00    +0.000 C 
ATOM     15  C   UNL     1      44.554   9.938  12.420  0.00  0.00    +0.000 C 
ATOM     16  C   UNL     1      44.938   9.614  11.013  0.00  0.00    +0.000 C 
BRANCH  14  17
ATOM     17  C   UNL     1      46.841   8.673  12.531  0.00  0.00    +0.000 A 
ATOM     18  C   UNL     1      47.799   9.426  11.823  0.00  0.00    +0.000 A 
ATOM     19  C   UNL     1      49.161   9.381  12.145  0.00  0.00    +0.000 A 
ATOM     20  C   UNL     1      49.592   8.577  13.194  0.00  0.00    +0.000 A 
ATOM     21 CL   UNL     1      51.269   8.493  13.567  0.00  0.00    +0.000 Cl
ATOM     22  C   UNL     1      48.659   7.838  13.920  0.00  0.00    +0.000 A 
ATOM     23  F   UNL     1      49.050   7.061  14.941  0.00  0.00    +0.000 F 
ATOM     24  C   UNL     1      47.306   7.885  13.598  0.00  0.00    +0.000 A 
ENDBRANCH  14  17
ENDBRANCH   5  14
TORSDOF 3
ENDMDL
