MODEL 1
REMARK VINA RESULT:    -8.316      0.000      0.000
REMARK INTER + INTRA:         -11.894
REMARK INTER:                 -11.232
REMARK INTRA:                  -0.662
REMARK UNBOUND:                -0.662
REMARK  Name = 
REMARK  7 active torsions:
REMARK  status: ('A' for Active; 'I' for Inactive)
REMARK    1  A    between atoms: C_1  and  C_2
REMARK    2  A    between atoms: C_2  and  N_3
REMARK    3  A    between atoms: C_2  and  C_16
REMARK    4  A    between atoms: C_4  and  C_6
REMARK    5  A    between atoms: C_19  and  O_20
REMARK    6  A    between atoms: O_20  and  C_21
REMARK    7  A    between atoms: C_21  and  C_22
REMARK                            x       y       z     vdW  Elec       q    Type
REMARK                         _______ _______ _______ _____ _____    ______ ____
ROOT
ATOM      1  C   UNL     1      45.733   8.989  12.883  0.00  0.00    +0.000 C 
ATOM      2  C   UNL     1      46.683   7.785  12.777  0.00  0.00    +0.000 C 
ENDROOT
BRANCH   2   3
ATOM      3  C   UNL     1      45.998   6.681  11.988  0.00  0.00    +0.000 A 
ATOM      4  C   UNL     1      45.134   5.771  12.613  0.00  0.00    +0.000 A 
ATOM      5  C   UNL     1      44.539   4.741  11.878  0.00  0.00    +0.000 A 
ATOM      6  C   UNL     1      44.787   4.616  10.510  0.00  0.00    +0.000 A 
ATOM      7  C   UNL     1      45.669   5.498   9.889  0.00  0.00    +0.000 A 
ATOM      8  C   UNL     1      46.250   6.533  10.616  0.00  0.00    +0.000 A 
BRANCH   6   9
ATOM      9  O   UNL     1      44.123   3.605   9.867  0.00  0.00    +0.000 OA
BRANCH   9  10
ATOM     10  C   UNL     1      44.846   2.371   9.803  0.00  0.00    +0.000 C 
BRANCH  10  11
ATOM     11  C   UNL     1      45.596   2.230   8.507  0.00  0.00    +0.000 A 
ATOM     12  C   UNL     1      45.595   3.242   7.552  0.00  0.00    +0.000 A 
ATOM     13  N   UNL     1      46.329   3.183   6.417  0.00  0.00    +0.000 NA
ATOM     14  C   UNL     1      47.083   2.072   6.273  0.00  0.00    +0.000 A 
ATOM     15  C   UNL     1      47.105   1.064   7.219  0.00  0.00    +0.000 A 
ATOM     16  N   UNL     1      46.373   1.122   8.355  0.00  0.00    +0.000 NA
ENDBRANCH  10  11
ENDBRANCH   9  10
ENDBRANCH   6   9
ENDBRANCH   2   3
BRANCH   2  17
ATOM     17  N   UNL     1      47.104   7.279  14.078  0.00  0.00    +0.000 N 
ATOM     18  C   UNL     1      48.345   6.721  14.266  0.00  0.00    +0.000 C 
ATOM     19  O   UNL     1      49.184   6.670  13.372  0.00  0.00    +0.000 OA
ATOM     20  H   UNL     1      46.367   7.030  14.732  0.00  0.00    +0.000 HD
BRANCH  18  21
ATOM     21  C   UNL     1      48.665   6.224  15.608  0.00  0.00    +0.000 A 
ATOM     22  C   UNL     1      49.602   6.905  16.374  0.00  0.00    +0.000 A 
ATOM     23  S   UNL     1      49.908   6.179  17.884  0.00  0.00    +0.000 S 
ATOM     24  C   UNL     1      48.825   4.910  17.550  0.00  0.00    +0.000 A 
ATOM     25  N   UNL     1      48.656   3.888  18.430  0.00  0.00    +0.000 NA
ATOM     26  C   UNL     1      47.835   2.975  18.033  0.00  0.00    +0.000 A 
ATOM     27  N   UNL     1      47.148   3.003  16.846  0.00  0.00    +0.000 N 
ATOM     28  C   UNL     1      47.249   4.042  15.948  0.00  0.00    +0.000 A 
ATOM     29  O   UNL     1      46.562   4.088  14.934  0.00  0.00    +0.000 OA
ATOM     30  C   UNL     1      48.201   5.066  16.325  0.00  0.00    +0.000 A 
ATOM     31  H   UNL     1      46.497   2.269  16.611  0.00  0.00    +0.000 HD
ENDBRANCH  18  21
ENDBRANCH   2  17
TORSDOF 6
ENDMDL
MODEL 2
REMARK VINA RESULT:    -8.232      1.673      2.303
REMARK INTER + INTRA:         -11.781
REMARK INTER:                 -10.885
REMARK INTRA:                  -0.896
REMARK UNBOUND:                -0.662
REMARK  Name = 
REMARK  7 active torsions:
REMARK  status: ('A' for Active; 'I' for Inactive)
REMARK    1  A    between atoms: C_1  and  C_2
REMARK    2  A    between atoms: C_2  and  N_3
REMARK    3  A    between atoms: C_2  and  C_16
REMARK    4  A    between atoms: C_4  and  C_6
REMARK    5  A    between atoms: C_19  and  O_20
REMARK    6  A    between atoms: O_20  and  C_21
REMARK    7  A    between atoms: C_21  and  C_22
REMARK                            x       y       z     vdW  Elec       q    Type
REMARK                         _______ _______ _______ _____ _____    ______ ____
ROOT
ATOM      1  C   UNL     1      48.400   8.357  12.810  0.00  0.00    +0.000 C 
ATOM      2  C   UNL     1      48.311   6.950  13.422  0.00  0.00    +0.000 C 
ENDROOT
BRANCH   2   3
ATOM      3  C   UNL     1      47.208   6.174  12.720  0.00  0.00    +0.000 A 
ATOM      4  C   UNL     1      46.605   6.666  11.554  0.00  0.00    +0.000 A 
ATOM      5  C   UNL     1      45.568   5.955  10.940  0.00  0.00    +0.000 A 
ATOM      6  C   UNL     1      45.132   4.741  11.474  0.00  0.00    +0.000 A 
ATOM      7  C   UNL     1      45.705   4.263  12.650  0.00  0.00    +0.000 A 
ATOM      8  C   UNL     1      46.748   4.961  13.253  0.00  0.00    +0.000 A 
BRANCH   6   9
ATOM      9  O   UNL     1      44.145   4.096  10.777  0.00  0.00    +0.000 OA
BRANCH   9  10
ATOM     10  C   UNL     1      44.187   4.305   9.361  0.00  0.00    +0.000 C 
BRANCH  10  11
ATOM     11  C   UNL     1      45.208   3.422   8.697  0.00  0.00    +0.000 A 
ATOM     12  C   UNL     1      45.295   2.065   8.989  0.00  0.00    +0.000 A 
ATOM     13  N   UNL     1      46.141   1.227   8.346  0.00  0.00    +0.000 NA
ATOM     14  C   UNL     1      46.897   1.796   7.382  0.00  0.00    +0.000 A 
ATOM     15  C   UNL     1      46.811   3.140   7.071  0.00  0.00    +0.000 A 
ATOM     16  N   UNL     1      45.965   3.979   7.711  0.00  0.00    +0.000 NA
ENDBRANCH  10  11
ENDBRANCH   9  10
ENDBRANCH   6   9
ENDBRANCH   2   3
BRANCH   2  17
ATOM     17  N   UNL     1      48.067   6.971  14.859  0.00  0.00    +0.000 N 
ATOM     18  C   UNL     1      49.082   6.779  15.764  0.00  0.00    +0.000 C 
ATOM     19  O   UNL     1      50.252   6.640  15.419  0.00  0.00    +0.000 OA
ATOM     20  H   UNL     1      47.117   6.782  15.165  0.00  0.00    +0.000 HD
BRANCH  18  21
ATOM     21  C   UNL     1      48.731   6.800  17.187  0.00  0.00    +0.000 A 
ATOM     22  C   UNL     1      48.378   8.006  17.778  0.00  0.00    +0.000 A 
ATOM     23  S   UNL     1      48.049   7.880  19.445  0.00  0.00    +0.000 S 
ATOM     24  C   UNL     1      48.404   6.216  19.440  0.00  0.00    +0.000 A 
ATOM     25  N   UNL     1      48.372   5.494  20.592  0.00  0.00    +0.000 NA
ATOM     26  C   UNL     1      48.700   4.253  20.450  0.00  0.00    +0.000 A 
ATOM     27  N   UNL     1      49.032   3.663  19.256  0.00  0.00    +0.000 N 
ATOM     28  C   UNL     1      49.026   4.343  18.059  0.00  0.00    +0.000 A 
ATOM     29  O   UNL     1      49.242   3.777  16.994  0.00  0.00    +0.000 OA
ATOM     30  C   UNL     1      48.718   5.753  18.175  0.00  0.00    +0.000 A 
ATOM     31  H   UNL     1      49.248   2.679  19.212  0.00  0.00    +0.000 HD
ENDBRANCH  18  21
ENDBRANCH   2  17
TORSDOF 6
ENDMDL
MODEL 3
REMARK VINA RESULT:    -7.606      2.823      4.220
REMARK INTER + INTRA:         -10.936
REMARK INTER:                  -9.921
REMARK INTRA:                  -1.015
REMARK UNBOUND:                -0.662
REMARK  Name = 
REMARK  7 active torsions:
REMARK  status: ('A' for Active; 'I' for Inactive)
REMARK    1  A    between atoms: C_1  and  C_2
REMARK    2  A    between atoms: C_2  and  N_3
REMARK    3  A    between atoms: C_2  and  C_16
REMARK    4  A    between atoms: C_4  and  C_6
REMARK    5  A    between atoms: C_19  and  O_20
REMARK    6  A    between atoms: O_20  and  C_21
REMARK    7  A    between atoms: C_21  and  C_22
REMARK                            x       y       z     vdW  Elec       q    Type
REMARK                         _______ _______ _______ _____ _____    ______ ____
ROOT
ATOM      1  C   UNL     1      47.140   4.500  14.888  0.00  0.00    +0.000 C 
ATOM      2  C   UNL     1      46.775   5.622  13.903  0.00  0.00    +0.000 C 
ENDROOT
BRANCH   2   3
ATOM      3  C   UNL     1      46.078   5.014  12.697  0.00  0.00    +0.000 A 
ATOM      4  C   UNL     1      45.571   3.707  12.734  0.00  0.00    +0.000 A 
ATOM      5  C   UNL     1      44.962   3.152  11.603  0.00  0.00    +0.000 A 
ATOM      6  C   UNL     1      44.841   3.898  10.430  0.00  0.00    +0.000 A 
ATOM      7  C   UNL     1      45.371   5.185  10.376  0.00  0.00    +0.000 A 
ATOM      8  C   UNL     1      45.962   5.744  11.504  0.00  0.00    +0.000 A 
BRANCH   6   9
ATOM      9  O   UNL     1      44.190   3.286   9.392  0.00  0.00    +0.000 OA
BRANCH   9  10
ATOM     10  C   UNL     1      44.711   1.998   9.045  0.00  0.00    +0.000 C 
BRANCH  10  11
ATOM     11  C   UNL     1      45.826   2.099   8.040  0.00  0.00    +0.000 A 
ATOM     12  C   UNL     1      46.731   1.059   7.852  0.00  0.00    +0.000 A 
ATOM     13  N   UNL     1      47.690   1.082   6.897  0.00  0.00    +0.000 NA
ATOM     14  C   UNL     1      47.706   2.187   6.121  0.00  0.00    +0.000 A 
ATOM     15  C   UNL     1      46.805   3.222   6.288  0.00  0.00    +0.000 A 
ATOM     16  N   UNL     1      45.845   3.200   7.240  0.00  0.00    +0.000 NA
ENDBRANCH  10  11
ENDBRANCH   9  10
ENDBRANCH   6   9
ENDBRANCH   2   3
BRANCH   2  17
ATOM     17  N   UNL     1      47.933   6.395  13.471  0.00  0.00    +0.000 N 
ATOM     18  C   UNL     1      47.885   7.765  13.367  0.00  0.00    +0.000 C 
ATOM     19  O   UNL     1      46.893   8.413  13.685  0.00  0.00    +0.000 OA
ATOM     20  H   UNL     1      48.636   5.903  12.928  0.00  0.00    +0.000 HD
BRANCH  18  21
ATOM     21  C   UNL     1      49.097   8.449  12.905  0.00  0.00    +0.000 A 
ATOM     22  C   UNL     1      49.014   9.307  11.816  0.00  0.00    +0.000 A 
ATOM     23  S   UNL     1      50.510   9.984  11.365  0.00  0.00    +0.000 S 
ATOM     24  C   UNL     1      51.325   9.126  12.587  0.00  0.00    +0.000 A 
ATOM     25  N   UNL     1      52.675   9.211  12.717  0.00  0.00    +0.000 NA
ATOM     26  C   UNL     1      53.166   8.479  13.660  0.00  0.00    +0.000 A 
ATOM     27  N   UNL     1      52.426   7.687  14.501  0.00  0.00    +0.000 N 
ATOM     28  C   UNL     1      51.052   7.610  14.439  0.00  0.00    +0.000 A 
ATOM     29  O   UNL     1      50.404   6.963  15.255  0.00  0.00    +0.000 OA
ATOM     30  C   UNL     1      50.460   8.373  13.361  0.00  0.00    +0.000 A 
ATOM     31  H   UNL     1      52.872   7.162  15.238  0.00  0.00    +0.000 HD
ENDBRANCH  18  21
ENDBRANCH   2  17
TORSDOF 6
ENDMDL
MODEL 4
REMARK VINA RESULT:    -7.534      3.288      7.801
REMARK INTER + INTRA:         -10.839
REMARK INTER:                  -9.743
REMARK INTRA:                  -1.096
REMARK UNBOUND:                -0.662
REMARK  Name = 
REMARK  7 active torsions:
REMARK  status: ('A' for Active; 'I' for Inactive)
REMARK    1  A    between atoms: C_1  and  C_2
REMARK    2  A    between atoms: C_2  and  N_3
REMARK    3  A    between atoms: C_2  and  C_16
REMARK    4  A    between atoms: C_4  and  C_6
REMARK    5  A    between atoms: C_19  and  O_20
REMARK    6  A    between atoms: O_20  and  C_21
REMARK    7  A    between atoms: C_21  and  C_22
REMARK                            x       y       z     vdW  Elec       q    Type
REMARK                         _______ _______ _______ _____ _____    ______ ____
ROOT
ATOM      1  C   UNL     1      49.480   8.467  11.547  0.00  0.00    +0.000 C 
ATOM      2  C   UNL     1      48.352   7.856  12.395  0.00  0.00    +0.000 C 
ENDROOT
BRANCH   2   3
ATOM      3  C   UNL     1      48.933   7.368  13.712  0.00  0.00    +0.000 A 
ATOM      4  C   UNL     1      48.191   6.544  14.571  0.00  0.00    +0.000 A 
ATOM      5  C   UNL     1      48.729   6.132  15.795  0.00  0.00    +0.000 A 
ATOM      6  C   UNL     1      50.015   6.525  16.169  0.00  0.00    +0.000 A 
ATOM      7  C   UNL     1      50.744   7.370  15.335  0.00  0.00    +0.000 A 
ATOM      8  C   UNL     1      50.218   7.768  14.110  0.00  0.00    +0.000 A 
BRANCH   6   9
ATOM      9  O   UNL     1      50.471   6.034  17.363  0.00  0.00    +0.000 OA
BRANCH   9  10
ATOM     10  C   UNL     1      49.724   4.922  17.869  0.00  0.00    +0.000 C 
BRANCH  10  11
ATOM     11  C   UNL     1      50.514   3.643  17.803  0.00  0.00    +0.000 A 
ATOM     12  C   UNL     1      49.970   2.480  17.266  0.00  0.00    +0.000 A 
ATOM     13  N   UNL     1      50.681   1.339  17.111  0.00  0.00    +0.000 NA
ATOM     14  C   UNL     1      51.971   1.404  17.505  0.00  0.00    +0.000 A 
ATOM     15  C   UNL     1      52.529   2.556  18.027  0.00  0.00    +0.000 A 
ATOM     16  N   UNL     1      51.821   3.698  18.181  0.00  0.00    +0.000 NA
ENDBRANCH  10  11
ENDBRANCH   9  10
ENDBRANCH   6   9
ENDBRANCH   2   3
BRANCH   2  17
ATOM     17  N   UNL     1      47.663   6.765  11.719  0.00  0.00    +0.000 N 
ATOM     18  C   UNL     1      46.297   6.757  11.572  0.00  0.00    +0.000 C 
ATOM     19  O   UNL     1      45.591   7.690  11.946  0.00  0.00    +0.000 OA
ATOM     20  H   UNL     1      48.149   5.873  11.675  0.00  0.00    +0.000 HD
BRANCH  18  21
ATOM     21  C   UNL     1      45.696   5.604  10.895  0.00  0.00    +0.000 A 
ATOM     22  C   UNL     1      45.767   5.523   9.510  0.00  0.00    +0.000 A 
ATOM     23  S   UNL     1      44.979   4.158   8.865  0.00  0.00    +0.000 S 
ATOM     24  C   UNL     1      44.487   3.648  10.411  0.00  0.00    +0.000 A 
ATOM     25  N   UNL     1      43.708   2.545  10.566  0.00  0.00    +0.000 NA
ATOM     26  C   UNL     1      43.377   2.295  11.789  0.00  0.00    +0.000 A 
ATOM     27  N   UNL     1      43.775   3.035  12.874  0.00  0.00    +0.000 N 
ATOM     28  C   UNL     1      44.607   4.128  12.769  0.00  0.00    +0.000 A 
ATOM     29  O   UNL     1      45.019   4.722  13.758  0.00  0.00    +0.000 OA
ATOM     30  C   UNL     1      44.961   4.480  11.410  0.00  0.00    +0.000 A 
ATOM     31  H   UNL     1      43.505   2.765  13.807  0.00  0.00    +0.000 HD
ENDBRANCH  18  21
ENDBRANCH   2  17
TORSDOF 6
ENDMDL
MODEL 5
REMARK VINA RESULT:    -7.511      2.311      2.856
REMARK INTER + INTRA:         -10.808
REMARK INTER:                  -9.628
REMARK INTRA:                  -1.180
REMARK UNBOUND:                -0.662
REMARK  Name = 
REMARK  7 active torsions:
REMARK  status: ('A' for Active; 'I' for Inactive)
REMARK    1  A    between atoms: C_1  and  C_2
REMARK    2  A    between atoms: C_2  and  N_3
REMARK    3  A    between atoms: C_2  and  C_16
REMARK    4  A    between atoms: C_4  and  C_6
REMARK    5  A    between atoms: C_19  and  O_20
REMARK    6  A    between atoms: O_20  and  C_21
REMARK    7  A    between atoms: C_21  and  C_22
REMARK                            x       y       z     vdW  Elec       q    Type
REMARK                         _______ _______ _______ _____ _____    ______ ____
ROOT
ATOM      1  C   UNL     1      47.853   8.766  13.303  0.00  0.00    +0.000 C 
ATOM      2  C   UNL     1      48.052   7.287  13.671  0.00  0.00    +0.000 C 
ENDROOT
BRANCH   2   3
ATOM      3  C   UNL     1      47.010   6.452  12.945  0.00  0.00    +0.000 A 
ATOM      4  C   UNL     1      46.677   5.163  13.385  0.00  0.00    +0.000 A 
ATOM      5  C   UNL     1      45.740   4.396  12.684  0.00  0.00    +0.000 A 
ATOM      6  C   UNL     1      45.116   4.911  11.546  0.00  0.00    +0.000 A 
ATOM      7  C   UNL     1      45.467   6.177  11.085  0.00  0.00    +0.000 A 
ATOM      8  C   UNL     1      46.386   6.948  11.790  0.00  0.00    +0.000 A 
BRANCH   6   9
ATOM      9  O   UNL     1      44.181   4.104  10.955  0.00  0.00    +0.000 OA
BRANCH   9  10
ATOM     10  C   UNL     1      44.027   4.311   9.546  0.00  0.00    +0.000 C 
BRANCH  10  11
ATOM     11  C   UNL     1      44.990   3.473   8.750  0.00  0.00    +0.000 A 
ATOM     12  C   UNL     1      45.900   4.051   7.870  0.00  0.00    +0.000 A 
ATOM     13  N   UNL     1      46.837   3.334   7.206  0.00  0.00    +0.000 NA
ATOM     14  C   UNL     1      46.842   2.009   7.465  0.00  0.00    +0.000 A 
ATOM     15  C   UNL     1      45.954   1.423   8.347  0.00  0.00    +0.000 A 
ATOM     16  N   UNL     1      45.017   2.138   9.013  0.00  0.00    +0.000 NA
ENDBRANCH  10  11
ENDBRANCH   9  10
ENDBRANCH   6   9
ENDBRANCH   2   3
BRANCH   2  17
ATOM     17  N   UNL     1      47.973   7.044  15.106  0.00  0.00    +0.000 N 
ATOM     18  C   UNL     1      49.082   6.700  15.840  0.00  0.00    +0.000 C 
ATOM     19  O   UNL     1      50.203   6.636  15.345  0.00  0.00    +0.000 OA
ATOM     20  H   UNL     1      47.061   6.794  15.478  0.00  0.00    +0.000 HD
BRANCH  18  21
ATOM     21  C   UNL     1      48.894   6.458  17.274  0.00  0.00    +0.000 A 
ATOM     22  C   UNL     1      49.190   5.203  17.791  0.00  0.00    +0.000 A 
ATOM     23  S   UNL     1      48.871   5.059  19.458  0.00  0.00    +0.000 S 
ATOM     24  C   UNL     1      48.292   6.656  19.537  0.00  0.00    +0.000 A 
ATOM     25  N   UNL     1      47.794   7.161  20.697  0.00  0.00    +0.000 NA
ATOM     26  C   UNL     1      47.355   8.371  20.605  0.00  0.00    +0.000 A 
ATOM     27  N   UNL     1      47.390   9.132  19.464  0.00  0.00    +0.000 N 
ATOM     28  C   UNL     1      47.932   8.680  18.281  0.00  0.00    +0.000 A 
ATOM     29  O   UNL     1      48.031   9.406  17.298  0.00  0.00    +0.000 OA
ATOM     30  C   UNL     1      48.389   7.307  18.320  0.00  0.00    +0.000 A 
ATOM     31  H   UNL     1      47.056  10.084  19.470  0.00  0.00    +0.000 HD
ENDBRANCH  18  21
ENDBRANCH   2  17
TORSDOF 6
ENDMDL
MODEL 6
REMARK VINA RESULT:    -7.459      2.934      8.162
REMARK INTER + INTRA:         -10.737
REMARK INTER:                  -9.650
REMARK INTRA:                  -1.087
REMARK UNBOUND:                -0.662
REMARK  Name = 
REMARK  7 active torsions:
REMARK  status: ('A' for Active; 'I' for Inactive)
REMARK    1  A    between atoms: C_1  and  C_2
REMARK    2  A    between atoms: C_2  and  N_3
REMARK    3  A    between atoms: C_2  and  C_16
REMARK    4  A    between atoms: C_4  and  C_6
REMARK    5  A    between atoms: C_19  and  O_20
REMARK    6  A    between atoms: O_20  and  C_21
REMARK    7  A    between atoms: C_21  and  C_22
REMARK                            x       y       z     vdW  Elec       q    Type
REMARK                         _______ _______ _______ _____ _____    ______ ____
ROOT
ATOM      1  C   UNL     1      48.687   7.943  11.692  0.00  0.00    +0.000 C 
ATOM      2  C   UNL     1      47.718   7.389  12.750  0.00  0.00    +0.000 C 
ENDROOT
BRANCH   2   3
ATOM      3  C   UNL     1      48.507   7.006  13.991  0.00  0.00    +0.000 A 
ATOM      4  C   UNL     1      47.960   6.161  14.967  0.00  0.00    +0.000 A 
ATOM      5  C   UNL     1      48.688   5.847  16.120  0.00  0.00    +0.000 A 
ATOM      6  C   UNL     1      49.973   6.359  16.304  0.00  0.00    +0.000 A 
ATOM      7  C   UNL     1      50.510   7.225  15.354  0.00  0.00    +0.000 A 
ATOM      8  C   UNL     1      49.794   7.526  14.199  0.00  0.00    +0.000 A 
BRANCH   6   9
ATOM      9  O   UNL     1      50.624   5.958  17.441  0.00  0.00    +0.000 OA
BRANCH   9  10
ATOM     10  C   UNL     1      49.978   4.893  18.147  0.00  0.00    +0.000 C 
BRANCH  10  11
ATOM     11  C   UNL     1      50.694   3.584  17.961  0.00  0.00    +0.000 A 
ATOM     12  C   UNL     1      50.085   2.506  17.327  0.00  0.00    +0.000 A 
ATOM     13  N   UNL     1      50.730   1.345  17.065  0.00  0.00    +0.000 NA
ATOM     14  C   UNL     1      52.023   1.303  17.451  0.00  0.00    +0.000 A 
ATOM     15  C   UNL     1      52.647   2.372  18.069  0.00  0.00    +0.000 A 
ATOM     16  N   UNL     1      52.004   3.533  18.330  0.00  0.00    +0.000 NA
ENDBRANCH  10  11
ENDBRANCH   9  10
ENDBRANCH   6   9
ENDBRANCH   2   3
BRANCH   2  17
ATOM     17  N   UNL     1      46.953   6.243  12.273  0.00  0.00    +0.000 N 
ATOM     18  C   UNL     1      45.583   6.281  12.181  0.00  0.00    +0.000 C 
ATOM     19  O   UNL     1      44.935   7.292  12.436  0.00  0.00    +0.000 OA
ATOM     20  H   UNL     1      47.399   5.333  12.344  0.00  0.00    +0.000 HD
BRANCH  18  21
ATOM     21  C   UNL     1      44.905   5.071  11.708  0.00  0.00    +0.000 A 
ATOM     22  C   UNL     1      44.107   4.355  12.591  0.00  0.00    +0.000 A 
ATOM     23  S   UNL     1      43.430   2.946  11.913  0.00  0.00    +0.000 S 
ATOM     24  C   UNL     1      44.210   3.226  10.427  0.00  0.00    +0.000 A 
ATOM     25  N   UNL     1      44.096   2.340   9.402  0.00  0.00    +0.000 NA
ATOM     26  C   UNL     1      44.770   2.657   8.348  0.00  0.00    +0.000 A 
ATOM     27  N   UNL     1      45.528   3.793   8.216  0.00  0.00    +0.000 N 
ATOM     28  C   UNL     1      45.630   4.743   9.208  0.00  0.00    +0.000 A 
ATOM     29  O   UNL     1      46.243   5.791   9.038  0.00  0.00    +0.000 OA
ATOM     30  C   UNL     1      44.935   4.405  10.432  0.00  0.00    +0.000 A 
ATOM     31  H   UNL     1      46.006   3.995   7.351  0.00  0.00    +0.000 HD
ENDBRANCH  18  21
ENDBRANCH   2  17
TORSDOF 6
ENDMDL
MODEL 7
REMARK VINA RESULT:    -7.268      1.415      2.244
REMARK INTER + INTRA:         -10.479
REMARK INTER:                 -10.043
REMARK INTRA:                  -0.436
REMARK UNBOUND:                -0.662
REMARK  Name = 
REMARK  7 active torsions:
REMARK  status: ('A' for Active; 'I' for Inactive)
REMARK    1  A    between atoms: C_1  and  C_2
REMARK    2  A    between atoms: C_2  and  N_3
REMARK    3  A    between atoms: C_2  and  C_16
REMARK    4  A    between atoms: C_4  and  C_6
REMARK    5  A    between atoms: C_19  and  O_20
REMARK    6  A    between atoms: O_20  and  C_21
REMARK    7  A    between atoms: C_21  and  C_22
REMARK                            x       y       z     vdW  Elec       q    Type
REMARK                         _______ _______ _______ _____ _____    ______ ____
ROOT
ATOM      1  C   UNL     1      45.360   8.809  12.873  0.00  0.00    +0.000 C 
ATOM      2  C   UNL     1      46.345   7.640  12.698  0.00  0.00    +0.000 C 
ENDROOT
BRANCH   2   3
ATOM      3  C   UNL     1      45.745   6.627  11.737  0.00  0.00    +0.000 A 
ATOM      4  C   UNL     1      44.612   5.879  12.086  0.00  0.00    +0.000 A 
ATOM      5  C   UNL     1      44.094   4.926  11.202  0.00  0.00    +0.000 A 
ATOM      6  C   UNL     1      44.692   4.720   9.957  0.00  0.00    +0.000 A 
ATOM      7  C   UNL     1      45.837   5.437   9.618  0.00  0.00    +0.000 A 
ATOM      8  C   UNL     1      46.344   6.396  10.490  0.00  0.00    +0.000 A 
BRANCH   6   9
ATOM      9  O   UNL     1      44.086   3.800   9.143  0.00  0.00    +0.000 OA
BRANCH   9  10
ATOM     10  C   UNL     1      44.696   2.504   9.161  0.00  0.00    +0.000 C 
BRANCH  10  11
ATOM     11  C   UNL     1      45.751   2.369   8.097  0.00  0.00    +0.000 A 
ATOM     12  C   UNL     1      46.491   1.200   7.951  0.00  0.00    +0.000 A 
ATOM     13  N   UNL     1      47.384   1.014   6.951  0.00  0.00    +0.000 NA
ATOM     14  C   UNL     1      47.503   2.043   6.085  0.00  0.00    +0.000 A 
ATOM     15  C   UNL     1      46.764   3.204   6.208  0.00  0.00    +0.000 A 
ATOM     16  N   UNL     1      45.870   3.392   7.206  0.00  0.00    +0.000 NA
ENDBRANCH  10  11
ENDBRANCH   9  10
ENDBRANCH   6   9
ENDBRANCH   2   3
BRANCH   2  17
ATOM     17  N   UNL     1      46.683   6.992  13.959  0.00  0.00    +0.000 N 
ATOM     18  C   UNL     1      47.829   6.247  14.101  0.00  0.00    +0.000 C 
ATOM     19  O   UNL     1      48.656   6.136  13.201  0.00  0.00    +0.000 OA
ATOM     20  H   UNL     1      45.916   6.808  14.600  0.00  0.00    +0.000 HD
BRANCH  18  21
ATOM     21  C   UNL     1      48.069   5.619  15.404  0.00  0.00    +0.000 A 
ATOM     22  C   UNL     1      47.250   4.573  15.810  0.00  0.00    +0.000 A 
ATOM     23  S   UNL     1      47.617   3.982  17.365  0.00  0.00    +0.000 S 
ATOM     24  C   UNL     1      48.858   5.129  17.563  0.00  0.00    +0.000 A 
ATOM     25  N   UNL     1      49.554   5.208  18.728  0.00  0.00    +0.000 NA
ATOM     26  C   UNL     1      50.440   6.147  18.755  0.00  0.00    +0.000 A 
ATOM     27  N   UNL     1      50.709   6.998  17.714  0.00  0.00    +0.000 N 
ATOM     28  C   UNL     1      50.066   6.921  16.498  0.00  0.00    +0.000 A 
ATOM     29  O   UNL     1      50.382   7.635  15.553  0.00  0.00    +0.000 OA
ATOM     30  C   UNL     1      49.024   5.917  16.438  0.00  0.00    +0.000 A 
ATOM     31  H   UNL     1      51.438   7.692  17.791  0.00  0.00    +0.000 HD
ENDBRANCH  18  21
ENDBRANCH   2  17
TORSDOF 6
ENDMDL
MODEL 8
REMARK VINA RESULT:    -7.099      2.187      3.928
REMARK INTER + INTRA:         -10.251
REMARK INTER:                  -9.352
REMARK INTRA:                  -0.900
REMARK UNBOUND:                -0.662
REMARK  Name = 
REMARK  7 active torsions:
REMARK  status: ('A' for Active; 'I' for Inactive)
REMARK    1  A    between atoms: C_1  and  C_2
REMARK    2  A    between atoms: C_2  and  N_3
REMARK    3  A    between atoms: C_2  and  C_16
REMARK    4  A    between atoms: C_4  and  C_6
REMARK    5  A    between atoms: C_19  and  O_20
REMARK    6  A    between atoms: O_20  and  C_21
REMARK    7  A    between atoms: C_21  and  C_22
REMARK                            x       y       z     vdW  Elec       q    Type
REMARK                         _______ _______ _______ _____ _____    ______ ____
ROOT
ATOM      1  C   UNL     1      47.522   3.450  15.185  0.00  0.00    +0.000 C 
ATOM      2  C   UNL     1      46.913   4.789  14.738  0.00  0.00    +0.000 C 
ENDROOT
BRANCH   2   3
ATOM      3  C   UNL     1      46.262   4.608  13.377  0.00  0.00    +0.000 A 
ATOM      4  C   UNL     1      46.219   5.656  12.447  0.00  0.00    +0.000 A 
ATOM      5  C   UNL     1      45.585   5.482  11.212  0.00  0.00    +0.000 A 
ATOM      6  C   UNL     1      45.000   4.257  10.887  0.00  0.00    +0.000 A 
ATOM      7  C   UNL     1      45.011   3.222  11.818  0.00  0.00    +0.000 A 
ATOM      8  C   UNL     1      45.654   3.388  13.041  0.00  0.00    +0.000 A 
BRANCH   6   9
ATOM      9  O   UNL     1      44.444   4.168   9.638  0.00  0.00    +0.000 OA
BRANCH   9  10
ATOM     10  C   UNL     1      44.352   2.833   9.126  0.00  0.00    +0.000 C 
BRANCH  10  11
ATOM     11  C   UNL     1      45.530   2.486   8.258  0.00  0.00    +0.000 A 
ATOM     12  C   UNL     1      46.182   3.451   7.497  0.00  0.00    +0.000 A 
ATOM     13  N   UNL     1      47.297   3.189   6.775  0.00  0.00    +0.000 NA
ATOM     14  C   UNL     1      47.749   1.919   6.851  0.00  0.00    +0.000 A 
ATOM     15  C   UNL     1      47.120   0.953   7.613  0.00  0.00    +0.000 A 
ATOM     16  N   UNL     1      46.007   1.213   8.337  0.00  0.00    +0.000 NA
ENDBRANCH  10  11
ENDBRANCH   9  10
ENDBRANCH   6   9
ENDBRANCH   2   3
BRANCH   2  17
ATOM     17  N   UNL     1      47.894   5.866  14.682  0.00  0.00    +0.000 N 
ATOM     18  C   UNL     1      48.526   6.324  15.812  0.00  0.00    +0.000 C 
ATOM     19  O   UNL     1      48.348   5.816  16.915  0.00  0.00    +0.000 OA
ATOM     20  H   UNL     1      47.843   6.490  13.881  0.00  0.00    +0.000 HD
BRANCH  18  21
ATOM     21  C   UNL     1      49.482   7.424  15.653  0.00  0.00    +0.000 A 
ATOM     22  C   UNL     1      50.746   7.307  16.215  0.00  0.00    +0.000 A 
ATOM     23  S   UNL     1      51.723   8.684  15.993  0.00  0.00    +0.000 S 
ATOM     24  C   UNL     1      50.477   9.498  15.169  0.00  0.00    +0.000 A 
ATOM     25  N   UNL     1      50.641  10.779  14.747  0.00  0.00    +0.000 NA
ATOM     26  C   UNL     1      49.603  11.287  14.171  0.00  0.00    +0.000 A 
ATOM     27  N   UNL     1      48.423  10.620  13.958  0.00  0.00    +0.000 N 
ATOM     28  C   UNL     1      48.230   9.306  14.322  0.00  0.00    +0.000 A 
ATOM     29  O   UNL     1      47.198   8.704  14.045  0.00  0.00    +0.000 OA
ATOM     30  C   UNL     1      49.349   8.710  15.021  0.00  0.00    +0.000 A 
ATOM     31  H   UNL     1      47.659  11.068  13.473  0.00  0.00    +0.000 HD
ENDBRANCH  18  21
ENDBRANCH   2  17
TORSDOF 6
ENDMDL
MODEL 9
REMARK VINA RESULT:    -6.999      4.166      6.690
REMARK INTER + INTRA:         -10.117
REMARK INTER:                  -8.909
REMARK INTRA:                  -1.207
REMARK UNBOUND:                -0.662
REMARK  Name = 
REMARK  7 active torsions:
REMARK  status: ('A' for Active; 'I' for Inactive)
REMARK    1  A    between atoms: C_1  and  C_2
REMARK    2  A    between atoms: C_2  and  N_3
REMARK    3  A    between atoms: C_2  and  C_16
REMARK    4  A    between atoms: C_4  and  C_6
REMARK    5  A    between atoms: C_19  and  O_20
REMARK    6  A    between atoms: O_20  and  C_21
REMARK    7  A    between atoms: C_21  and  C_22
REMARK                            x       y       z     vdW  Elec       q    Type
REMARK                         _______ _______ _______ _____ _____    ______ ____
ROOT
ATOM      1  C   UNL     1      48.817   4.728  20.662  0.00  0.00    +0.000 C 
ATOM      2  C   UNL     1      49.722   4.872  19.427  0.00  0.00    +0.000 C 
ENDROOT
BRANCH   2   3
ATOM      3  C   UNL     1      48.912   4.553  18.181  0.00  0.00    +0.000 A 
ATOM      4  C   UNL     1      48.876   5.436  17.093  0.00  0.00    +0.000 A 
ATOM      5  C   UNL     1      48.098   5.142  15.968  0.00  0.00    +0.000 A 
ATOM      6  C   UNL     1      47.360   3.959  15.911  0.00  0.00    +0.000 A 
ATOM      7  C   UNL     1      47.366   3.092  17.002  0.00  0.00    +0.000 A 
ATOM      8  C   UNL     1      48.152   3.376  18.115  0.00  0.00    +0.000 A 
BRANCH   6   9
ATOM      9  O   UNL     1      46.667   3.737  14.751  0.00  0.00    +0.000 OA
BRANCH   9  10
ATOM     10  C   UNL     1      46.277   4.928  14.058  0.00  0.00    +0.000 C 
BRANCH  10  11
ATOM     11  C   UNL     1      45.135   4.676  13.112  0.00  0.00    +0.000 A 
ATOM     12  C   UNL     1      45.154   3.611  12.218  0.00  0.00    +0.000 A 
ATOM     13  N   UNL     1      44.108   3.305  11.416  0.00  0.00    +0.000 NA
ATOM     14  C   UNL     1      43.025   4.100  11.549  0.00  0.00    +0.000 A 
ATOM     15  C   UNL     1      42.986   5.154  12.443  0.00  0.00    +0.000 A 
ATOM     16  N   UNL     1      44.030   5.461  13.247  0.00  0.00    +0.000 NA
ENDBRANCH  10  11
ENDBRANCH   9  10
ENDBRANCH   6   9
ENDBRANCH   2   3
BRANCH   2  17
ATOM     17  N   UNL     1      50.902   4.019  19.487  0.00  0.00    +0.000 N 
ATOM     18  C   UNL     1      52.098   4.405  18.932  0.00  0.00    +0.000 C 
ATOM     19  O   UNL     1      52.256   5.505  18.412  0.00  0.00    +0.000 OA
ATOM     20  H   UNL     1      50.742   3.025  19.624  0.00  0.00    +0.000 HD
BRANCH  18  21
ATOM     21  C   UNL     1      53.221   3.467  19.028  0.00  0.00    +0.000 A 
ATOM     22  C   UNL     1      54.378   3.864  19.685  0.00  0.00    +0.000 A 
ATOM     23  S   UNL     1      55.611   2.689  19.668  0.00  0.00    +0.000 S 
ATOM     24  C   UNL     1      54.653   1.624  18.750  0.00  0.00    +0.000 A 
ATOM     25  N   UNL     1      55.145   0.428  18.332  0.00  0.00    +0.000 NA
ATOM     26  C   UNL     1      54.325  -0.263  17.613  0.00  0.00    +0.000 A 
ATOM     27  N   UNL     1      53.048   0.124  17.294  0.00  0.00    +0.000 N 
ATOM     28  C   UNL     1      52.490   1.302  17.739  0.00  0.00    +0.000 A 
ATOM     29  O   UNL     1      51.320   1.588  17.514  0.00  0.00    +0.000 OA
ATOM     30  C   UNL     1      53.391   2.137  18.505  0.00  0.00    +0.000 A 
ATOM     31  H   UNL     1      52.448  -0.479  16.752  0.00  0.00    +0.000 HD
ENDBRANCH  18  21
ENDBRANCH   2  17
TORSDOF 6
ENDMDL
