MODEL 1
REMARK VINA RESULT:    -8.761      0.000      0.000
REMARK INTER + INTRA:         -12.626
REMARK INTER:                 -11.834
REMARK INTRA:                  -0.792
REMARK UNBOUND:                -0.792
REMARK  Name = 
REMARK  6 active torsions:
REMARK  status: ('A' for Active; 'I' for Inactive)
REMARK    1  A    between atoms: C_2  and  C_4
REMARK    2  A    between atoms: C_7  and  O_8
REMARK    3  A    between atoms: O_8  and  C_9
REMARK    4  A    between atoms: C_12  and  C_13
REMARK    5  A    between atoms: C_13  and  N_14
REMARK    6  A    between atoms: C_15  and  C_17
REMARK                            x       y       z     vdW  Elec       q    Type
REMARK                         _______ _______ _______ _____ _____    ______ ____
ROOT
ATOM      1  C   UNL     1      44.902   5.661  11.085  0.00  0.00    +0.000 A 
ATOM      2  N   UNL     1      46.022   5.148  11.621  0.00  0.00    +0.000 NA
ATOM      3  C   UNL     1      46.766   5.998  12.360  0.00  0.00    +0.000 A 
ATOM      4  C   UNL     1      46.436   7.317  12.580  0.00  0.00    +0.000 A 
ATOM      5  C   UNL     1      45.283   7.740  11.952  0.00  0.00    +0.000 A 
ATOM      6  N   UNL     1      44.504   6.941  11.197  0.00  0.00    +0.000 NA
ENDROOT
BRANCH   1   7
ATOM      7  O   UNL     1      44.171   4.774  10.308  0.00  0.00    +0.000 OA
BRANCH   7  11
ATOM      8  C   UNL     1      46.396   2.482   7.730  0.00  0.00    +0.000 A 
ATOM      9  C   UNL     1      45.616   1.804   8.656  0.00  0.00    +0.000 A 
ATOM     10  C   UNL     1      44.844   2.548   9.545  0.00  0.00    +0.000 A 
ATOM     11  C   UNL     1      44.850   3.940   9.457  0.00  0.00    +0.000 A 
ATOM     12  C   UNL     1      45.679   4.529   8.508  0.00  0.00    +0.000 A 
ATOM     13  N   UNL     1      46.457   3.842   7.636  0.00  0.00    +0.000 NA
BRANCH   8  15
ATOM     14  N   UNL     1      48.227   2.417   6.139  0.00  0.00    +0.000 N 
ATOM     15  C   UNL     1      47.250   1.704   6.774  0.00  0.00    +0.000 C 
ATOM     16  O   UNL     1      47.094   0.505   6.575  0.00  0.00    +0.000 OA
ATOM     17  H   UNL     1      48.849   1.951   5.495  0.00  0.00    +0.000 HD
ATOM     18  H   UNL     1      48.340   3.407   6.345  0.00  0.00    +0.000 HD
ENDBRANCH   8  15
ENDBRANCH   7  11
ENDBRANCH   1   7
BRANCH   4  19
ATOM     19  C   UNL     1      47.292   8.224  13.404  0.00  0.00    +0.000 C 
BRANCH  19  20
ATOM     20  N   UNL     1      47.542   7.680  14.713  0.00  0.00    +0.000 N 
ATOM     21  C   UNL     1      48.735   7.067  15.009  0.00  0.00    +0.000 C 
ATOM     22  O   UNL     1      49.633   6.980  14.174  0.00  0.00    +0.000 OA
ATOM     23  H   UNL     1      46.936   7.973  15.476  0.00  0.00    +0.000 HD
BRANCH  21  24
ATOM     24  C   UNL     1      48.849   6.437  16.330  0.00  0.00    +0.000 A 
ATOM     25  C   UNL     1      49.578   7.052  17.340  0.00  0.00    +0.000 A 
ATOM     26  S   UNL     1      49.872   6.031  18.678  0.00  0.00    +0.000 S 
ATOM     27  C   UNL     1      48.986   4.763  17.970  0.00  0.00    +0.000 A 
ATOM     28  N   UNL     1      48.933   3.528  18.535  0.00  0.00    +0.000 NA
ATOM     29  C   UNL     1      48.179   2.686  17.908  0.00  0.00    +0.000 A 
ATOM     30  N   UNL     1      47.432   2.982  16.796  0.00  0.00    +0.000 N 
ATOM     31  C   UNL     1      47.432   4.225  16.209  0.00  0.00    +0.000 A 
ATOM     32  O   UNL     1      46.683   4.505  15.279  0.00  0.00    +0.000 OA
ATOM     33  C   UNL     1      48.364   5.164  16.801  0.00  0.00    +0.000 A 
ATOM     34  H   UNL     1      46.798   2.303  16.403  0.00  0.00    +0.000 HD
ENDBRANCH  21  24
ENDBRANCH  19  20
ENDBRANCH   4  19
TORSDOF 6
ENDMDL
MODEL 2
REMARK VINA RESULT:    -7.647      2.166      3.946
REMARK INTER + INTRA:         -11.122
REMARK INTER:                 -10.213
REMARK INTRA:                  -0.909
REMARK UNBOUND:                -0.792
REMARK  Name = 
REMARK  6 active torsions:
REMARK  status: ('A' for Active; 'I' for Inactive)
REMARK    1  A    between atoms: C_2  and  C_4
REMARK    2  A    between atoms: C_7  and  O_8
REMARK    3  A    between atoms: O_8  and  C_9
REMARK    4  A    between atoms: C_12  and  C_13
REMARK    5  A    between atoms: C_13  and  N_14
REMARK    6  A    between atoms: C_15  and  C_17
REMARK                            x       y       z     vdW  Elec       q    Type
REMARK                         _______ _______ _______ _____ _____    ______ ____
ROOT
ATOM      1  C   UNL     1      45.098   4.176  11.725  0.00  0.00    +0.000 A 
ATOM      2  N   UNL     1      45.167   5.474  12.065  0.00  0.00    +0.000 NA
ATOM      3  C   UNL     1      45.835   5.751  13.204  0.00  0.00    +0.000 A 
ATOM      4  C   UNL     1      46.428   4.795  14.000  0.00  0.00    +0.000 A 
ATOM      5  C   UNL     1      46.263   3.496  13.568  0.00  0.00    +0.000 A 
ATOM      6  N   UNL     1      45.601   3.158  12.445  0.00  0.00    +0.000 NA
ENDROOT
BRANCH   1   7
ATOM      7  O   UNL     1      44.381   3.917  10.565  0.00  0.00    +0.000 OA
BRANCH   7  11
ATOM      8  C   UNL     1      46.558   2.701   7.303  0.00  0.00    +0.000 A 
ATOM      9  C   UNL     1      46.031   1.704   8.112  0.00  0.00    +0.000 A 
ATOM     10  C   UNL     1      45.282   2.078   9.225  0.00  0.00    +0.000 A 
ATOM     11  C   UNL     1      45.057   3.431   9.476  0.00  0.00    +0.000 A 
ATOM     12  C   UNL     1      45.644   4.358   8.619  0.00  0.00    +0.000 A 
ATOM     13  N   UNL     1      46.391   4.036   7.534  0.00  0.00    +0.000 NA
BRANCH   8  15
ATOM     14  N   UNL     1      47.261   3.148   5.024  0.00  0.00    +0.000 N 
ATOM     15  C   UNL     1      47.382   2.325   6.109  0.00  0.00    +0.000 C 
ATOM     16  O   UNL     1      48.123   1.349   6.099  0.00  0.00    +0.000 OA
ATOM     17  H   UNL     1      47.802   2.961   4.192  0.00  0.00    +0.000 HD
ATOM     18  H   UNL     1      46.652   3.960   5.076  0.00  0.00    +0.000 HD
ENDBRANCH   8  15
ENDBRANCH   7  11
ENDBRANCH   1   7
BRANCH   4  19
ATOM     19  C   UNL     1      47.157   5.148  15.256  0.00  0.00    +0.000 C 
BRANCH  19  20
ATOM     20  N   UNL     1      47.964   6.329  15.093  0.00  0.00    +0.000 N 
ATOM     21  C   UNL     1      49.177   6.450  15.728  0.00  0.00    +0.000 C 
ATOM     22  O   UNL     1      49.619   5.549  16.438  0.00  0.00    +0.000 OA
ATOM     23  H   UNL     1      47.750   6.953  14.319  0.00  0.00    +0.000 HD
BRANCH  21  24
ATOM     24  C   UNL     1      49.869   7.738  15.600  0.00  0.00    +0.000 A 
ATOM     25  C   UNL     1      50.436   8.344  16.714  0.00  0.00    +0.000 A 
ATOM     26  S   UNL     1      50.899   9.965  16.438  0.00  0.00    +0.000 S 
ATOM     27  C   UNL     1      50.408   9.882  14.811  0.00  0.00    +0.000 A 
ATOM     28  N   UNL     1      50.411  10.979  14.009  0.00  0.00    +0.000 NA
ATOM     29  C   UNL     1      50.061  10.747  12.786  0.00  0.00    +0.000 A 
ATOM     30  N   UNL     1      49.759   9.509  12.281  0.00  0.00    +0.000 N 
ATOM     31  C   UNL     1      49.771   8.369  13.048  0.00  0.00    +0.000 A 
ATOM     32  O   UNL     1      49.600   7.255  12.562  0.00  0.00    +0.000 OA
ATOM     33  C   UNL     1      50.031   8.600  14.456  0.00  0.00    +0.000 A 
ATOM     34  H   UNL     1      49.575   9.382  11.297  0.00  0.00    +0.000 HD
ENDBRANCH  21  24
ENDBRANCH  19  20
ENDBRANCH   4  19
TORSDOF 6
ENDMDL
MODEL 3
REMARK VINA RESULT:    -7.518      3.547      8.686
REMARK INTER + INTRA:         -10.948
REMARK INTER:                 -10.191
REMARK INTRA:                  -0.757
REMARK UNBOUND:                -0.792
REMARK  Name = 
REMARK  6 active torsions:
REMARK  status: ('A' for Active; 'I' for Inactive)
REMARK    1  A    between atoms: C_2  and  C_4
REMARK    2  A    between atoms: C_7  and  O_8
REMARK    3  A    between atoms: O_8  and  C_9
REMARK    4  A    between atoms: C_12  and  C_13
REMARK    5  A    between atoms: C_13  and  N_14
REMARK    6  A    between atoms: C_15  and  C_17
REMARK                            x       y       z     vdW  Elec       q    Type
REMARK                         _______ _______ _______ _____ _____    ______ ____
ROOT
ATOM      1  C   UNL     1      49.162   5.384  16.662  0.00  0.00    +0.000 A 
ATOM      2  N   UNL     1      49.842   6.360  16.037  0.00  0.00    +0.000 NA
ATOM      3  C   UNL     1      49.296   6.821  14.893  0.00  0.00    +0.000 A 
ATOM      4  C   UNL     1      48.114   6.352  14.361  0.00  0.00    +0.000 A 
ATOM      5  C   UNL     1      47.524   5.329  15.071  0.00  0.00    +0.000 A 
ATOM      6  N   UNL     1      48.025   4.822  16.214  0.00  0.00    +0.000 NA
ENDROOT
BRANCH   1   7
ATOM      7  O   UNL     1      49.760   4.909  17.821  0.00  0.00    +0.000 OA
BRANCH   7  11
ATOM      8  C   UNL     1      52.363   1.735  17.753  0.00  0.00    +0.000 A 
ATOM      9  C   UNL     1      51.053   1.480  17.372  0.00  0.00    +0.000 A 
ATOM     10  C   UNL     1      50.141   2.533  17.378  0.00  0.00    +0.000 A 
ATOM     11  C   UNL     1      50.575   3.810  17.731  0.00  0.00    +0.000 A 
ATOM     12  C   UNL     1      51.903   3.964  18.117  0.00  0.00    +0.000 A 
ATOM     13  N   UNL     1      52.817   2.963  18.139  0.00  0.00    +0.000 NA
BRANCH   8  15
ATOM     14  N   UNL     1      52.982  -0.499  18.470  0.00  0.00    +0.000 N 
ATOM     15  C   UNL     1      53.358   0.614  17.772  0.00  0.00    +0.000 C 
ATOM     16  O   UNL     1      54.438   0.681  17.196  0.00  0.00    +0.000 OA
ATOM     17  H   UNL     1      53.598  -1.297  18.508  0.00  0.00    +0.000 HD
ATOM     18  H   UNL     1      52.069  -0.525  18.917  0.00  0.00    +0.000 HD
ENDBRANCH   8  15
ENDBRANCH   7  11
ENDBRANCH   1   7
BRANCH   4  19
ATOM     19  C   UNL     1      47.547   6.891  13.088  0.00  0.00    +0.000 C 
BRANCH  19  20
ATOM     20  N   UNL     1      46.786   5.898  12.377  0.00  0.00    +0.000 N 
ATOM     21  C   UNL     1      45.413   5.949  12.342  0.00  0.00    +0.000 C 
ATOM     22  O   UNL     1      44.793   6.854  12.898  0.00  0.00    +0.000 OA
ATOM     23  H   UNL     1      47.273   5.312  11.703  0.00  0.00    +0.000 HD
BRANCH  21  24
ATOM     24  C   UNL     1      44.722   4.827  11.698  0.00  0.00    +0.000 A 
ATOM     25  C   UNL     1      43.780   4.086  12.401  0.00  0.00    +0.000 A 
ATOM     26  S   UNL     1      43.331   2.640  11.610  0.00  0.00    +0.000 S 
ATOM     27  C   UNL     1      44.338   2.992  10.284  0.00  0.00    +0.000 A 
ATOM     28  N   UNL     1      44.530   2.099   9.278  0.00  0.00    +0.000 NA
ATOM     29  C   UNL     1      45.280   2.531   8.317  0.00  0.00    +0.000 A 
ATOM     30  N   UNL     1      45.811   3.793   8.247  0.00  0.00    +0.000 N 
ATOM     31  C   UNL     1      45.619   4.737   9.227  0.00  0.00    +0.000 A 
ATOM     32  O   UNL     1      46.012   5.892   9.104  0.00  0.00    +0.000 OA
ATOM     33  C   UNL     1      44.893   4.255  10.385  0.00  0.00    +0.000 A 
ATOM     34  H   UNL     1      46.319   4.096   7.429  0.00  0.00    +0.000 HD
ENDBRANCH  21  24
ENDBRANCH  19  20
ENDBRANCH   4  19
TORSDOF 6
ENDMDL
MODEL 4
REMARK VINA RESULT:    -7.451      3.899      8.363
REMARK INTER + INTRA:         -10.857
REMARK INTER:                 -10.000
REMARK INTRA:                  -0.857
REMARK UNBOUND:                -0.792
REMARK  Name = 
REMARK  6 active torsions:
REMARK  status: ('A' for Active; 'I' for Inactive)
REMARK    1  A    between atoms: C_2  and  C_4
REMARK    2  A    between atoms: C_7  and  O_8
REMARK    3  A    between atoms: O_8  and  C_9
REMARK    4  A    between atoms: C_12  and  C_13
REMARK    5  A    between atoms: C_13  and  N_14
REMARK    6  A    between atoms: C_15  and  C_17
REMARK                            x       y       z     vdW  Elec       q    Type
REMARK                         _______ _______ _______ _____ _____    ______ ____
ROOT
ATOM      1  C   UNL     1      49.834   5.632  16.774  0.00  0.00    +0.000 A 
ATOM      2  N   UNL     1      48.587   5.370  16.348  0.00  0.00    +0.000 NA
ATOM      3  C   UNL     1      48.189   6.034  15.243  0.00  0.00    +0.000 A 
ATOM      4  C   UNL     1      48.978   6.933  14.560  0.00  0.00    +0.000 A 
ATOM      5  C   UNL     1      50.224   7.146  15.109  0.00  0.00    +0.000 A 
ATOM      6  N   UNL     1      50.675   6.519  16.213  0.00  0.00    +0.000 NA
ENDROOT
BRANCH   1   7
ATOM      7  O   UNL     1      50.207   4.957  17.928  0.00  0.00    +0.000 OA
BRANCH   7  11
ATOM      8  C   UNL     1      52.450   1.523  17.754  0.00  0.00    +0.000 A 
ATOM      9  C   UNL     1      51.130   1.431  17.336  0.00  0.00    +0.000 A 
ATOM     10  C   UNL     1      50.338   2.576  17.376  0.00  0.00    +0.000 A 
ATOM     11  C   UNL     1      50.900   3.781  17.800  0.00  0.00    +0.000 A 
ATOM     12  C   UNL     1      52.227   3.769  18.218  0.00  0.00    +0.000 A 
ATOM     13  N   UNL     1      53.026   2.674  18.208  0.00  0.00    +0.000 NA
BRANCH   8  15
ATOM     14  N   UNL     1      53.816  -0.054  16.515  0.00  0.00    +0.000 N 
ATOM     15  C   UNL     1      53.317   0.300  17.737  0.00  0.00    +0.000 C 
ATOM     16  O   UNL     1      53.572  -0.342  18.749  0.00  0.00    +0.000 OA
ATOM     17  H   UNL     1      54.421  -0.858  16.435  0.00  0.00    +0.000 HD
ATOM     18  H   UNL     1      53.599   0.515  15.700  0.00  0.00    +0.000 HD
ENDBRANCH   8  15
ENDBRANCH   7  11
ENDBRANCH   1   7
BRANCH   4  19
ATOM     19  C   UNL     1      48.493   7.648  13.341  0.00  0.00    +0.000 C 
BRANCH  19  20
ATOM     20  N   UNL     1      47.871   6.749  12.404  0.00  0.00    +0.000 N 
ATOM     21  C   UNL     1      46.507   6.736  12.236  0.00  0.00    +0.000 C 
ATOM     22  O   UNL     1      45.778   7.501  12.864  0.00  0.00    +0.000 OA
ATOM     23  H   UNL     1      48.458   6.311  11.699  0.00  0.00    +0.000 HD
BRANCH  21  24
ATOM     24  C   UNL     1      45.956   5.702  11.351  0.00  0.00    +0.000 A 
ATOM     25  C   UNL     1      46.053   5.835   9.972  0.00  0.00    +0.000 A 
ATOM     26  S   UNL     1      45.081   4.721   9.116  0.00  0.00    +0.000 S 
ATOM     27  C   UNL     1      44.552   3.995  10.562  0.00  0.00    +0.000 A 
ATOM     28  N   UNL     1      43.591   3.034  10.566  0.00  0.00    +0.000 NA
ATOM     29  C   UNL     1      43.332   2.544  11.734  0.00  0.00    +0.000 A 
ATOM     30  N   UNL     1      43.985   2.890  12.890  0.00  0.00    +0.000 N 
ATOM     31  C   UNL     1      44.982   3.835  12.926  0.00  0.00    +0.000 A 
ATOM     32  O   UNL     1      45.626   4.061  13.945  0.00  0.00    +0.000 OA
ATOM     33  C   UNL     1      45.215   4.506  11.663  0.00  0.00    +0.000 A 
ATOM     34  H   UNL     1      43.794   2.409  13.756  0.00  0.00    +0.000 HD
ENDBRANCH  21  24
ENDBRANCH  19  20
ENDBRANCH   4  19
TORSDOF 6
ENDMDL
MODEL 5
REMARK VINA RESULT:    -7.442      1.804      2.442
REMARK INTER + INTRA:         -10.845
REMARK INTER:                 -10.231
REMARK INTRA:                  -0.614
REMARK UNBOUND:                -0.792
REMARK  Name = 
REMARK  6 active torsions:
REMARK  status: ('A' for Active; 'I' for Inactive)
REMARK    1  A    between atoms: C_2  and  C_4
REMARK    2  A    between atoms: C_7  and  O_8
REMARK    3  A    between atoms: O_8  and  C_9
REMARK    4  A    between atoms: C_12  and  C_13
REMARK    5  A    between atoms: C_13  and  N_14
REMARK    6  A    between atoms: C_15  and  C_17
REMARK                            x       y       z     vdW  Elec       q    Type
REMARK                         _______ _______ _______ _____ _____    ______ ____
ROOT
ATOM      1  C   UNL     1      45.291   5.319  11.472  0.00  0.00    +0.000 A 
ATOM      2  N   UNL     1      45.796   4.586  12.478  0.00  0.00    +0.000 NA
ATOM      3  C   UNL     1      46.594   5.244  13.345  0.00  0.00    +0.000 A 
ATOM      4  C   UNL     1      46.899   6.584  13.243  0.00  0.00    +0.000 A 
ATOM      5  C   UNL     1      46.351   7.224  12.152  0.00  0.00    +0.000 A 
ATOM      6  N   UNL     1      45.554   6.619  11.251  0.00  0.00    +0.000 NA
ENDROOT
BRANCH   1   7
ATOM      7  O   UNL     1      44.496   4.611  10.580  0.00  0.00    +0.000 OA
BRANCH   7  11
ATOM      8  C   UNL     1      46.502   2.847   7.463  0.00  0.00    +0.000 A 
ATOM      9  C   UNL     1      45.861   1.999   8.356  0.00  0.00    +0.000 A 
ATOM     10  C   UNL     1      45.166   2.561   9.424  0.00  0.00    +0.000 A 
ATOM     11  C   UNL     1      45.106   3.949   9.546  0.00  0.00    +0.000 A 
ATOM     12  C   UNL     1      45.796   4.716   8.613  0.00  0.00    +0.000 A 
ATOM     13  N   UNL     1      46.497   4.207   7.569  0.00  0.00    +0.000 NA
BRANCH   8  15
ATOM     14  N   UNL     1      47.130   2.913   5.121  0.00  0.00    +0.000 N 
ATOM     15  C   UNL     1      47.272   2.265   6.316  0.00  0.00    +0.000 C 
ATOM     16  O   UNL     1      47.989   1.279   6.434  0.00  0.00    +0.000 OA
ATOM     17  H   UNL     1      47.635   2.584   4.311  0.00  0.00    +0.000 HD
ATOM     18  H   UNL     1      46.543   3.741   5.066  0.00  0.00    +0.000 HD
ENDBRANCH   8  15
ENDBRANCH   7  11
ENDBRANCH   1   7
BRANCH   4  19
ATOM     19  C   UNL     1      47.791   7.271  14.226  0.00  0.00    +0.000 C 
BRANCH  19  20
ATOM     20  N   UNL     1      48.131   6.414  15.332  0.00  0.00    +0.000 N 
ATOM     21  C   UNL     1      48.734   6.919  16.459  0.00  0.00    +0.000 C 
ATOM     22  O   UNL     1      48.984   8.118  16.567  0.00  0.00    +0.000 OA
ATOM     23  H   UNL     1      47.701   5.494  15.374  0.00  0.00    +0.000 HD
BRANCH  21  24
ATOM     24  C   UNL     1      49.153   5.951  17.479  0.00  0.00    +0.000 A 
ATOM     25  C   UNL     1      48.204   5.266  18.228  0.00  0.00    +0.000 A 
ATOM     26  S   UNL     1      48.868   4.444  19.569  0.00  0.00    +0.000 S 
ATOM     27  C   UNL     1      50.444   4.932  19.154  0.00  0.00    +0.000 A 
ATOM     28  N   UNL     1      51.507   4.674  19.961  0.00  0.00    +0.000 NA
ATOM     29  C   UNL     1      52.645   5.063  19.486  0.00  0.00    +0.000 A 
ATOM     30  N   UNL     1      52.822   5.637  18.253  0.00  0.00    +0.000 N 
ATOM     31  C   UNL     1      51.781   5.889  17.393  0.00  0.00    +0.000 A 
ATOM     32  O   UNL     1      51.964   6.308  16.254  0.00  0.00    +0.000 OA
ATOM     33  C   UNL     1      50.471   5.590  17.937  0.00  0.00    +0.000 A 
ATOM     34  H   UNL     1      53.747   5.840  17.905  0.00  0.00    +0.000 HD
ENDBRANCH  21  24
ENDBRANCH  19  20
ENDBRANCH   4  19
TORSDOF 6
ENDMDL
MODEL 6
REMARK VINA RESULT:    -6.768      3.403      4.358
REMARK INTER + INTRA:          -9.934
REMARK INTER:                  -9.201
REMARK INTRA:                  -0.733
REMARK UNBOUND:                -0.792
REMARK  Name = 
REMARK  6 active torsions:
REMARK  status: ('A' for Active; 'I' for Inactive)
REMARK    1  A    between atoms: C_2  and  C_4
REMARK    2  A    between atoms: C_7  and  O_8
REMARK    3  A    between atoms: O_8  and  C_9
REMARK    4  A    between atoms: C_12  and  C_13
REMARK    5  A    between atoms: C_13  and  N_14
REMARK    6  A    between atoms: C_15  and  C_17
REMARK                            x       y       z     vdW  Elec       q    Type
REMARK                         _______ _______ _______ _____ _____    ______ ____
ROOT
ATOM      1  C   UNL     1      44.672   5.557  11.037  0.00  0.00    +0.000 A 
ATOM      2  N   UNL     1      44.651   6.845  10.656  0.00  0.00    +0.000 NA
ATOM      3  C   UNL     1      45.213   7.723  11.513  0.00  0.00    +0.000 A 
ATOM      4  C   UNL     1      45.787   7.366  12.713  0.00  0.00    +0.000 A 
ATOM      5  C   UNL     1      45.720   6.023  13.013  0.00  0.00    +0.000 A 
ATOM      6  N   UNL     1      45.166   5.100  12.203  0.00  0.00    +0.000 NA
ENDROOT
BRANCH   1   7
ATOM      7  O   UNL     1      44.063   4.679  10.152  0.00  0.00    +0.000 OA
BRANCH   7  11
ATOM      8  C   UNL     1      46.257   1.966   7.988  0.00  0.00    +0.000 A 
ATOM      9  C   UNL     1      46.389   3.302   7.636  0.00  0.00    +0.000 A 
ATOM     10  C   UNL     1      45.664   4.253   8.351  0.00  0.00    +0.000 A 
ATOM     11  C   UNL     1      44.858   3.842   9.412  0.00  0.00    +0.000 A 
ATOM     12  C   UNL     1      44.775   2.479   9.677  0.00  0.00    +0.000 A 
ATOM     13  N   UNL     1      45.452   1.521   8.996  0.00  0.00    +0.000 NA
BRANCH   8  15
ATOM     14  N   UNL     1      46.736  -0.373   7.557  0.00  0.00    +0.000 N 
ATOM     15  C   UNL     1      47.014   0.923   7.222  0.00  0.00    +0.000 C 
ATOM     16  O   UNL     1      47.824   1.204   6.347  0.00  0.00    +0.000 OA
ATOM     17  H   UNL     1      47.198  -1.126   7.068  0.00  0.00    +0.000 HD
ATOM     18  H   UNL     1      46.042  -0.568   8.274  0.00  0.00    +0.000 HD
ENDBRANCH   8  15
ENDBRANCH   7  11
ENDBRANCH   1   7
BRANCH   4  19
ATOM     19  C   UNL     1      46.396   8.375  13.633  0.00  0.00    +0.000 C 
BRANCH  19  20
ATOM     20  N   UNL     1      47.748   8.698  13.254  0.00  0.00    +0.000 N 
ATOM     21  C   UNL     1      48.645   9.181  14.176  0.00  0.00    +0.000 C 
ATOM     22  O   UNL     1      48.329   9.335  15.354  0.00  0.00    +0.000 OA
ATOM     23  H   UNL     1      48.097   8.334  12.371  0.00  0.00    +0.000 HD
BRANCH  21  24
ATOM     24  C   UNL     1      49.958   9.597  13.671  0.00  0.00    +0.000 A 
ATOM     25  C   UNL     1      50.065  10.664  12.788  0.00  0.00    +0.000 A 
ATOM     26  S   UNL     1      51.606  10.789  12.063  0.00  0.00    +0.000 S 
ATOM     27  C   UNL     1      52.188   9.459  12.950  0.00  0.00    +0.000 A 
ATOM     28  N   UNL     1      53.423   8.936  12.724  0.00  0.00    +0.000 NA
ATOM     29  C   UNL     1      53.741   7.962  13.511  0.00  0.00    +0.000 A 
ATOM     30  N   UNL     1      52.958   7.497  14.538  0.00  0.00    +0.000 N 
ATOM     31  C   UNL     1      51.717   8.015  14.820  0.00  0.00    +0.000 A 
ATOM     32  O   UNL     1      51.073   7.661  15.802  0.00  0.00    +0.000 OA
ATOM     33  C   UNL     1      51.263   9.022  13.881  0.00  0.00    +0.000 A 
ATOM     34  H   UNL     1      53.301   6.789  15.170  0.00  0.00    +0.000 HD
ENDBRANCH  21  24
ENDBRANCH  19  20
ENDBRANCH   4  19
TORSDOF 6
ENDMDL
MODEL 7
REMARK VINA RESULT:    -6.275      4.898      6.726
REMARK INTER + INTRA:          -9.268
REMARK INTER:                  -8.578
REMARK INTRA:                  -0.691
REMARK UNBOUND:                -0.792
REMARK  Name = 
REMARK  6 active torsions:
REMARK  status: ('A' for Active; 'I' for Inactive)
REMARK    1  A    between atoms: C_2  and  C_4
REMARK    2  A    between atoms: C_7  and  O_8
REMARK    3  A    between atoms: O_8  and  C_9
REMARK    4  A    between atoms: C_12  and  C_13
REMARK    5  A    between atoms: C_13  and  N_14
REMARK    6  A    between atoms: C_15  and  C_17
REMARK                            x       y       z     vdW  Elec       q    Type
REMARK                         _______ _______ _______ _____ _____    ______ ____
ROOT
ATOM      1  C   UNL     1      52.104   8.342  10.978  0.00  0.00    +0.000 A 
ATOM      2  N   UNL     1      50.932   7.769  10.659  0.00  0.00    +0.000 NA
ATOM      3  C   UNL     1      50.023   7.692  11.654  0.00  0.00    +0.000 A 
ATOM      4  C   UNL     1      50.239   8.161  12.931  0.00  0.00    +0.000 A 
ATOM      5  C   UNL     1      51.490   8.698  13.149  0.00  0.00    +0.000 A 
ATOM      6  N   UNL     1      52.440   8.795  12.200  0.00  0.00    +0.000 NA
ENDROOT
BRANCH   1   7
ATOM      7  O   UNL     1      53.031   8.383   9.945  0.00  0.00    +0.000 OA
BRANCH   7  11
ATOM      8  C   UNL     1      53.483   5.203   7.389  0.00  0.00    +0.000 A 
ATOM      9  C   UNL     1      54.073   5.090   8.640  0.00  0.00    +0.000 A 
ATOM     10  C   UNL     1      53.938   6.147   9.537  0.00  0.00    +0.000 A 
ATOM     11  C   UNL     1      53.191   7.265   9.168  0.00  0.00    +0.000 A 
ATOM     12  C   UNL     1      52.654   7.295   7.885  0.00  0.00    +0.000 A 
ATOM     13  N   UNL     1      52.776   6.295   6.978  0.00  0.00    +0.000 NA
BRANCH   8  15
ATOM     14  N   UNL     1      53.290   2.843   6.857  0.00  0.00    +0.000 N 
ATOM     15  C   UNL     1      53.630   4.086   6.400  0.00  0.00    +0.000 C 
ATOM     16  O   UNL     1      54.022   4.267   5.253  0.00  0.00    +0.000 OA
ATOM     17  H   UNL     1      53.349   2.049   6.237  0.00  0.00    +0.000 HD
ATOM     18  H   UNL     1      52.949   2.735   7.809  0.00  0.00    +0.000 HD
ENDBRANCH   8  15
ENDBRANCH   7  11
ENDBRANCH   1   7
BRANCH   4  19
ATOM     19  C   UNL     1      49.202   8.052  14.002  0.00  0.00    +0.000 C 
BRANCH  19  20
ATOM     20  N   UNL     1      48.041   7.328  13.553  0.00  0.00    +0.000 N 
ATOM     21  C   UNL     1      47.736   6.091  14.067  0.00  0.00    +0.000 C 
ATOM     22  O   UNL     1      48.431   5.572  14.938  0.00  0.00    +0.000 OA
ATOM     23  H   UNL     1      47.324   7.841  13.046  0.00  0.00    +0.000 HD
BRANCH  21  24
ATOM     24  C   UNL     1      46.605   5.380  13.460  0.00  0.00    +0.000 A 
ATOM     25  C   UNL     1      46.541   3.993  13.510  0.00  0.00    +0.000 A 
ATOM     26  S   UNL     1      45.346   3.335  12.481  0.00  0.00    +0.000 S 
ATOM     27  C   UNL     1      44.846   4.885  11.986  0.00  0.00    +0.000 A 
ATOM     28  N   UNL     1      43.923   5.057  11.003  0.00  0.00    +0.000 NA
ATOM     29  C   UNL     1      43.610   6.290  10.775  0.00  0.00    +0.000 A 
ATOM     30  N   UNL     1      44.096   7.363  11.478  0.00  0.00    +0.000 N 
ATOM     31  C   UNL     1      45.007   7.234  12.498  0.00  0.00    +0.000 A 
ATOM     32  O   UNL     1      45.355   8.189  13.184  0.00  0.00    +0.000 OA
ATOM     33  C   UNL     1      45.487   5.881  12.702  0.00  0.00    +0.000 A 
ATOM     34  H   UNL     1      43.747   8.294  11.306  0.00  0.00    +0.000 HD
ENDBRANCH  21  24
ENDBRANCH  19  20
ENDBRANCH   4  19
TORSDOF 6
ENDMDL
MODEL 8
REMARK VINA RESULT:    -6.024      2.966      3.954
REMARK INTER + INTRA:          -8.929
REMARK INTER:                  -8.066
REMARK INTRA:                  -0.863
REMARK UNBOUND:                -0.792
REMARK  Name = 
REMARK  6 active torsions:
REMARK  status: ('A' for Active; 'I' for Inactive)
REMARK    1  A    between atoms: C_2  and  C_4
REMARK    2  A    between atoms: C_7  and  O_8
REMARK    3  A    between atoms: O_8  and  C_9
REMARK    4  A    between atoms: C_12  and  C_13
REMARK    5  A    between atoms: C_13  and  N_14
REMARK    6  A    between atoms: C_15  and  C_17
REMARK                            x       y       z     vdW  Elec       q    Type
REMARK                         _______ _______ _______ _____ _____    ______ ____
ROOT
ATOM      1  C   UNL     1      47.053   7.822  13.150  0.00  0.00    +0.000 A 
ATOM      2  N   UNL     1      47.946   6.873  12.822  0.00  0.00    +0.000 NA
ATOM      3  C   UNL     1      49.145   6.954  13.436  0.00  0.00    +0.000 A 
ATOM      4  C   UNL     1      49.476   7.930  14.351  0.00  0.00    +0.000 A 
ATOM      5  C   UNL     1      48.492   8.867  14.582  0.00  0.00    +0.000 A 
ATOM      6  N   UNL     1      47.281   8.843  13.994  0.00  0.00    +0.000 NA
ENDROOT
BRANCH   1   7
ATOM      7  O   UNL     1      45.839   7.731  12.483  0.00  0.00    +0.000 OA
BRANCH   7  11
ATOM      8  C   UNL     1      44.398   4.055  11.359  0.00  0.00    +0.000 A 
ATOM      9  C   UNL     1      45.068   4.788  10.390  0.00  0.00    +0.000 A 
ATOM     10  C   UNL     1      45.576   6.039  10.735  0.00  0.00    +0.000 A 
ATOM     11  C   UNL     1      45.427   6.500  12.042  0.00  0.00    +0.000 A 
ATOM     12  C   UNL     1      44.722   5.702  12.938  0.00  0.00    +0.000 A 
ATOM     13  N   UNL     1      44.200   4.487  12.638  0.00  0.00    +0.000 NA
BRANCH   8  15
ATOM     14  N   UNL     1      44.379   2.106   9.914  0.00  0.00    +0.000 N 
ATOM     15  C   UNL     1      43.828   2.714  11.007  0.00  0.00    +0.000 C 
ATOM     16  O   UNL     1      42.931   2.187  11.655  0.00  0.00    +0.000 OA
ATOM     17  H   UNL     1      44.053   1.193   9.632  0.00  0.00    +0.000 HD
ATOM     18  H   UNL     1      45.135   2.565   9.413  0.00  0.00    +0.000 HD
ENDBRANCH   8  15
ENDBRANCH   7  11
ENDBRANCH   1   7
BRANCH   4  19
ATOM     19  C   UNL     1      50.819   7.981  15.005  0.00  0.00    +0.000 C 
BRANCH  19  20
ATOM     20  N   UNL     1      50.737   7.719  16.418  0.00  0.00    +0.000 N 
ATOM     21  C   UNL     1      51.578   6.815  17.021  0.00  0.00    +0.000 C 
ATOM     22  O   UNL     1      52.439   6.217  16.378  0.00  0.00    +0.000 OA
ATOM     23  H   UNL     1      50.230   8.382  17.000  0.00  0.00    +0.000 HD
BRANCH  21  24
ATOM     24  C   UNL     1      51.338   6.525  18.439  0.00  0.00    +0.000 A 
ATOM     25  C   UNL     1      52.348   6.711  19.374  0.00  0.00    +0.000 A 
ATOM     26  S   UNL     1      51.995   6.019  20.896  0.00  0.00    +0.000 S 
ATOM     27  C   UNL     1      50.463   5.504  20.363  0.00  0.00    +0.000 A 
ATOM     28  N   UNL     1      49.663   4.726  21.139  0.00  0.00    +0.000 NA
ATOM     29  C   UNL     1      48.510   4.459  20.618  0.00  0.00    +0.000 A 
ATOM     30  N   UNL     1      48.065   4.945  19.415  0.00  0.00    +0.000 N 
ATOM     31  C   UNL     1      48.828   5.759  18.612  0.00  0.00    +0.000 A 
ATOM     32  O   UNL     1      48.381   6.269  17.590  0.00  0.00    +0.000 OA
ATOM     33  C   UNL     1      50.177   5.977  19.095  0.00  0.00    +0.000 A 
ATOM     34  H   UNL     1      47.121   4.769  19.103  0.00  0.00    +0.000 HD
ENDBRANCH  21  24
ENDBRANCH  19  20
ENDBRANCH   4  19
TORSDOF 6
ENDMDL
MODEL 9
REMARK VINA RESULT:    -5.814      5.071      6.822
REMARK INTER + INTRA:          -8.645
REMARK INTER:                  -8.440
REMARK INTRA:                  -0.206
REMARK UNBOUND:                -0.792
REMARK  Name = 
REMARK  6 active torsions:
REMARK  status: ('A' for Active; 'I' for Inactive)
REMARK    1  A    between atoms: C_2  and  C_4
REMARK    2  A    between atoms: C_7  and  O_8
REMARK    3  A    between atoms: O_8  and  C_9
REMARK    4  A    between atoms: C_12  and  C_13
REMARK    5  A    between atoms: C_13  and  N_14
REMARK    6  A    between atoms: C_15  and  C_17
REMARK                            x       y       z     vdW  Elec       q    Type
REMARK                         _______ _______ _______ _____ _____    ______ ____
ROOT
ATOM      1  C   UNL     1      52.658   8.535  11.464  0.00  0.00    +0.000 A 
ATOM      2  N   UNL     1      51.402   8.344  11.026  0.00  0.00    +0.000 NA
ATOM      3  C   UNL     1      50.462   8.187  11.981  0.00  0.00    +0.000 A 
ATOM      4  C   UNL     1      50.726   8.213  13.333  0.00  0.00    +0.000 A 
ATOM      5  C   UNL     1      52.054   8.381  13.662  0.00  0.00    +0.000 A 
ATOM      6  N   UNL     1      53.038   8.536  12.755  0.00  0.00    +0.000 NA
ENDROOT
BRANCH   1   7
ATOM      7  O   UNL     1      53.609   8.667  10.462  0.00  0.00    +0.000 OA
BRANCH   7  11
ATOM      8  C   UNL     1      53.539   5.759   7.564  0.00  0.00    +0.000 A 
ATOM      9  C   UNL     1      53.142   7.034   7.183  0.00  0.00    +0.000 A 
ATOM     10  C   UNL     1      53.157   8.048   8.138  0.00  0.00    +0.000 A 
ATOM     11  C   UNL     1      53.599   7.764   9.430  0.00  0.00    +0.000 A 
ATOM     12  C   UNL     1      53.957   6.452   9.722  0.00  0.00    +0.000 A 
ATOM     13  N   UNL     1      53.943   5.434   8.827  0.00  0.00    +0.000 NA
BRANCH   8  15
ATOM     14  N   UNL     1      53.088   3.436   7.028  0.00  0.00    +0.000 N 
ATOM     15  C   UNL     1      53.514   4.647   6.559  0.00  0.00    +0.000 C 
ATOM     16  O   UNL     1      53.846   4.807   5.391  0.00  0.00    +0.000 OA
ATOM     17  H   UNL     1      53.031   2.649   6.400  0.00  0.00    +0.000 HD
ATOM     18  H   UNL     1      52.801   3.347   8.000  0.00  0.00    +0.000 HD
ENDBRANCH   8  15
ENDBRANCH   7  11
ENDBRANCH   1   7
BRANCH   4  19
ATOM     19  C   UNL     1      49.652   8.030  14.356  0.00  0.00    +0.000 C 
BRANCH  19  20
ATOM     20  N   UNL     1      48.351   7.905  13.750  0.00  0.00    +0.000 N 
ATOM     21  C   UNL     1      47.777   6.672  13.555  0.00  0.00    +0.000 C 
ATOM     22  O   UNL     1      48.345   5.640  13.908  0.00  0.00    +0.000 OA
ATOM     23  H   UNL     1      47.765   8.734  13.700  0.00  0.00    +0.000 HD
BRANCH  21  24
ATOM     24  C   UNL     1      46.507   6.638  12.820  0.00  0.00    +0.000 A 
ATOM     25  C   UNL     1      46.129   7.712  12.024  0.00  0.00    +0.000 A 
ATOM     26  S   UNL     1      44.498   7.637  11.521  0.00  0.00    +0.000 S 
ATOM     27  C   UNL     1      44.272   6.143  12.303  0.00  0.00    +0.000 A 
ATOM     28  N   UNL     1      43.048   5.556  12.378  0.00  0.00    +0.000 NA
ATOM     29  C   UNL     1      43.045   4.401  12.958  0.00  0.00    +0.000 A 
ATOM     30  N   UNL     1      44.164   3.757  13.422  0.00  0.00    +0.000 N 
ATOM     31  C   UNL     1      45.423   4.299  13.341  0.00  0.00    +0.000 A 
ATOM     32  O   UNL     1      46.425   3.670  13.665  0.00  0.00    +0.000 OA
ATOM     33  C   UNL     1      45.458   5.650  12.816  0.00  0.00    +0.000 A 
ATOM     34  H   UNL     1      44.105   2.818  13.789  0.00  0.00    +0.000 HD
ENDBRANCH  21  24
ENDBRANCH  19  20
ENDBRANCH   4  19
TORSDOF 6
ENDMDL
