MODEL 1
REMARK VINA RESULT:    -7.152      0.000      0.000
REMARK INTER + INTRA:         -12.390
REMARK INTER:                 -11.124
REMARK INTRA:                  -1.266
REMARK UNBOUND:                -1.266
REMARK  Name = 
REMARK  11 active torsions:
REMARK  status: ('A' for Active; 'I' for Inactive)
REMARK    1  A    between atoms: C_1  and  C_2
REMARK    2  A    between atoms: C_2  and  O_3
REMARK    3  A    between atoms: C_2  and  C_4
REMARK    4  A    between atoms: C_4  and  N_5
REMARK    5  A    between atoms: N_5  and  C_6
REMARK    6  A    between atoms: N_9  and  C_10
REMARK    7  A    between atoms: C_10  and  C_11
REMARK    8  A    between atoms: C_12  and  C_13
REMARK    9  A    between atoms: C_16  and  C_17
REMARK   10  A    between atoms: C_17  and  N_18
REMARK   11  A    between atoms: C_19  and  C_21
REMARK                            x       y       z     vdW  Elec       q    Type
REMARK                         _______ _______ _______ _____ _____    ______ ____
ROOT
ATOM      1  C   UNL     1      48.727   7.059  13.289  0.00  0.00    +0.000 A 
ATOM      2  C   UNL     1      48.702   7.400  11.934  0.00  0.00    +0.000 A 
ATOM      3  C   UNL     1      49.731   8.156  11.385  0.00  0.00    +0.000 A 
ATOM      4  C   UNL     1      50.755   8.594  12.215  0.00  0.00    +0.000 A 
ATOM      5  N   UNL     1      50.813   8.280  13.535  0.00  0.00    +0.000 NA
ATOM      6  C   UNL     1      49.804   7.526  14.035  0.00  0.00    +0.000 A 
ENDROOT
BRANCH   1   8
ATOM      7  C   UNL     1      46.898   5.404  13.250  0.00  0.00    +0.000 C 
ATOM      8  C   UNL     1      47.640   6.304  13.916  0.00  0.00    +0.000 C 
BRANCH   7   9
ATOM      9  C   UNL     1      45.772   4.623  13.854  0.00  0.00    +0.000 C 
BRANCH   9  13
ATOM     10  C   UNL     1      43.720   4.332  10.060  0.00  0.00    +0.000 C 
ATOM     11  C   UNL     1      43.316   5.429  11.057  0.00  0.00    +0.000 C 
ATOM     12  C   UNL     1      44.316   5.631  12.199  0.00  0.00    +0.000 C 
ATOM     13  N   UNL     1      44.707   4.376  12.870  0.00  0.00    +0.000 NA
ATOM     14  C   UNL     1      45.172   3.381  11.893  0.00  0.00    +0.000 C 
ATOM     15  C   UNL     1      44.075   3.081  10.876  0.00  0.00    +0.000 C 
BRANCH  10  16
ATOM     16  N   UNL     1      44.814   4.750   9.155  0.00  0.00    +0.000 NA
ATOM     17  H   UNL     1      44.613   5.670   8.754  0.00  0.00    +0.000 HD
BRANCH  16  18
ATOM     18  C   UNL     1      44.992   3.792   8.047  0.00  0.00    +0.000 C 
BRANCH  18  20
ATOM     19  C   UNL     1      46.733   2.070   7.515  0.00  0.00    +0.000 C 
ATOM     20  C   UNL     1      46.457   3.570   7.625  0.00  0.00    +0.000 C 
BRANCH  20  21
ATOM     21  O   UNL     1      46.717   4.186   6.364  0.00  0.00    +0.000 OA
ATOM     22  H   UNL     1      45.946   4.733   6.136  0.00  0.00    +0.000 HD
ENDBRANCH  20  21
ENDBRANCH  18  20
ENDBRANCH  16  18
ENDBRANCH  10  16
ENDBRANCH   9  13
ENDBRANCH   7   9
ENDBRANCH   1   8
BRANCH   4  23
ATOM     23  C   UNL     1      51.858   9.451  11.648  0.00  0.00    +0.000 C 
BRANCH  23  24
ATOM     24  N   UNL     1      52.193   9.085  10.293  0.00  0.00    +0.000 N 
ATOM     25  C   UNL     1      53.404   8.551   9.948  0.00  0.00    +0.000 C 
ATOM     26  O   UNL     1      54.293   8.356  10.771  0.00  0.00    +0.000 OA
ATOM     27  H   UNL     1      51.589   9.474   9.575  0.00  0.00    +0.000 HD
BRANCH  25  28
ATOM     28  C   UNL     1      53.552   8.141   8.546  0.00  0.00    +0.000 A 
ATOM     29  C   UNL     1      53.581   9.102   7.548  0.00  0.00    +0.000 A 
ATOM     30  S   UNL     1      53.799   8.457   5.984  0.00  0.00    +0.000 S 
ATOM     31  C   UNL     1      53.814   6.866   6.582  0.00  0.00    +0.000 A 
ATOM     32  N   UNL     1      53.938   5.801   5.742  0.00  0.00    +0.000 NA
ATOM     33  C   UNL     1      53.901   4.651   6.329  0.00  0.00    +0.000 A 
ATOM     34  N   UNL     1      53.766   4.471   7.678  0.00  0.00    +0.000 N 
ATOM     35  C   UNL     1      53.697   5.511   8.571  0.00  0.00    +0.000 A 
ATOM     36  O   UNL     1      53.682   5.313   9.782  0.00  0.00    +0.000 OA
ATOM     37  C   UNL     1      53.690   6.827   7.961  0.00  0.00    +0.000 A 
ATOM     38  H   UNL     1      53.774   3.542   8.082  0.00  0.00    +0.000 HD
ENDBRANCH  25  28
ENDBRANCH  23  24
ENDBRANCH   4  23
TORSDOF 10
ENDMDL
MODEL 2
REMARK VINA RESULT:    -6.930      7.991     11.346
REMARK INTER + INTRA:         -12.044
REMARK INTER:                 -10.962
REMARK INTRA:                  -1.082
REMARK UNBOUND:                -1.266
REMARK  Name = 
REMARK  11 active torsions:
REMARK  status: ('A' for Active; 'I' for Inactive)
REMARK    1  A    between atoms: C_1  and  C_2
REMARK    2  A    between atoms: C_2  and  O_3
REMARK    3  A    between atoms: C_2  and  C_4
REMARK    4  A    between atoms: C_4  and  N_5
REMARK    5  A    between atoms: N_5  and  C_6
REMARK    6  A    between atoms: N_9  and  C_10
REMARK    7  A    between atoms: C_10  and  C_11
REMARK    8  A    between atoms: C_12  and  C_13
REMARK    9  A    between atoms: C_16  and  C_17
REMARK   10  A    between atoms: C_17  and  N_18
REMARK   11  A    between atoms: C_19  and  C_21
REMARK                            x       y       z     vdW  Elec       q    Type
REMARK                         _______ _______ _______ _____ _____    ______ ____
ROOT
ATOM      1  C   UNL     1      51.300   3.195  17.666  0.00  0.00    +0.000 A 
ATOM      2  C   UNL     1      50.631   2.090  17.134  0.00  0.00    +0.000 A 
ATOM      3  C   UNL     1      49.272   2.167  16.851  0.00  0.00    +0.000 A 
ATOM      4  C   UNL     1      48.593   3.342  17.144  0.00  0.00    +0.000 A 
ATOM      5  N   UNL     1      49.211   4.436  17.660  0.00  0.00    +0.000 NA
ATOM      6  C   UNL     1      50.541   4.336  17.906  0.00  0.00    +0.000 A 
ENDROOT
BRANCH   1   8
ATOM      7  C   UNL     1      53.492   2.068  17.781  0.00  0.00    +0.000 C 
ATOM      8  C   UNL     1      52.721   3.142  18.020  0.00  0.00    +0.000 C 
BRANCH   7   9
ATOM      9  C   UNL     1      54.942   1.973  18.140  0.00  0.00    +0.000 C 
BRANCH   9  13
ATOM     10  C   UNL     1      54.870  -2.335  18.502  0.00  0.00    +0.000 C 
ATOM     11  C   UNL     1      55.618  -1.499  19.553  0.00  0.00    +0.000 C 
ATOM     12  C   UNL     1      55.299  -0.002  19.499  0.00  0.00    +0.000 C 
ATOM     13  N   UNL     1      55.400   0.575  18.144  0.00  0.00    +0.000 NA
ATOM     14  C   UNL     1      54.601  -0.199  17.184  0.00  0.00    +0.000 C 
ATOM     15  C   UNL     1      55.073  -1.649  17.143  0.00  0.00    +0.000 C 
BRANCH  10  16
ATOM     16  N   UNL     1      53.440  -2.531  18.832  0.00  0.00    +0.000 NA
ATOM     17  H   UNL     1      53.047  -1.675  19.232  0.00  0.00    +0.000 HD
BRANCH  16  18
ATOM     18  C   UNL     1      53.257  -3.624  19.806  0.00  0.00    +0.000 C 
BRANCH  18  20
ATOM     19  C   UNL     1      51.920  -5.721  20.113  0.00  0.00    +0.000 C 
ATOM     20  C   UNL     1      52.879  -4.980  19.180  0.00  0.00    +0.000 C 
BRANCH  20  21
ATOM     21  O   UNL     1      52.247  -4.791  17.914  0.00  0.00    +0.000 OA
ATOM     22  H   UNL     1      51.684  -4.001  17.978  0.00  0.00    +0.000 HD
ENDBRANCH  20  21
ENDBRANCH  18  20
ENDBRANCH  16  18
ENDBRANCH  10  16
ENDBRANCH   9  13
ENDBRANCH   7   9
ENDBRANCH   1   8
BRANCH   4  23
ATOM     23  C   UNL     1      47.110   3.431  16.885  0.00  0.00    +0.000 C 
BRANCH  23  24
ATOM     24  N   UNL     1      46.790   4.407  15.873  0.00  0.00    +0.000 N 
ATOM     25  C   UNL     1      46.832   4.127  14.535  0.00  0.00    +0.000 C 
ATOM     26  O   UNL     1      47.156   3.025  14.105  0.00  0.00    +0.000 OA
ATOM     27  H   UNL     1      46.779   5.373  16.187  0.00  0.00    +0.000 HD
BRANCH  25  28
ATOM     28  C   UNL     1      46.382   5.199  13.638  0.00  0.00    +0.000 A 
ATOM     29  C   UNL     1      47.209   6.284  13.394  0.00  0.00    +0.000 A 
ATOM     30  S   UNL     1      46.550   7.413  12.298  0.00  0.00    +0.000 S 
ATOM     31  C   UNL     1      45.114   6.514  12.150  0.00  0.00    +0.000 A 
ATOM     32  N   UNL     1      44.090   6.952  11.367  0.00  0.00    +0.000 NA
ATOM     33  C   UNL     1      43.050   6.186  11.372  0.00  0.00    +0.000 A 
ATOM     34  N   UNL     1      42.947   5.019  12.077  0.00  0.00    +0.000 N 
ATOM     35  C   UNL     1      43.972   4.506  12.833  0.00  0.00    +0.000 A 
ATOM     36  O   UNL     1      43.881   3.406  13.368  0.00  0.00    +0.000 OA
ATOM     37  C   UNL     1      45.150   5.349  12.897  0.00  0.00    +0.000 A 
ATOM     38  H   UNL     1      42.113   4.447  12.016  0.00  0.00    +0.000 HD
ENDBRANCH  25  28
ENDBRANCH  23  24
ENDBRANCH   4  23
TORSDOF 10
ENDMDL
MODEL 3
REMARK VINA RESULT:    -6.903      5.349      8.847
REMARK INTER + INTRA:         -12.003
REMARK INTER:                 -10.522
REMARK INTRA:                  -1.482
REMARK UNBOUND:                -1.266
REMARK  Name = 
REMARK  11 active torsions:
REMARK  status: ('A' for Active; 'I' for Inactive)
REMARK    1  A    between atoms: C_1  and  C_2
REMARK    2  A    between atoms: C_2  and  O_3
REMARK    3  A    between atoms: C_2  and  C_4
REMARK    4  A    between atoms: C_4  and  N_5
REMARK    5  A    between atoms: N_5  and  C_6
REMARK    6  A    between atoms: N_9  and  C_10
REMARK    7  A    between atoms: C_10  and  C_11
REMARK    8  A    between atoms: C_12  and  C_13
REMARK    9  A    between atoms: C_16  and  C_17
REMARK   10  A    between atoms: C_17  and  N_18
REMARK   11  A    between atoms: C_19  and  C_21
REMARK                            x       y       z     vdW  Elec       q    Type
REMARK                         _______ _______ _______ _____ _____    ______ ____
ROOT
ATOM      1  C   UNL     1      49.024   8.391  15.858  0.00  0.00    +0.000 A 
ATOM      2  C   UNL     1      49.187   7.134  15.270  0.00  0.00    +0.000 A 
ATOM      3  C   UNL     1      48.772   6.917  13.961  0.00  0.00    +0.000 A 
ATOM      4  C   UNL     1      48.162   7.956  13.271  0.00  0.00    +0.000 A 
ATOM      5  N   UNL     1      47.990   9.191  13.810  0.00  0.00    +0.000 NA
ATOM      6  C   UNL     1      48.422   9.376  15.082  0.00  0.00    +0.000 A 
ENDROOT
BRANCH   1   8
ATOM      7  C   UNL     1      48.510   8.736  18.246  0.00  0.00    +0.000 C 
ATOM      8  C   UNL     1      49.405   8.649  17.249  0.00  0.00    +0.000 C 
BRANCH   7   9
ATOM      9  C   UNL     1      48.861   9.010  19.675  0.00  0.00    +0.000 C 
BRANCH   9  13
ATOM     10  C   UNL     1      49.088   4.810  20.677  0.00  0.00    +0.000 C 
ATOM     11  C   UNL     1      47.739   5.540  20.772  0.00  0.00    +0.000 C 
ATOM     12  C   UNL     1      47.724   6.910  20.090  0.00  0.00    +0.000 C 
ATOM     13  N   UNL     1      48.859   7.773  20.472  0.00  0.00    +0.000 NA
ATOM     14  C   UNL     1      50.136   7.073  20.283  0.00  0.00    +0.000 C 
ATOM     15  C   UNL     1      50.175   5.800  21.122  0.00  0.00    +0.000 C 
BRANCH  10  16
ATOM     16  N   UNL     1      49.347   4.249  19.331  0.00  0.00    +0.000 NA
ATOM     17  H   UNL     1      49.333   4.992  18.627  0.00  0.00    +0.000 HD
BRANCH  16  18
ATOM     18  C   UNL     1      48.333   3.243  18.963  0.00  0.00    +0.000 C 
BRANCH  18  20
ATOM     19  C   UNL     1      48.592   2.523  16.577  0.00  0.00    +0.000 C 
ATOM     20  C   UNL     1      47.775   3.392  17.535  0.00  0.00    +0.000 C 
BRANCH  20  21
ATOM     21  O   UNL     1      46.408   2.985  17.483  0.00  0.00    +0.000 OA
ATOM     22  H   UNL     1      46.383   2.016  17.561  0.00  0.00    +0.000 HD
ENDBRANCH  20  21
ENDBRANCH  18  20
ENDBRANCH  16  18
ENDBRANCH  10  16
ENDBRANCH   9  13
ENDBRANCH   7   9
ENDBRANCH   1   8
BRANCH   4  23
ATOM     23  C   UNL     1      47.666   7.729  11.866  0.00  0.00    +0.000 C 
BRANCH  23  24
ATOM     24  N   UNL     1      46.932   6.494  11.738  0.00  0.00    +0.000 N 
ATOM     25  C   UNL     1      45.573   6.423  11.879  0.00  0.00    +0.000 C 
ATOM     26  O   UNL     1      44.888   7.409  12.134  0.00  0.00    +0.000 OA
ATOM     27  H   UNL     1      47.490   5.647  11.791  0.00  0.00    +0.000 HD
BRANCH  25  28
ATOM     28  C   UNL     1      44.965   5.112  11.622  0.00  0.00    +0.000 A 
ATOM     29  C   UNL     1      44.264   4.469  12.630  0.00  0.00    +0.000 A 
ATOM     30  S   UNL     1      43.590   2.977  12.150  0.00  0.00    +0.000 S 
ATOM     31  C   UNL     1      44.254   3.117  10.590  0.00  0.00    +0.000 A 
ATOM     32  N   UNL     1      44.077   2.136   9.663  0.00  0.00    +0.000 NA
ATOM     33  C   UNL     1      44.663   2.359   8.533  0.00  0.00    +0.000 A 
ATOM     34  N   UNL     1      45.394   3.478   8.244  0.00  0.00    +0.000 N 
ATOM     35  C   UNL     1      45.551   4.520   9.124  0.00  0.00    +0.000 A 
ATOM     36  O   UNL     1      46.126   5.552   8.793  0.00  0.00    +0.000 OA
ATOM     37  C   UNL     1      44.950   4.302  10.425  0.00  0.00    +0.000 A 
ATOM     38  H   UNL     1      45.804   3.608   7.327  0.00  0.00    +0.000 HD
ENDBRANCH  25  28
ENDBRANCH  23  24
ENDBRANCH   4  23
TORSDOF 10
ENDMDL
MODEL 4
REMARK VINA RESULT:    -6.571      4.959      9.167
REMARK INTER + INTRA:         -11.487
REMARK INTER:                  -9.860
REMARK INTRA:                  -1.627
REMARK UNBOUND:                -1.266
REMARK  Name = 
REMARK  11 active torsions:
REMARK  status: ('A' for Active; 'I' for Inactive)
REMARK    1  A    between atoms: C_1  and  C_2
REMARK    2  A    between atoms: C_2  and  O_3
REMARK    3  A    between atoms: C_2  and  C_4
REMARK    4  A    between atoms: C_4  and  N_5
REMARK    5  A    between atoms: N_5  and  C_6
REMARK    6  A    between atoms: N_9  and  C_10
REMARK    7  A    between atoms: C_10  and  C_11
REMARK    8  A    between atoms: C_12  and  C_13
REMARK    9  A    between atoms: C_16  and  C_17
REMARK   10  A    between atoms: C_17  and  N_18
REMARK   11  A    between atoms: C_19  and  C_21
REMARK                            x       y       z     vdW  Elec       q    Type
REMARK                         _______ _______ _______ _____ _____    ______ ____
ROOT
ATOM      1  C   UNL     1      50.668   7.680  14.757  0.00  0.00    +0.000 A 
ATOM      2  C   UNL     1      49.471   7.011  15.027  0.00  0.00    +0.000 A 
ATOM      3  C   UNL     1      48.426   7.052  14.111  0.00  0.00    +0.000 A 
ATOM      4  C   UNL     1      48.583   7.798  12.951  0.00  0.00    +0.000 A 
ATOM      5  N   UNL     1      49.732   8.459  12.654  0.00  0.00    +0.000 NA
ATOM      6  C   UNL     1      50.739   8.383  13.559  0.00  0.00    +0.000 A 
ENDROOT
BRANCH   1   8
ATOM      7  C   UNL     1      51.937   6.762  16.664  0.00  0.00    +0.000 C 
ATOM      8  C   UNL     1      51.775   7.699  15.716  0.00  0.00    +0.000 C 
BRANCH   7   9
ATOM      9  C   UNL     1      53.048   6.756  17.667  0.00  0.00    +0.000 C 
BRANCH   9  13
ATOM     10  C   UNL     1      50.654   5.036  20.830  0.00  0.00    +0.000 C 
ATOM     11  C   UNL     1      50.524   6.534  20.510  0.00  0.00    +0.000 C 
ATOM     12  C   UNL     1      51.165   6.944  19.182  0.00  0.00    +0.000 C 
ATOM     13  N   UNL     1      52.547   6.452  19.016  0.00  0.00    +0.000 NA
ATOM     14  C   UNL     1      52.617   5.001  19.242  0.00  0.00    +0.000 C 
ATOM     15  C   UNL     1      52.132   4.657  20.647  0.00  0.00    +0.000 C 
BRANCH  10  16
ATOM     16  N   UNL     1      49.746   4.192  20.021  0.00  0.00    +0.000 NA
ATOM     17  H   UNL     1      50.171   3.981  19.114  0.00  0.00    +0.000 HD
BRANCH  16  18
ATOM     18  C   UNL     1      48.455   4.865  19.784  0.00  0.00    +0.000 C 
BRANCH  18  20
ATOM     19  C   UNL     1      49.051   4.169  17.451  0.00  0.00    +0.000 C 
ATOM     20  C   UNL     1      48.018   4.904  18.307  0.00  0.00    +0.000 C 
BRANCH  20  21
ATOM     21  O   UNL     1      46.745   4.280  18.141  0.00  0.00    +0.000 OA
ATOM     22  H   UNL     1      46.484   3.906  19.000  0.00  0.00    +0.000 HD
ENDBRANCH  20  21
ENDBRANCH  18  20
ENDBRANCH  16  18
ENDBRANCH  10  16
ENDBRANCH   9  13
ENDBRANCH   7   9
ENDBRANCH   1   8
BRANCH   4  23
ATOM     23  C   UNL     1      47.446   7.890  11.965  0.00  0.00    +0.000 C 
BRANCH  23  24
ATOM     24  N   UNL     1      46.734   6.643  11.833  0.00  0.00    +0.000 N 
ATOM     25  C   UNL     1      45.378   6.578  11.667  0.00  0.00    +0.000 C 
ATOM     26  O   UNL     1      44.674   7.582  11.628  0.00  0.00    +0.000 OA
ATOM     27  H   UNL     1      47.248   5.815  12.121  0.00  0.00    +0.000 HD
BRANCH  25  28
ATOM     28  C   UNL     1      44.818   5.239  11.449  0.00  0.00    +0.000 A 
ATOM     29  C   UNL     1      44.052   4.644  12.440  0.00  0.00    +0.000 A 
ATOM     30  S   UNL     1      43.447   3.109  12.007  0.00  0.00    +0.000 S 
ATOM     31  C   UNL     1      44.228   3.166  10.498  0.00  0.00    +0.000 A 
ATOM     32  N   UNL     1      44.144   2.124   9.625  0.00  0.00    +0.000 NA
ATOM     33  C   UNL     1      44.812   2.289   8.532  0.00  0.00    +0.000 A 
ATOM     34  N   UNL     1      45.542   3.405   8.228  0.00  0.00    +0.000 N 
ATOM     35  C   UNL     1      45.610   4.504   9.047  0.00  0.00    +0.000 A 
ATOM     36  O   UNL     1      46.189   5.527   8.696  0.00  0.00    +0.000 OA
ATOM     37  C   UNL     1      44.913   4.355  10.310  0.00  0.00    +0.000 A 
ATOM     38  H   UNL     1      46.021   3.486   7.338  0.00  0.00    +0.000 HD
ENDBRANCH  25  28
ENDBRANCH  23  24
ENDBRANCH   4  23
TORSDOF 10
ENDMDL
MODEL 5
REMARK VINA RESULT:    -6.272      3.152      8.799
REMARK INTER + INTRA:         -11.022
REMARK INTER:                  -9.871
REMARK INTRA:                  -1.150
REMARK UNBOUND:                -1.266
REMARK  Name = 
REMARK  11 active torsions:
REMARK  status: ('A' for Active; 'I' for Inactive)
REMARK    1  A    between atoms: C_1  and  C_2
REMARK    2  A    between atoms: C_2  and  O_3
REMARK    3  A    between atoms: C_2  and  C_4
REMARK    4  A    between atoms: C_4  and  N_5
REMARK    5  A    between atoms: N_5  and  C_6
REMARK    6  A    between atoms: N_9  and  C_10
REMARK    7  A    between atoms: C_10  and  C_11
REMARK    8  A    between atoms: C_12  and  C_13
REMARK    9  A    between atoms: C_16  and  C_17
REMARK   10  A    between atoms: C_17  and  N_18
REMARK   11  A    between atoms: C_19  and  C_21
REMARK                            x       y       z     vdW  Elec       q    Type
REMARK                         _______ _______ _______ _____ _____    ______ ____
ROOT
ATOM      1  C   UNL     1      50.064   8.765  11.732  0.00  0.00    +0.000 A 
ATOM      2  C   UNL     1      49.353   9.769  12.394  0.00  0.00    +0.000 A 
ATOM      3  C   UNL     1      48.068   9.520  12.863  0.00  0.00    +0.000 A 
ATOM      4  C   UNL     1      47.498   8.276  12.627  0.00  0.00    +0.000 A 
ATOM      5  N   UNL     1      48.161   7.276  11.990  0.00  0.00    +0.000 NA
ATOM      6  C   UNL     1      49.419   7.544  11.561  0.00  0.00    +0.000 A 
ENDROOT
BRANCH   1   8
ATOM      7  C   UNL     1      52.213   8.005  10.787  0.00  0.00    +0.000 C 
ATOM      8  C   UNL     1      51.402   9.000  11.182  0.00  0.00    +0.000 C 
BRANCH   7   9
ATOM      9  C   UNL     1      53.589   8.206  10.233  0.00  0.00    +0.000 C 
BRANCH   9  13
ATOM     10  C   UNL     1      54.200   7.045   6.113  0.00  0.00    +0.000 C 
ATOM     11  C   UNL     1      55.010   8.213   6.699  0.00  0.00    +0.000 C 
ATOM     12  C   UNL     1      54.943   8.311   8.226  0.00  0.00    +0.000 C 
ATOM     13  N   UNL     1      53.570   8.252   8.762  0.00  0.00    +0.000 NA
ATOM     14  C   UNL     1      52.857   7.074   8.250  0.00  0.00    +0.000 C 
ATOM     15  C   UNL     1      52.794   7.111   6.726  0.00  0.00    +0.000 C 
BRANCH  10  16
ATOM     16  N   UNL     1      54.850   5.731   6.321  0.00  0.00    +0.000 NA
ATOM     17  H   UNL     1      55.788   5.729   5.912  0.00  0.00    +0.000 HD
BRANCH  16  18
ATOM     18  C   UNL     1      54.072   4.642   5.702  0.00  0.00    +0.000 C 
BRANCH  18  20
ATOM     19  C   UNL     1      55.196   3.404   7.569  0.00  0.00    +0.000 C 
ATOM     20  C   UNL     1      54.257   3.266   6.369  0.00  0.00    +0.000 C 
BRANCH  20  21
ATOM     21  O   UNL     1      53.004   2.749   6.815  0.00  0.00    +0.000 OA
ATOM     22  H   UNL     1      52.370   3.486   6.837  0.00  0.00    +0.000 HD
ENDBRANCH  20  21
ENDBRANCH  18  20
ENDBRANCH  16  18
ENDBRANCH  10  16
ENDBRANCH   9  13
ENDBRANCH   7   9
ENDBRANCH   1   8
BRANCH   4  23
ATOM     23  C   UNL     1      46.090   8.001  13.090  0.00  0.00    +0.000 C 
BRANCH  23  24
ATOM     24  N   UNL     1      45.646   6.677  12.729  0.00  0.00    +0.000 N 
ATOM     25  C   UNL     1      44.656   6.452  11.812  0.00  0.00    +0.000 C 
ATOM     26  O   UNL     1      44.072   7.367  11.241  0.00  0.00    +0.000 OA
ATOM     27  H   UNL     1      45.921   5.936  13.366  0.00  0.00    +0.000 HD
BRANCH  25  28
ATOM     28  C   UNL     1      44.388   5.047  11.483  0.00  0.00    +0.000 A 
ATOM     29  C   UNL     1      43.659   4.261  12.362  0.00  0.00    +0.000 A 
ATOM     30  S   UNL     1      43.406   2.668  11.806  0.00  0.00    +0.000 S 
ATOM     31  C   UNL     1      44.305   2.960  10.392  0.00  0.00    +0.000 A 
ATOM     32  N   UNL     1      44.508   1.975   9.475  0.00  0.00    +0.000 NA
ATOM     33  C   UNL     1      45.235   2.327   8.467  0.00  0.00    +0.000 A 
ATOM     34  N   UNL     1      45.762   3.576   8.287  0.00  0.00    +0.000 N 
ATOM     35  C   UNL     1      45.537   4.617   9.152  0.00  0.00    +0.000 A 
ATOM     36  O   UNL     1      45.939   5.750   8.905  0.00  0.00    +0.000 OA
ATOM     37  C   UNL     1      44.762   4.265  10.326  0.00  0.00    +0.000 A 
ATOM     38  H   UNL     1      46.300   3.798   7.458  0.00  0.00    +0.000 HD
ENDBRANCH  25  28
ENDBRANCH  23  24
ENDBRANCH   4  23
TORSDOF 10
ENDMDL
MODEL 6
REMARK VINA RESULT:    -5.693      1.786      2.618
REMARK INTER + INTRA:         -10.121
REMARK INTER:                  -9.009
REMARK INTRA:                  -1.112
REMARK UNBOUND:                -1.266
REMARK  Name = 
REMARK  11 active torsions:
REMARK  status: ('A' for Active; 'I' for Inactive)
REMARK    1  A    between atoms: C_1  and  C_2
REMARK    2  A    between atoms: C_2  and  O_3
REMARK    3  A    between atoms: C_2  and  C_4
REMARK    4  A    between atoms: C_4  and  N_5
REMARK    5  A    between atoms: N_5  and  C_6
REMARK    6  A    between atoms: N_9  and  C_10
REMARK    7  A    between atoms: C_10  and  C_11
REMARK    8  A    between atoms: C_12  and  C_13
REMARK    9  A    between atoms: C_16  and  C_17
REMARK   10  A    between atoms: C_17  and  N_18
REMARK   11  A    between atoms: C_19  and  C_21
REMARK                            x       y       z     vdW  Elec       q    Type
REMARK                         _______ _______ _______ _____ _____    ______ ____
ROOT
ATOM      1  C   UNL     1      50.970   8.039  12.303  0.00  0.00    +0.000 A 
ATOM      2  C   UNL     1      50.881   7.575  10.988  0.00  0.00    +0.000 A 
ATOM      3  C   UNL     1      51.834   7.951  10.049  0.00  0.00    +0.000 A 
ATOM      4  C   UNL     1      52.846   8.820  10.434  0.00  0.00    +0.000 A 
ATOM      5  N   UNL     1      52.966   9.289  11.704  0.00  0.00    +0.000 NA
ATOM      6  C   UNL     1      52.031   8.889  12.600  0.00  0.00    +0.000 A 
ENDROOT
BRANCH   1   8
ATOM      7  C   UNL     1      48.861   6.987  13.031  0.00  0.00    +0.000 C 
ATOM      8  C   UNL     1      49.961   7.704  13.311  0.00  0.00    +0.000 C 
BRANCH   7   9
ATOM      9  C   UNL     1      47.803   6.637  14.031  0.00  0.00    +0.000 C 
BRANCH   9  13
ATOM     10  C   UNL     1      44.479   5.974  11.346  0.00  0.00    +0.000 C 
ATOM     11  C   UNL     1      45.179   7.342  11.362  0.00  0.00    +0.000 C 
ATOM     12  C   UNL     1      46.520   7.346  12.101  0.00  0.00    +0.000 C 
ATOM     13  N   UNL     1      46.459   6.730  13.440  0.00  0.00    +0.000 NA
ATOM     14  C   UNL     1      45.866   5.387  13.373  0.00  0.00    +0.000 C 
ATOM     15  C   UNL     1      44.457   5.455  12.792  0.00  0.00    +0.000 C 
BRANCH  10  16
ATOM     16  N   UNL     1      45.107   5.015  10.409  0.00  0.00    +0.000 NA
ATOM     17  H   UNL     1      45.615   5.516   9.675  0.00  0.00    +0.000 HD
BRANCH  16  18
ATOM     18  C   UNL     1      44.099   4.151   9.767  0.00  0.00    +0.000 C 
BRANCH  18  20
ATOM     19  C   UNL     1      45.759   3.678   7.951  0.00  0.00    +0.000 C 
ATOM     20  C   UNL     1      44.683   3.063   8.847  0.00  0.00    +0.000 C 
BRANCH  20  21
ATOM     21  O   UNL     1      45.262   2.010   9.616  0.00  0.00    +0.000 OA
ATOM     22  H   UNL     1      44.666   1.823  10.361  0.00  0.00    +0.000 HD
ENDBRANCH  20  21
ENDBRANCH  18  20
ENDBRANCH  16  18
ENDBRANCH  10  16
ENDBRANCH   9  13
ENDBRANCH   7   9
ENDBRANCH   1   8
BRANCH   4  23
ATOM     23  C   UNL     1      53.866   9.273   9.420  0.00  0.00    +0.000 C 
BRANCH  23  24
ATOM     24  N   UNL     1      54.144   8.258   8.434  0.00  0.00    +0.000 N 
ATOM     25  C   UNL     1      53.594   8.274   7.181  0.00  0.00    +0.000 C 
ATOM     26  O   UNL     1      52.818   9.151   6.816  0.00  0.00    +0.000 OA
ATOM     27  H   UNL     1      54.561   7.405   8.792  0.00  0.00    +0.000 HD
BRANCH  25  28
ATOM     28  C   UNL     1      54.055   7.225   6.262  0.00  0.00    +0.000 A 
ATOM     29  C   UNL     1      54.508   7.569   4.998  0.00  0.00    +0.000 A 
ATOM     30  S   UNL     1      55.043   6.235   4.078  0.00  0.00    +0.000 S 
ATOM     31  C   UNL     1      54.642   5.147   5.321  0.00  0.00    +0.000 A 
ATOM     32  N   UNL     1      54.823   3.806   5.165  0.00  0.00    +0.000 NA
ATOM     33  C   UNL     1      54.445   3.096   6.175  0.00  0.00    +0.000 A 
ATOM     34  N   UNL     1      53.919   3.605   7.330  0.00  0.00    +0.000 N 
ATOM     35  C   UNL     1      53.772   4.950   7.559  0.00  0.00    +0.000 A 
ATOM     36  O   UNL     1      53.393   5.375   8.646  0.00  0.00    +0.000 OA
ATOM     37  C   UNL     1      54.140   5.793   6.438  0.00  0.00    +0.000 A 
ATOM     38  H   UNL     1      53.669   2.995   8.100  0.00  0.00    +0.000 HD
ENDBRANCH  25  28
ENDBRANCH  23  24
ENDBRANCH   4  23
TORSDOF 10
ENDMDL
MODEL 7
REMARK VINA RESULT:    -5.382      2.582      4.157
REMARK INTER + INTRA:          -9.638
REMARK INTER:                  -8.380
REMARK INTRA:                  -1.258
REMARK UNBOUND:                -1.266
REMARK  Name = 
REMARK  11 active torsions:
REMARK  status: ('A' for Active; 'I' for Inactive)
REMARK    1  A    between atoms: C_1  and  C_2
REMARK    2  A    between atoms: C_2  and  O_3
REMARK    3  A    between atoms: C_2  and  C_4
REMARK    4  A    between atoms: C_4  and  N_5
REMARK    5  A    between atoms: N_5  and  C_6
REMARK    6  A    between atoms: N_9  and  C_10
REMARK    7  A    between atoms: C_10  and  C_11
REMARK    8  A    between atoms: C_12  and  C_13
REMARK    9  A    between atoms: C_16  and  C_17
REMARK   10  A    between atoms: C_17  and  N_18
REMARK   11  A    between atoms: C_19  and  C_21
REMARK                            x       y       z     vdW  Elec       q    Type
REMARK                         _______ _______ _______ _____ _____    ______ ____
ROOT
ATOM      1  C   UNL     1      51.753   8.807  10.929  0.00  0.00    +0.000 A 
ATOM      2  C   UNL     1      51.987   9.977  10.203  0.00  0.00    +0.000 A 
ATOM      3  C   UNL     1      53.015  10.026   9.269  0.00  0.00    +0.000 A 
ATOM      4  C   UNL     1      53.823   8.909   9.104  0.00  0.00    +0.000 A 
ATOM      5  N   UNL     1      53.624   7.753   9.791  0.00  0.00    +0.000 NA
ATOM      6  C   UNL     1      52.600   7.732  10.680  0.00  0.00    +0.000 A 
ENDROOT
BRANCH   1   8
ATOM      7  C   UNL     1      49.404   8.619  11.659  0.00  0.00    +0.000 C 
ATOM      8  C   UNL     1      50.710   8.729  11.954  0.00  0.00    +0.000 C 
BRANCH   7   9
ATOM      9  C   UNL     1      48.310   8.549  12.678  0.00  0.00    +0.000 C 
BRANCH   9  13
ATOM     10  C   UNL     1      44.816   6.097  11.986  0.00  0.00    +0.000 C 
ATOM     11  C   UNL     1      45.962   6.090  10.962  0.00  0.00    +0.000 C 
ATOM     12  C   UNL     1      47.256   6.730  11.471  0.00  0.00    +0.000 C 
ATOM     13  N   UNL     1      47.057   8.058  12.083  0.00  0.00    +0.000 NA
ATOM     14  C   UNL     1      46.017   8.007  13.120  0.00  0.00    +0.000 C 
ATOM     15  C   UNL     1      44.695   7.531  12.525  0.00  0.00    +0.000 C 
BRANCH  10  16
ATOM     16  N   UNL     1      44.998   5.098  13.063  0.00  0.00    +0.000 NA
ATOM     17  H   UNL     1      45.830   5.320  13.617  0.00  0.00    +0.000 HD
BRANCH  16  18
ATOM     18  C   UNL     1      45.156   3.738  12.514  0.00  0.00    +0.000 C 
BRANCH  18  20
ATOM     19  C   UNL     1      44.170   2.812  10.405  0.00  0.00    +0.000 C 
ATOM     20  C   UNL     1      43.883   3.160  11.866  0.00  0.00    +0.000 C 
BRANCH  20  21
ATOM     21  O   UNL     1      43.458   1.983  12.552  0.00  0.00    +0.000 OA
ATOM     22  H   UNL     1      44.210   1.367  12.578  0.00  0.00    +0.000 HD
ENDBRANCH  20  21
ENDBRANCH  18  20
ENDBRANCH  16  18
ENDBRANCH  10  16
ENDBRANCH   9  13
ENDBRANCH   7   9
ENDBRANCH   1   8
BRANCH   4  23
ATOM     23  C   UNL     1      54.971   8.955   8.128  0.00  0.00    +0.000 C 
BRANCH  23  24
ATOM     24  N   UNL     1      55.068   7.750   7.341  0.00  0.00    +0.000 N 
ATOM     25  C   UNL     1      54.341   7.551   6.199  0.00  0.00    +0.000 C 
ATOM     26  O   UNL     1      53.548   8.384   5.773  0.00  0.00    +0.000 OA
ATOM     27  H   UNL     1      55.505   6.960   7.806  0.00  0.00    +0.000 HD
BRANCH  25  28
ATOM     28  C   UNL     1      54.628   6.315   5.460  0.00  0.00    +0.000 A 
ATOM     29  C   UNL     1      55.076   6.385   4.150  0.00  0.00    +0.000 A 
ATOM     30  S   UNL     1      55.400   4.861   3.456  0.00  0.00    +0.000 S 
ATOM     31  C   UNL     1      54.906   4.051   4.868  0.00  0.00    +0.000 A 
ATOM     32  N   UNL     1      54.905   2.691   4.933  0.00  0.00    +0.000 NA
ATOM     33  C   UNL     1      54.475   2.211   6.052  0.00  0.00    +0.000 A 
ATOM     34  N   UNL     1      54.062   2.967   7.114  0.00  0.00    +0.000 N 
ATOM     35  C   UNL     1      54.099   4.339   7.119  0.00  0.00    +0.000 A 
ATOM     36  O   UNL     1      53.819   4.981   8.126  0.00  0.00    +0.000 OA
ATOM     37  C   UNL     1      54.533   4.932   5.869  0.00  0.00    +0.000 A 
ATOM     38  H   UNL     1      53.763   2.529   7.978  0.00  0.00    +0.000 HD
ENDBRANCH  25  28
ENDBRANCH  23  24
ENDBRANCH   4  23
TORSDOF 10
ENDMDL
MODEL 8
REMARK VINA RESULT:    -5.136     13.749     15.111
REMARK INTER + INTRA:          -9.255
REMARK INTER:                  -7.067
REMARK INTRA:                  -2.187
REMARK UNBOUND:                -1.266
REMARK  Name = 
REMARK  11 active torsions:
REMARK  status: ('A' for Active; 'I' for Inactive)
REMARK    1  A    between atoms: C_1  and  C_2
REMARK    2  A    between atoms: C_2  and  O_3
REMARK    3  A    between atoms: C_2  and  C_4
REMARK    4  A    between atoms: C_4  and  N_5
REMARK    5  A    between atoms: N_5  and  C_6
REMARK    6  A    between atoms: N_9  and  C_10
REMARK    7  A    between atoms: C_10  and  C_11
REMARK    8  A    between atoms: C_12  and  C_13
REMARK    9  A    between atoms: C_16  and  C_17
REMARK   10  A    between atoms: C_17  and  N_18
REMARK   11  A    between atoms: C_19  and  C_21
REMARK                            x       y       z     vdW  Elec       q    Type
REMARK                         _______ _______ _______ _____ _____    ______ ____
ROOT
ATOM      1  C   UNL     1      40.230  -2.162  17.462  0.00  0.00    +0.000 A 
ATOM      2  C   UNL     1      41.123  -3.234  17.413  0.00  0.00    +0.000 A 
ATOM      3  C   UNL     1      41.470  -3.800  16.192  0.00  0.00    +0.000 A 
ATOM      4  C   UNL     1      40.883  -3.304  15.035  0.00  0.00    +0.000 A 
ATOM      5  N   UNL     1      40.013  -2.261  15.044  0.00  0.00    +0.000 NA
ATOM      6  C   UNL     1      39.710  -1.720  16.249  0.00  0.00    +0.000 A 
ENDROOT
BRANCH   1   8
ATOM      7  C   UNL     1      38.929  -0.550  18.803  0.00  0.00    +0.000 C 
ATOM      8  C   UNL     1      39.803  -1.568  18.731  0.00  0.00    +0.000 C 
BRANCH   7   9
ATOM      9  C   UNL     1      38.480   0.089  20.080  0.00  0.00    +0.000 C 
BRANCH   9  13
ATOM     10  C   UNL     1      36.382   3.379  18.217  0.00  0.00    +0.000 C 
ATOM     11  C   UNL     1      37.919   3.360  18.211  0.00  0.00    +0.000 C 
ATOM     12  C   UNL     1      38.526   2.010  18.602  0.00  0.00    +0.000 C 
ATOM     13  N   UNL     1      37.960   1.445  19.843  0.00  0.00    +0.000 NA
ATOM     14  C   UNL     1      36.493   1.396  19.776  0.00  0.00    +0.000 C 
ATOM     15  C   UNL     1      35.923   2.795  19.561  0.00  0.00    +0.000 C 
BRANCH  10  16
ATOM     16  N   UNL     1      35.792   2.671  17.058  0.00  0.00    +0.000 NA
ATOM     17  H   UNL     1      35.750   1.665  17.240  0.00  0.00    +0.000 HD
BRANCH  16  18
ATOM     18  C   UNL     1      36.585   2.888  15.834  0.00  0.00    +0.000 C 
BRANCH  18  20
ATOM     19  C   UNL     1      36.591   0.385  15.942  0.00  0.00    +0.000 C 
ATOM     20  C   UNL     1      36.993   1.597  15.100  0.00  0.00    +0.000 C 
BRANCH  20  21
ATOM     21  O   UNL     1      36.352   1.516  13.828  0.00  0.00    +0.000 OA
ATOM     22  H   UNL     1      35.587   2.116  13.842  0.00  0.00    +0.000 HD
ENDBRANCH  20  21
ENDBRANCH  18  20
ENDBRANCH  16  18
ENDBRANCH  10  16
ENDBRANCH   9  13
ENDBRANCH   7   9
ENDBRANCH   1   8
BRANCH   4  23
ATOM     23  C   UNL     1      41.214  -3.931  13.704  0.00  0.00    +0.000 C 
BRANCH  23  24
ATOM     24  N   UNL     1      40.197  -3.676  12.713  0.00  0.00    +0.000 N 
ATOM     25  C   UNL     1      40.324  -2.708  11.754  0.00  0.00    +0.000 C 
ATOM     26  O   UNL     1      41.311  -1.984  11.681  0.00  0.00    +0.000 OA
ATOM     27  H   UNL     1      39.284  -4.072  12.913  0.00  0.00    +0.000 HD
BRANCH  25  28
ATOM     28  C   UNL     1      39.246  -2.642  10.759  0.00  0.00    +0.000 A 
ATOM     29  C   UNL     1      39.275  -3.482   9.657  0.00  0.00    +0.000 A 
ATOM     30  S   UNL     1      37.928  -3.303   8.626  0.00  0.00    +0.000 S 
ATOM     31  C   UNL     1      37.284  -2.060   9.591  0.00  0.00    +0.000 A 
ATOM     32  N   UNL     1      36.128  -1.431   9.245  0.00  0.00    +0.000 NA
ATOM     33  C   UNL     1      35.773  -0.486  10.051  0.00  0.00    +0.000 A 
ATOM     34  N   UNL     1      36.461  -0.125  11.177  0.00  0.00    +0.000 N 
ATOM     35  C   UNL     1      37.598  -0.767  11.599  0.00  0.00    +0.000 A 
ATOM     36  O   UNL     1      38.131  -0.484  12.668  0.00  0.00    +0.000 OA
ATOM     37  C   UNL     1      38.066  -1.809  10.706  0.00  0.00    +0.000 A 
ATOM     38  H   UNL     1      36.114   0.606  11.786  0.00  0.00    +0.000 HD
ENDBRANCH  25  28
ENDBRANCH  23  24
ENDBRANCH   4  23
TORSDOF 10
ENDMDL
MODEL 9
REMARK VINA RESULT:    -5.134      2.132      3.133
REMARK INTER + INTRA:          -9.251
REMARK INTER:                  -7.759
REMARK INTRA:                  -1.492
REMARK UNBOUND:                -1.266
REMARK  Name = 
REMARK  11 active torsions:
REMARK  status: ('A' for Active; 'I' for Inactive)
REMARK    1  A    between atoms: C_1  and  C_2
REMARK    2  A    between atoms: C_2  and  O_3
REMARK    3  A    between atoms: C_2  and  C_4
REMARK    4  A    between atoms: C_4  and  N_5
REMARK    5  A    between atoms: N_5  and  C_6
REMARK    6  A    between atoms: N_9  and  C_10
REMARK    7  A    between atoms: C_10  and  C_11
REMARK    8  A    between atoms: C_12  and  C_13
REMARK    9  A    between atoms: C_16  and  C_17
REMARK   10  A    between atoms: C_17  and  N_18
REMARK   11  A    between atoms: C_19  and  C_21
REMARK                            x       y       z     vdW  Elec       q    Type
REMARK                         _______ _______ _______ _____ _____    ______ ____
ROOT
ATOM      1  C   UNL     1      46.588   6.906  12.954  0.00  0.00    +0.000 A 
ATOM      2  C   UNL     1      47.162   6.091  13.932  0.00  0.00    +0.000 A 
ATOM      3  C   UNL     1      48.417   6.396  14.447  0.00  0.00    +0.000 A 
ATOM      4  C   UNL     1      49.097   7.497  13.944  0.00  0.00    +0.000 A 
ATOM      5  N   UNL     1      48.568   8.314  12.996  0.00  0.00    +0.000 NA
ATOM      6  C   UNL     1      47.335   7.999  12.527  0.00  0.00    +0.000 A 
ENDROOT
BRANCH   1   8
ATOM      7  C   UNL     1      44.752   5.364  12.375  0.00  0.00    +0.000 C 
ATOM      8  C   UNL     1      45.289   6.594  12.352  0.00  0.00    +0.000 C 
BRANCH   7   9
ATOM      9  C   UNL     1      43.434   5.005  11.761  0.00  0.00    +0.000 C 
BRANCH   9  13
ATOM     10  C   UNL     1      45.259   2.862   8.479  0.00  0.00    +0.000 C 
ATOM     11  C   UNL     1      44.123   3.857   8.195  0.00  0.00    +0.000 C 
ATOM     12  C   UNL     1      43.792   4.776   9.375  0.00  0.00    +0.000 C 
ATOM     13  N   UNL     1      43.605   4.056  10.650  0.00  0.00    +0.000 NA
ATOM     14  C   UNL     1      44.752   3.182  10.932  0.00  0.00    +0.000 C 
ATOM     15  C   UNL     1      44.934   2.165   9.809  0.00  0.00    +0.000 C 
BRANCH  10  16
ATOM     16  N   UNL     1      46.596   3.498   8.482  0.00  0.00    +0.000 NA
ATOM     17  H   UNL     1      46.539   4.444   8.868  0.00  0.00    +0.000 HD
BRANCH  16  18
ATOM     18  C   UNL     1      47.153   3.586   7.119  0.00  0.00    +0.000 C 
BRANCH  18  20
ATOM     19  C   UNL     1      47.480   2.493   4.888  0.00  0.00    +0.000 C 
ATOM     20  C   UNL     1      47.244   2.239   6.378  0.00  0.00    +0.000 C 
BRANCH  20  21
ATOM     21  O   UNL     1      48.316   1.452   6.893  0.00  0.00    +0.000 OA
ATOM     22  H   UNL     1      48.381   0.646   6.351  0.00  0.00    +0.000 HD
ENDBRANCH  20  21
ENDBRANCH  18  20
ENDBRANCH  16  18
ENDBRANCH  10  16
ENDBRANCH   9  13
ENDBRANCH   7   9
ENDBRANCH   1   8
BRANCH   4  23
ATOM     23  C   UNL     1      50.476   7.821  14.459  0.00  0.00    +0.000 C 
BRANCH  23  24
ATOM     24  N   UNL     1      51.474   7.767  13.419  0.00  0.00    +0.000 N 
ATOM     25  C   UNL     1      52.265   8.835  13.095  0.00  0.00    +0.000 C 
ATOM     26  O   UNL     1      52.170   9.917  13.664  0.00  0.00    +0.000 OA
ATOM     27  H   UNL     1      51.390   6.987  12.774  0.00  0.00    +0.000 HD
BRANCH  25  28
ATOM     28  C   UNL     1      53.300   8.588  12.083  0.00  0.00    +0.000 A 
ATOM     29  C   UNL     1      54.604   8.992  12.320  0.00  0.00    +0.000 A 
ATOM     30  S   UNL     1      55.683   8.590  11.061  0.00  0.00    +0.000 S 
ATOM     31  C   UNL     1      54.434   7.905  10.133  0.00  0.00    +0.000 A 
ATOM     32  N   UNL     1      54.679   7.391   8.897  0.00  0.00    +0.000 NA
ATOM     33  C   UNL     1      53.633   6.933   8.293  0.00  0.00    +0.000 A 
ATOM     34  N   UNL     1      52.370   6.930   8.819  0.00  0.00    +0.000 N 
ATOM     35  C   UNL     1      52.083   7.382  10.082  0.00  0.00    +0.000 A 
ATOM     36  O   UNL     1      50.958   7.268  10.560  0.00  0.00    +0.000 OA
ATOM     37  C   UNL     1      53.215   7.949  10.789  0.00  0.00    +0.000 A 
ATOM     38  H   UNL     1      51.595   6.528   8.305  0.00  0.00    +0.000 HD
ENDBRANCH  25  28
ENDBRANCH  23  24
ENDBRANCH   4  23
TORSDOF 10
ENDMDL
