MODEL 1
REMARK VINA RESULT:    -8.316      0.000      0.000
REMARK INTER + INTRA:         -13.123
REMARK INTER:                 -11.719
REMARK INTRA:                  -1.404
REMARK UNBOUND:                -1.404
REMARK  Name = 
REMARK  8 active torsions:
REMARK  status: ('A' for Active; 'I' for Inactive)
REMARK    1  A    between atoms: C_1  and  O_2
REMARK    2  A    between atoms: O_2  and  C_3
REMARK    3  A    between atoms: C_10  and  C_11
REMARK    4  A    between atoms: N_13  and  C_14
REMARK    5  A    between atoms: C_14  and  C_15
REMARK    6  A    between atoms: C_18  and  N_19
REMARK    7  A    between atoms: N_19  and  C_20
REMARK    8  A    between atoms: C_20  and  C_21
REMARK                            x       y       z     vdW  Elec       q    Type
REMARK                         _______ _______ _______ _____ _____    ______ ____
ROOT
ATOM      1  C   UNL     1      46.786   7.968  13.235  0.00  0.00    +0.000 C 
ENDROOT
BRANCH   1   2
ATOM      2  C   UNL     1      46.064   7.048  12.282  0.00  0.00    +0.000 A 
ATOM      3  C   UNL     1      44.768   6.601  12.558  0.00  0.00    +0.000 A 
ATOM      4  C   UNL     1      44.096   5.748  11.670  0.00  0.00    +0.000 A 
ATOM      5  C   UNL     1      44.703   5.291  10.496  0.00  0.00    +0.000 A 
ATOM      6  C   UNL     1      46.003   5.744  10.227  0.00  0.00    +0.000 A 
ATOM      7  C   UNL     1      46.682   6.599  11.110  0.00  0.00    +0.000 A 
BRANCH   5   8
ATOM      8  N   UNL     1      44.063   4.495   9.537  0.00  0.00    +0.000 N 
ATOM      9  H   UNL     1      44.025   4.969   8.640  0.00  0.00    +0.000 HD
BRANCH   8  10
ATOM     10  C   UNL     1      44.330   3.060   9.459  0.00  0.00    +0.000 C 
BRANCH  10  11
ATOM     11  C   UNL     1      45.610   2.721   8.659  0.00  0.00    +0.000 C 
ATOM     12  C   UNL     1      45.775   3.551   7.371  0.00  0.00    +0.000 C 
ATOM     13  C   UNL     1      47.029   3.158   6.585  0.00  0.00    +0.000 C 
ATOM     14  C   UNL     1      47.053   1.663   6.286  0.00  0.00    +0.000 C 
ATOM     15  C   UNL     1      46.957   0.851   7.571  0.00  0.00    +0.000 C 
ATOM     16  C   UNL     1      45.709   1.214   8.373  0.00  0.00    +0.000 C 
ENDBRANCH  10  11
ENDBRANCH   8  10
ENDBRANCH   5   8
ENDBRANCH   1   2
BRANCH   1  19
ATOM     17  C   UNL     1      48.600   7.018  14.600  0.00  0.00    +0.000 C 
ATOM     18  O   UNL     1      49.453   7.409  13.798  0.00  0.00    +0.000 OA
ATOM     19  N   UNL     1      47.271   7.252  14.391  0.00  0.00    +0.000 N 
ATOM     20  H   UNL     1      46.580   6.855  15.013  0.00  0.00    +0.000 HD
BRANCH  17  28
ATOM     21  C   UNL     1      47.290   4.268  16.193  0.00  0.00    +0.000 A 
ATOM     22  N   UNL     1      46.989   3.231  17.000  0.00  0.00    +0.000 NA
ATOM     23  C   UNL     1      47.753   3.026  18.069  0.00  0.00    +0.000 A 
ATOM     24  N   UNL     1      48.810   3.744  18.447  0.00  0.00    +0.000 NA
ATOM     25  C   UNL     1      49.079   4.762  17.613  0.00  0.00    +0.000 A 
ATOM     26  S   UNL     1      50.391   5.788  17.941  0.00  0.00    +0.000 S 
ATOM     27  C   UNL     1      50.073   6.720  16.556  0.00  0.00    +0.000 A 
ATOM     28  C   UNL     1      48.980   6.279  15.817  0.00  0.00    +0.000 A 
ATOM     29  C   UNL     1      48.386   5.106  16.457  0.00  0.00    +0.000 A 
BRANCH  21  31
ATOM     30  C   UNL     1      46.976   3.682  13.966  0.00  0.00    +0.000 C 
ATOM     31  O   UNL     1      46.507   4.452  15.072  0.00  0.00    +0.000 OA
ENDBRANCH  21  31
ENDBRANCH  17  28
ENDBRANCH   1  19
TORSDOF 7
ENDMDL
MODEL 2
REMARK VINA RESULT:    -7.761      1.594      1.992
REMARK INTER + INTRA:         -12.341
REMARK INTER:                 -11.275
REMARK INTRA:                  -1.067
REMARK UNBOUND:                -1.404
REMARK  Name = 
REMARK  8 active torsions:
REMARK  status: ('A' for Active; 'I' for Inactive)
REMARK    1  A    between atoms: C_1  and  O_2
REMARK    2  A    between atoms: O_2  and  C_3
REMARK    3  A    between atoms: C_10  and  C_11
REMARK    4  A    between atoms: N_13  and  C_14
REMARK    5  A    between atoms: C_14  and  C_15
REMARK    6  A    between atoms: C_18  and  N_19
REMARK    7  A    between atoms: N_19  and  C_20
REMARK    8  A    between atoms: C_20  and  C_21
REMARK                            x       y       z     vdW  Elec       q    Type
REMARK                         _______ _______ _______ _____ _____    ______ ____
ROOT
ATOM      1  C   UNL     1      47.794   7.316  13.376  0.00  0.00    +0.000 C 
ENDROOT
BRANCH   1   2
ATOM      2  C   UNL     1      46.926   6.198  12.855  0.00  0.00    +0.000 A 
ATOM      3  C   UNL     1      46.049   6.407  11.786  0.00  0.00    +0.000 A 
ATOM      4  C   UNL     1      45.243   5.366  11.300  0.00  0.00    +0.000 A 
ATOM      5  C   UNL     1      45.265   4.095  11.881  0.00  0.00    +0.000 A 
ATOM      6  C   UNL     1      46.147   3.894  12.952  0.00  0.00    +0.000 A 
ATOM      7  C   UNL     1      46.958   4.929  13.443  0.00  0.00    +0.000 A 
BRANCH   5   8
ATOM      8  N   UNL     1      44.538   2.998  11.401  0.00  0.00    +0.000 N 
ATOM      9  H   UNL     1      43.766   2.776  12.023  0.00  0.00    +0.000 HD
BRANCH   8  10
ATOM     10  C   UNL     1      44.232   2.869   9.977  0.00  0.00    +0.000 C 
BRANCH  10  11
ATOM     11  C   UNL     1      45.495   2.742   9.093  0.00  0.00    +0.000 C 
ATOM     12  C   UNL     1      45.596   3.820   7.995  0.00  0.00    +0.000 C 
ATOM     13  C   UNL     1      46.835   3.636   7.114  0.00  0.00    +0.000 C 
ATOM     14  C   UNL     1      46.891   2.234   6.518  0.00  0.00    +0.000 C 
ATOM     15  C   UNL     1      46.859   1.177   7.614  0.00  0.00    +0.000 C 
ATOM     16  C   UNL     1      45.627   1.328   8.505  0.00  0.00    +0.000 C 
ENDBRANCH  10  11
ENDBRANCH   8  10
ENDBRANCH   5   8
ENDBRANCH   1   2
BRANCH   1  19
ATOM     17  C   UNL     1      49.023   7.112  15.498  0.00  0.00    +0.000 C 
ATOM     18  O   UNL     1      50.087   6.927  14.902  0.00  0.00    +0.000 OA
ATOM     19  N   UNL     1      47.855   7.308  14.818  0.00  0.00    +0.000 N 
ATOM     20  H   UNL     1      46.979   7.376  15.318  0.00  0.00    +0.000 HD
BRANCH  17  28
ATOM     21  C   UNL     1      48.851   4.634  17.874  0.00  0.00    +0.000 A 
ATOM     22  N   UNL     1      48.785   3.878  18.989  0.00  0.00    +0.000 NA
ATOM     23  C   UNL     1      48.748   4.499  20.165  0.00  0.00    +0.000 A 
ATOM     24  N   UNL     1      48.768   5.813  20.378  0.00  0.00    +0.000 NA
ATOM     25  C   UNL     1      48.841   6.528  19.243  0.00  0.00    +0.000 A 
ATOM     26  S   UNL     1      48.873   8.224  19.322  0.00  0.00    +0.000 S 
ATOM     27  C   UNL     1      48.955   8.351  17.629  0.00  0.00    +0.000 A 
ATOM     28  C   UNL     1      48.966   7.126  16.971  0.00  0.00    +0.000 A 
ATOM     29  C   UNL     1      48.894   6.036  17.942  0.00  0.00    +0.000 A 
BRANCH  21  31
ATOM     30  C   UNL     1      48.260   2.713  16.706  0.00  0.00    +0.000 C 
ATOM     31  O   UNL     1      48.920   3.978  16.663  0.00  0.00    +0.000 OA
ENDBRANCH  21  31
ENDBRANCH  17  28
ENDBRANCH   1  19
TORSDOF 7
ENDMDL
MODEL 3
REMARK VINA RESULT:    -7.541      2.298      2.931
REMARK INTER + INTRA:         -12.030
REMARK INTER:                 -10.956
REMARK INTRA:                  -1.074
REMARK UNBOUND:                -1.404
REMARK  Name = 
REMARK  8 active torsions:
REMARK  status: ('A' for Active; 'I' for Inactive)
REMARK    1  A    between atoms: C_1  and  O_2
REMARK    2  A    between atoms: O_2  and  C_3
REMARK    3  A    between atoms: C_10  and  C_11
REMARK    4  A    between atoms: N_13  and  C_14
REMARK    5  A    between atoms: C_14  and  C_15
REMARK    6  A    between atoms: C_18  and  N_19
REMARK    7  A    between atoms: N_19  and  C_20
REMARK    8  A    between atoms: C_20  and  C_21
REMARK                            x       y       z     vdW  Elec       q    Type
REMARK                         _______ _______ _______ _____ _____    ______ ____
ROOT
ATOM      1  C   UNL     1      47.929   7.059  13.500  0.00  0.00    +0.000 C 
ENDROOT
BRANCH   1   2
ATOM      2  C   UNL     1      46.955   6.233  12.698  0.00  0.00    +0.000 A 
ATOM      3  C   UNL     1      46.425   5.045  13.214  0.00  0.00    +0.000 A 
ATOM      4  C   UNL     1      45.517   4.278  12.468  0.00  0.00    +0.000 A 
ATOM      5  C   UNL     1      45.131   4.654  11.178  0.00  0.00    +0.000 A 
ATOM      6  C   UNL     1      45.668   5.846  10.669  0.00  0.00    +0.000 A 
ATOM      7  C   UNL     1      46.576   6.620  11.409  0.00  0.00    +0.000 A 
BRANCH   5   8
ATOM      8  N   UNL     1      44.180   3.970  10.411  0.00  0.00    +0.000 N 
ATOM      9  H   UNL     1      43.694   4.606   9.785  0.00  0.00    +0.000 HD
BRANCH   8  10
ATOM     10  C   UNL     1      44.484   2.661   9.836  0.00  0.00    +0.000 C 
BRANCH  10  11
ATOM     11  C   UNL     1      45.670   2.694   8.842  0.00  0.00    +0.000 C 
ATOM     12  C   UNL     1      45.489   3.701   7.690  0.00  0.00    +0.000 C 
ATOM     13  C   UNL     1      46.661   3.674   6.706  0.00  0.00    +0.000 C 
ATOM     14  C   UNL     1      46.910   2.267   6.175  0.00  0.00    +0.000 C 
ATOM     15  C   UNL     1      47.156   1.291   7.319  0.00  0.00    +0.000 C 
ATOM     16  C   UNL     1      45.997   1.288   8.314  0.00  0.00    +0.000 C 
ENDBRANCH  10  11
ENDBRANCH   8  10
ENDBRANCH   5   8
ENDBRANCH   1   2
BRANCH   1  19
ATOM     17  C   UNL     1      48.947   6.548  15.683  0.00  0.00    +0.000 C 
ATOM     18  O   UNL     1      50.082   6.606  15.203  0.00  0.00    +0.000 OA
ATOM     19  N   UNL     1      47.840   6.757  14.910  0.00  0.00    +0.000 N 
ATOM     20  H   UNL     1      46.916   6.626  15.297  0.00  0.00    +0.000 HD
BRANCH  17  28
ATOM     21  C   UNL     1      47.841   8.424  18.342  0.00  0.00    +0.000 A 
ATOM     22  N   UNL     1      47.445   8.920  19.532  0.00  0.00    +0.000 NA
ATOM     23  C   UNL     1      47.473   8.112  20.588  0.00  0.00    +0.000 A 
ATOM     24  N   UNL     1      47.856   6.837  20.611  0.00  0.00    +0.000 NA
ATOM     25  C   UNL     1      48.235   6.381  19.406  0.00  0.00    +0.000 A 
ATOM     26  S   UNL     1      48.760   4.774  19.246  0.00  0.00    +0.000 S 
ATOM     27  C   UNL     1      49.036   4.977  17.581  0.00  0.00    +0.000 A 
ATOM     28  C   UNL     1      48.735   6.250  17.110  0.00  0.00    +0.000 A 
ATOM     29  C   UNL     1      48.259   7.089  18.209  0.00  0.00    +0.000 A 
BRANCH  21  31
ATOM     30  C   UNL     1      48.415  10.514  17.505  0.00  0.00    +0.000 C 
ATOM     31  O   UNL     1      47.779   9.263  17.249  0.00  0.00    +0.000 OA
ENDBRANCH  21  31
ENDBRANCH  17  28
ENDBRANCH   1  19
TORSDOF 7
ENDMDL
MODEL 4
REMARK VINA RESULT:    -7.411      2.207      3.282
REMARK INTER + INTRA:         -11.847
REMARK INTER:                 -10.932
REMARK INTRA:                  -0.915
REMARK UNBOUND:                -1.404
REMARK  Name = 
REMARK  8 active torsions:
REMARK  status: ('A' for Active; 'I' for Inactive)
REMARK    1  A    between atoms: C_1  and  O_2
REMARK    2  A    between atoms: O_2  and  C_3
REMARK    3  A    between atoms: C_10  and  C_11
REMARK    4  A    between atoms: N_13  and  C_14
REMARK    5  A    between atoms: C_14  and  C_15
REMARK    6  A    between atoms: C_18  and  N_19
REMARK    7  A    between atoms: N_19  and  C_20
REMARK    8  A    between atoms: C_20  and  C_21
REMARK                            x       y       z     vdW  Elec       q    Type
REMARK                         _______ _______ _______ _____ _____    ______ ____
ROOT
ATOM      1  C   UNL     1      46.516   4.435  14.875  0.00  0.00    +0.000 C 
ENDROOT
BRANCH   1   2
ATOM      2  C   UNL     1      46.182   4.616  13.415  0.00  0.00    +0.000 A 
ATOM      3  C   UNL     1      46.545   5.783  12.734  0.00  0.00    +0.000 A 
ATOM      4  C   UNL     1      46.237   5.951  11.376  0.00  0.00    +0.000 A 
ATOM      5  C   UNL     1      45.534   4.976  10.662  0.00  0.00    +0.000 A 
ATOM      6  C   UNL     1      45.173   3.810  11.352  0.00  0.00    +0.000 A 
ATOM      7  C   UNL     1      45.479   3.634  12.711  0.00  0.00    +0.000 A 
BRANCH   5   8
ATOM      8  N   UNL     1      45.256   5.053   9.291  0.00  0.00    +0.000 N 
ATOM      9  H   UNL     1      46.081   5.335   8.769  0.00  0.00    +0.000 HD
BRANCH   8  10
ATOM     10  C   UNL     1      44.439   4.034   8.636  0.00  0.00    +0.000 C 
BRANCH  10  11
ATOM     11  C   UNL     1      45.266   3.049   7.777  0.00  0.00    +0.000 C 
ATOM     12  C   UNL     1      45.778   1.822   8.558  0.00  0.00    +0.000 C 
ATOM     13  C   UNL     1      46.629   0.894   7.686  0.00  0.00    +0.000 C 
ATOM     14  C   UNL     1      47.777   1.647   7.026  0.00  0.00    +0.000 C 
ATOM     15  C   UNL     1      47.256   2.817   6.201  0.00  0.00    +0.000 C 
ATOM     16  C   UNL     1      46.412   3.768   7.046  0.00  0.00    +0.000 C 
ENDBRANCH  10  11
ENDBRANCH   8  10
ENDBRANCH   5   8
ENDBRANCH   1   2
BRANCH   1  19
ATOM     17  C   UNL     1      48.092   5.337  16.535  0.00  0.00    +0.000 C 
ATOM     18  O   UNL     1      47.421   4.885  17.466  0.00  0.00    +0.000 OA
ATOM     19  N   UNL     1      47.711   5.159  15.236  0.00  0.00    +0.000 N 
ATOM     20  H   UNL     1      48.226   5.604  14.488  0.00  0.00    +0.000 HD
BRANCH  17  28
ATOM     21  C   UNL     1      51.286   4.399  17.393  0.00  0.00    +0.000 A 
ATOM     22  N   UNL     1      52.590   4.310  17.721  0.00  0.00    +0.000 NA
ATOM     23  C   UNL     1      53.290   5.437  17.821  0.00  0.00    +0.000 A 
ATOM     24  N   UNL     1      52.843   6.677  17.632  0.00  0.00    +0.000 NA
ATOM     25  C   UNL     1      51.541   6.720  17.300  0.00  0.00    +0.000 A 
ATOM     26  S   UNL     1      50.798   8.222  17.025  0.00  0.00    +0.000 S 
ATOM     27  C   UNL     1      49.304   7.479  16.699  0.00  0.00    +0.000 A 
ATOM     28  C   UNL     1      49.334   6.091  16.785  0.00  0.00    +0.000 A 
ATOM     29  C   UNL     1      50.676   5.641  17.149  0.00  0.00    +0.000 A 
BRANCH  21  31
ATOM     30  C   UNL     1      51.417   2.079  17.428  0.00  0.00    +0.000 C 
ATOM     31  O   UNL     1      50.579   3.222  17.263  0.00  0.00    +0.000 OA
ENDBRANCH  21  31
ENDBRANCH  17  28
ENDBRANCH   1  19
TORSDOF 7
ENDMDL
MODEL 5
REMARK VINA RESULT:    -7.401      1.599      2.185
REMARK INTER + INTRA:         -11.834
REMARK INTER:                 -10.714
REMARK INTRA:                  -1.119
REMARK UNBOUND:                -1.404
REMARK  Name = 
REMARK  8 active torsions:
REMARK  status: ('A' for Active; 'I' for Inactive)
REMARK    1  A    between atoms: C_1  and  O_2
REMARK    2  A    between atoms: O_2  and  C_3
REMARK    3  A    between atoms: C_10  and  C_11
REMARK    4  A    between atoms: N_13  and  C_14
REMARK    5  A    between atoms: C_14  and  C_15
REMARK    6  A    between atoms: C_18  and  N_19
REMARK    7  A    between atoms: N_19  and  C_20
REMARK    8  A    between atoms: C_20  and  C_21
REMARK                            x       y       z     vdW  Elec       q    Type
REMARK                         _______ _______ _______ _____ _____    ______ ____
ROOT
ATOM      1  C   UNL     1      47.389   7.682  13.475  0.00  0.00    +0.000 C 
ENDROOT
BRANCH   1   2
ATOM      2  C   UNL     1      46.657   6.616  12.699  0.00  0.00    +0.000 A 
ATOM      3  C   UNL     1      46.261   5.423  13.313  0.00  0.00    +0.000 A 
ATOM      4  C   UNL     1      45.578   4.433  12.591  0.00  0.00    +0.000 A 
ATOM      5  C   UNL     1      45.294   4.587  11.231  0.00  0.00    +0.000 A 
ATOM      6  C   UNL     1      45.695   5.786  10.623  0.00  0.00    +0.000 A 
ATOM      7  C   UNL     1      46.377   6.782  11.339  0.00  0.00    +0.000 A 
BRANCH   5   8
ATOM      8  N   UNL     1      44.558   3.668  10.472  0.00  0.00    +0.000 N 
ATOM      9  H   UNL     1      43.780   3.296  11.009  0.00  0.00    +0.000 HD
BRANCH   8  10
ATOM     10  C   UNL     1      44.261   3.928   9.065  0.00  0.00    +0.000 C 
BRANCH  10  11
ATOM     11  C   UNL     1      45.072   3.036   8.096  0.00  0.00    +0.000 C 
ATOM     12  C   UNL     1      45.652   1.769   8.755  0.00  0.00    +0.000 C 
ATOM     13  C   UNL     1      46.484   0.936   7.776  0.00  0.00    +0.000 C 
ATOM     14  C   UNL     1      47.581   1.771   7.125  0.00  0.00    +0.000 C 
ATOM     15  C   UNL     1      46.990   2.985   6.418  0.00  0.00    +0.000 C 
ATOM     16  C   UNL     1      46.163   3.843   7.373  0.00  0.00    +0.000 C 
ENDBRANCH  10  11
ENDBRANCH   8  10
ENDBRANCH   5   8
ENDBRANCH   1   2
BRANCH   1  19
ATOM     17  C   UNL     1      49.009   7.609  15.326  0.00  0.00    +0.000 C 
ATOM     18  O   UNL     1      48.416   8.509  15.925  0.00  0.00    +0.000 OA
ATOM     19  N   UNL     1      48.567   7.150  14.118  0.00  0.00    +0.000 N 
ATOM     20  H   UNL     1      49.109   6.471  13.602  0.00  0.00    +0.000 HD
BRANCH  17  28
ATOM     21  C   UNL     1      49.541   4.882  17.351  0.00  0.00    +0.000 A 
ATOM     22  N   UNL     1      50.023   3.883  18.118  0.00  0.00    +0.000 NA
ATOM     23  C   UNL     1      51.338   3.815  18.304  0.00  0.00    +0.000 A 
ATOM     24  N   UNL     1      52.261   4.639  17.811  0.00  0.00    +0.000 NA
ATOM     25  C   UNL     1      51.740   5.615  17.048  0.00  0.00    +0.000 A 
ATOM     26  S   UNL     1      52.770   6.762  16.337  0.00  0.00    +0.000 S 
ATOM     27  C   UNL     1      51.458   7.567  15.617  0.00  0.00    +0.000 A 
ATOM     28  C   UNL     1      50.223   6.989  15.889  0.00  0.00    +0.000 A 
ATOM     29  C   UNL     1      50.397   5.821  16.750  0.00  0.00    +0.000 A 
BRANCH  21  31
ATOM     30  C   UNL     1      47.685   3.692  16.616  0.00  0.00    +0.000 C 
ATOM     31  O   UNL     1      48.178   4.924  17.140  0.00  0.00    +0.000 OA
ENDBRANCH  21  31
ENDBRANCH  17  28
ENDBRANCH   1  19
TORSDOF 7
ENDMDL
MODEL 6
REMARK VINA RESULT:    -7.363      2.133      3.762
REMARK INTER + INTRA:         -11.779
REMARK INTER:                 -10.447
REMARK INTRA:                  -1.332
REMARK UNBOUND:                -1.404
REMARK  Name = 
REMARK  8 active torsions:
REMARK  status: ('A' for Active; 'I' for Inactive)
REMARK    1  A    between atoms: C_1  and  O_2
REMARK    2  A    between atoms: O_2  and  C_3
REMARK    3  A    between atoms: C_10  and  C_11
REMARK    4  A    between atoms: N_13  and  C_14
REMARK    5  A    between atoms: C_14  and  C_15
REMARK    6  A    between atoms: C_18  and  N_19
REMARK    7  A    between atoms: N_19  and  C_20
REMARK    8  A    between atoms: C_20  and  C_21
REMARK                            x       y       z     vdW  Elec       q    Type
REMARK                         _______ _______ _______ _____ _____    ______ ____
ROOT
ATOM      1  C   UNL     1      47.268   4.330  14.952  0.00  0.00    +0.000 C 
ENDROOT
BRANCH   1   2
ATOM      2  C   UNL     1      46.648   4.562  13.597  0.00  0.00    +0.000 A 
ATOM      3  C   UNL     1      46.915   5.730  12.875  0.00  0.00    +0.000 A 
ATOM      4  C   UNL     1      46.340   5.945  11.613  0.00  0.00    +0.000 A 
ATOM      5  C   UNL     1      45.460   5.018  11.045  0.00  0.00    +0.000 A 
ATOM      6  C   UNL     1      45.197   3.850  11.776  0.00  0.00    +0.000 A 
ATOM      7  C   UNL     1      45.770   3.627  13.038  0.00  0.00    +0.000 A 
BRANCH   5   8
ATOM      8  N   UNL     1      44.907   5.142   9.764  0.00  0.00    +0.000 N 
ATOM      9  H   UNL     1      45.551   5.613   9.135  0.00  0.00    +0.000 HD
BRANCH   8  10
ATOM     10  C   UNL     1      44.165   4.036   9.161  0.00  0.00    +0.000 C 
BRANCH  10  11
ATOM     11  C   UNL     1      45.012   3.203   8.170  0.00  0.00    +0.000 C 
ATOM     12  C   UNL     1      45.541   1.882   8.763  0.00  0.00    +0.000 C 
ATOM     13  C   UNL     1      46.409   1.107   7.768  0.00  0.00    +0.000 C 
ATOM     14  C   UNL     1      47.548   1.968   7.234  0.00  0.00    +0.000 C 
ATOM     15  C   UNL     1      47.011   3.240   6.589  0.00  0.00    +0.000 C 
ATOM     16  C   UNL     1      46.149   4.041   7.562  0.00  0.00    +0.000 C 
ENDBRANCH  10  11
ENDBRANCH   8  10
ENDBRANCH   5   8
ENDBRANCH   1   2
BRANCH   1  19
ATOM     17  C   UNL     1      48.607   5.754  16.447  0.00  0.00    +0.000 C 
ATOM     18  O   UNL     1      49.421   4.846  16.637  0.00  0.00    +0.000 OA
ATOM     19  N   UNL     1      47.524   5.576  15.634  0.00  0.00    +0.000 N 
ATOM     20  H   UNL     1      46.824   6.300  15.553  0.00  0.00    +0.000 HD
BRANCH  17  28
ATOM     21  C   UNL     1      48.856   8.958  15.227  0.00  0.00    +0.000 A 
ATOM     22  N   UNL     1      48.973  10.285  15.022  0.00  0.00    +0.000 NA
ATOM     23  C   UNL     1      49.117  11.073  16.084  0.00  0.00    +0.000 A 
ATOM     24  N   UNL     1      49.160  10.696  17.361  0.00  0.00    +0.000 NA
ATOM     25  C   UNL     1      49.032   9.368  17.521  0.00  0.00    +0.000 A 
ATOM     26  S   UNL     1      49.069   8.706  19.084  0.00  0.00    +0.000 S 
ATOM     27  C   UNL     1      48.872   7.132  18.476  0.00  0.00    +0.000 A 
ATOM     28  C   UNL     1      48.769   7.070  17.090  0.00  0.00    +0.000 A 
ATOM     29  C   UNL     1      48.869   8.414  16.522  0.00  0.00    +0.000 A 
BRANCH  21  31
ATOM     30  C   UNL     1      49.922   7.768  13.540  0.00  0.00    +0.000 C 
ATOM     31  O   UNL     1      48.677   8.156  14.119  0.00  0.00    +0.000 OA
ENDBRANCH  21  31
ENDBRANCH  17  28
ENDBRANCH   1  19
TORSDOF 7
ENDMDL
MODEL 7
REMARK VINA RESULT:    -7.199      2.594      3.545
REMARK INTER + INTRA:         -11.549
REMARK INTER:                 -10.481
REMARK INTRA:                  -1.068
REMARK UNBOUND:                -1.404
REMARK  Name = 
REMARK  8 active torsions:
REMARK  status: ('A' for Active; 'I' for Inactive)
REMARK    1  A    between atoms: C_1  and  O_2
REMARK    2  A    between atoms: O_2  and  C_3
REMARK    3  A    between atoms: C_10  and  C_11
REMARK    4  A    between atoms: N_13  and  C_14
REMARK    5  A    between atoms: C_14  and  C_15
REMARK    6  A    between atoms: C_18  and  N_19
REMARK    7  A    between atoms: N_19  and  C_20
REMARK    8  A    between atoms: C_20  and  C_21
REMARK                            x       y       z     vdW  Elec       q    Type
REMARK                         _______ _______ _______ _____ _____    ______ ____
ROOT
ATOM      1  C   UNL     1      47.156   4.445  15.042  0.00  0.00    +0.000 C 
ENDROOT
BRANCH   1   2
ATOM      2  C   UNL     1      46.572   4.595  13.659  0.00  0.00    +0.000 A 
ATOM      3  C   UNL     1      45.828   3.563  13.078  0.00  0.00    +0.000 A 
ATOM      4  C   UNL     1      45.283   3.703  11.793  0.00  0.00    +0.000 A 
ATOM      5  C   UNL     1      45.486   4.861  11.036  0.00  0.00    +0.000 A 
ATOM      6  C   UNL     1      46.235   5.890  11.626  0.00  0.00    +0.000 A 
ATOM      7  C   UNL     1      46.782   5.758  12.912  0.00  0.00    +0.000 A 
BRANCH   5   8
ATOM      8  N   UNL     1      44.915   5.089   9.778  0.00  0.00    +0.000 N 
ATOM      9  H   UNL     1      45.554   5.600   9.177  0.00  0.00    +0.000 HD
BRANCH   8  10
ATOM     10  C   UNL     1      44.149   4.042   9.104  0.00  0.00    +0.000 C 
BRANCH  10  11
ATOM     11  C   UNL     1      45.004   3.188   8.138  0.00  0.00    +0.000 C 
ATOM     12  C   UNL     1      45.543   1.889   8.768  0.00  0.00    +0.000 C 
ATOM     13  C   UNL     1      46.419   1.093   7.795  0.00  0.00    +0.000 C 
ATOM     14  C   UNL     1      47.551   1.949   7.238  0.00  0.00    +0.000 C 
ATOM     15  C   UNL     1      47.003   3.197   6.558  0.00  0.00    +0.000 C 
ATOM     16  C   UNL     1      46.133   4.018   7.507  0.00  0.00    +0.000 C 
ENDBRANCH  10  11
ENDBRANCH   8  10
ENDBRANCH   5   8
ENDBRANCH   1   2
BRANCH   1  19
ATOM     17  C   UNL     1      48.690   5.828  16.381  0.00  0.00    +0.000 C 
ATOM     18  O   UNL     1      49.349   4.837  16.708  0.00  0.00    +0.000 OA
ATOM     19  N   UNL     1      47.599   5.715  15.567  0.00  0.00    +0.000 N 
ATOM     20  H   UNL     1      47.022   6.522  15.374  0.00  0.00    +0.000 HD
BRANCH  17  28
ATOM     21  C   UNL     1      47.861   7.642  19.180  0.00  0.00    +0.000 A 
ATOM     22  N   UNL     1      47.702   8.551  20.163  0.00  0.00    +0.000 NA
ATOM     23  C   UNL     1      48.326   9.719  20.041  0.00  0.00    +0.000 A 
ATOM     24  N   UNL     1      49.109  10.109  19.037  0.00  0.00    +0.000 NA
ATOM     25  C   UNL     1      49.246   9.172  18.084  0.00  0.00    +0.000 A 
ATOM     26  S   UNL     1      50.207   9.497  16.723  0.00  0.00    +0.000 S 
ATOM     27  C   UNL     1      49.882   7.963  16.066  0.00  0.00    +0.000 A 
ATOM     28  C   UNL     1      49.052   7.175  16.855  0.00  0.00    +0.000 A 
ATOM     29  C   UNL     1      48.670   7.906  18.062  0.00  0.00    +0.000 A 
BRANCH  21  31
ATOM     30  C   UNL     1      48.022   5.511  20.095  0.00  0.00    +0.000 C 
ATOM     31  O   UNL     1      47.233   6.423  19.332  0.00  0.00    +0.000 OA
ENDBRANCH  21  31
ENDBRANCH  17  28
ENDBRANCH   1  19
TORSDOF 7
ENDMDL
MODEL 8
REMARK VINA RESULT:    -6.756      3.996      8.756
REMARK INTER + INTRA:         -10.924
REMARK INTER:                  -9.882
REMARK INTRA:                  -1.042
REMARK UNBOUND:                -1.404
REMARK  Name = 
REMARK  8 active torsions:
REMARK  status: ('A' for Active; 'I' for Inactive)
REMARK    1  A    between atoms: C_1  and  O_2
REMARK    2  A    between atoms: O_2  and  C_3
REMARK    3  A    between atoms: C_10  and  C_11
REMARK    4  A    between atoms: N_13  and  C_14
REMARK    5  A    between atoms: C_14  and  C_15
REMARK    6  A    between atoms: C_18  and  N_19
REMARK    7  A    between atoms: N_19  and  C_20
REMARK    8  A    between atoms: C_20  and  C_21
REMARK                            x       y       z     vdW  Elec       q    Type
REMARK                         _______ _______ _______ _____ _____    ______ ____
ROOT
ATOM      1  C   UNL     1      47.166   3.393  16.832  0.00  0.00    +0.000 C 
ENDROOT
BRANCH   1   2
ATOM      2  C   UNL     1      48.637   3.503  17.146  0.00  0.00    +0.000 A 
ATOM      3  C   UNL     1      49.210   4.735  17.481  0.00  0.00    +0.000 A 
ATOM      4  C   UNL     1      50.578   4.837  17.775  0.00  0.00    +0.000 A 
ATOM      5  C   UNL     1      51.422   3.724  17.719  0.00  0.00    +0.000 A 
ATOM      6  C   UNL     1      50.839   2.493  17.382  0.00  0.00    +0.000 A 
ATOM      7  C   UNL     1      49.471   2.382  17.087  0.00  0.00    +0.000 A 
BRANCH   5   8
ATOM      8  N   UNL     1      52.778   3.747  18.066  0.00  0.00    +0.000 N 
ATOM      9  H   UNL     1      53.095   4.699  18.229  0.00  0.00    +0.000 HD
BRANCH   8  10
ATOM     10  C   UNL     1      53.331   2.754  18.985  0.00  0.00    +0.000 C 
BRANCH  10  11
ATOM     11  C   UNL     1      54.295   1.758  18.298  0.00  0.00    +0.000 C 
ATOM     12  C   UNL     1      54.855   2.261  16.953  0.00  0.00    +0.000 C 
ATOM     13  C   UNL     1      55.769   1.231  16.284  0.00  0.00    +0.000 C 
ATOM     14  C   UNL     1      55.069  -0.113  16.122  0.00  0.00    +0.000 C 
ATOM     15  C   UNL     1      54.579  -0.635  17.468  0.00  0.00    +0.000 C 
ATOM     16  C   UNL     1      53.655   0.367  18.156  0.00  0.00    +0.000 C 
ENDBRANCH  10  11
ENDBRANCH   8  10
ENDBRANCH   5   8
ENDBRANCH   1   2
BRANCH   1  19
ATOM     17  C   UNL     1      46.867   4.275  14.554  0.00  0.00    +0.000 C 
ATOM     18  O   UNL     1      47.348   3.252  14.059  0.00  0.00    +0.000 OA
ATOM     19  N   UNL     1      46.747   4.419  15.907  0.00  0.00    +0.000 N 
ATOM     20  H   UNL     1      46.427   5.293  16.300  0.00  0.00    +0.000 HD
BRANCH  17  28
ATOM     21  C   UNL     1      44.113   4.715  12.544  0.00  0.00    +0.000 A 
ATOM     22  N   UNL     1      43.147   5.141  11.706  0.00  0.00    +0.000 NA
ATOM     23  C   UNL     1      43.270   6.355  11.176  0.00  0.00    +0.000 A 
ATOM     24  N   UNL     1      44.260   7.222  11.379  0.00  0.00    +0.000 NA
ATOM     25  C   UNL     1      45.197   6.761  12.224  0.00  0.00    +0.000 A 
ATOM     26  S   UNL     1      46.538   7.731  12.598  0.00  0.00    +0.000 S 
ATOM     27  C   UNL     1      47.182   6.535  13.619  0.00  0.00    +0.000 A 
ATOM     28  C   UNL     1      46.402   5.387  13.706  0.00  0.00    +0.000 A 
ATOM     29  C   UNL     1      45.215   5.526  12.865  0.00  0.00    +0.000 A 
BRANCH  21  31
ATOM     30  C   UNL     1      43.394   2.533  12.192  0.00  0.00    +0.000 C 
ATOM     31  O   UNL     1      43.960   3.466  13.111  0.00  0.00    +0.000 OA
ENDBRANCH  21  31
ENDBRANCH  17  28
ENDBRANCH   1  19
TORSDOF 7
ENDMDL
MODEL 9
REMARK VINA RESULT:    -6.469      3.080      5.532
REMARK INTER + INTRA:         -10.520
REMARK INTER:                  -9.194
REMARK INTRA:                  -1.327
REMARK UNBOUND:                -1.404
REMARK  Name = 
REMARK  8 active torsions:
REMARK  status: ('A' for Active; 'I' for Inactive)
REMARK    1  A    between atoms: C_1  and  O_2
REMARK    2  A    between atoms: O_2  and  C_3
REMARK    3  A    between atoms: C_10  and  C_11
REMARK    4  A    between atoms: N_13  and  C_14
REMARK    5  A    between atoms: C_14  and  C_15
REMARK    6  A    between atoms: C_18  and  N_19
REMARK    7  A    between atoms: N_19  and  C_20
REMARK    8  A    between atoms: C_20  and  C_21
REMARK                            x       y       z     vdW  Elec       q    Type
REMARK                         _______ _______ _______ _____ _____    ______ ____
ROOT
ATOM      1  C   UNL     1      47.793   3.395  17.290  0.00  0.00    +0.000 C 
ENDROOT
BRANCH   1   2
ATOM      2  C   UNL     1      47.645   4.166  16.003  0.00  0.00    +0.000 A 
ATOM      3  C   UNL     1      47.068   3.575  14.873  0.00  0.00    +0.000 A 
ATOM      4  C   UNL     1      46.928   4.293  13.676  0.00  0.00    +0.000 A 
ATOM      5  C   UNL     1      47.383   5.610  13.557  0.00  0.00    +0.000 A 
ATOM      6  C   UNL     1      47.960   6.195  14.694  0.00  0.00    +0.000 A 
ATOM      7  C   UNL     1      48.102   5.484  15.896  0.00  0.00    +0.000 A 
BRANCH   5   8
ATOM      8  N   UNL     1      47.212   6.401  12.414  0.00  0.00    +0.000 N 
ATOM      9  H   UNL     1      47.495   5.896  11.579  0.00  0.00    +0.000 HD
BRANCH   8  10
ATOM     10  C   UNL     1      46.020   7.231  12.251  0.00  0.00    +0.000 C 
BRANCH  10  11
ATOM     11  C   UNL     1      44.822   6.464  11.644  0.00  0.00    +0.000 C 
ATOM     12  C   UNL     1      43.858   5.882  12.697  0.00  0.00    +0.000 C 
ATOM     13  C   UNL     1      42.710   5.095  12.059  0.00  0.00    +0.000 C 
ATOM     14  C   UNL     1      43.231   4.007  11.127  0.00  0.00    +0.000 C 
ATOM     15  C   UNL     1      44.129   4.602  10.048  0.00  0.00    +0.000 C 
ATOM     16  C   UNL     1      45.291   5.385  10.654  0.00  0.00    +0.000 C 
ENDBRANCH  10  11
ENDBRANCH   8  10
ENDBRANCH   5   8
ENDBRANCH   1   2
BRANCH   1  19
ATOM     17  C   UNL     1      49.985   2.312  17.008  0.00  0.00    +0.000 C 
ATOM     18  O   UNL     1      49.551   1.596  16.101  0.00  0.00    +0.000 OA
ATOM     19  N   UNL     1      49.182   3.217  17.641  0.00  0.00    +0.000 N 
ATOM     20  H   UNL     1      49.528   3.737  18.436  0.00  0.00    +0.000 HD
BRANCH  17  28
ATOM     21  C   UNL     1      52.385   4.660  17.741  0.00  0.00    +0.000 A 
ATOM     22  N   UNL     1      53.488   5.355  18.083  0.00  0.00    +0.000 NA
ATOM     23  C   UNL     1      54.580   4.673  18.418  0.00  0.00    +0.000 A 
ATOM     24  N   UNL     1      54.716   3.349  18.457  0.00  0.00    +0.000 NA
ATOM     25  C   UNL     1      53.592   2.695  18.117  0.00  0.00    +0.000 A 
ATOM     26  S   UNL     1      53.582   0.998  18.108  0.00  0.00    +0.000 S 
ATOM     27  C   UNL     1      51.957   0.960  17.611  0.00  0.00    +0.000 A 
ATOM     28  C   UNL     1      51.388   2.218  17.449  0.00  0.00    +0.000 A 
ATOM     29  C   UNL     1      52.373   3.255  17.750  0.00  0.00    +0.000 A 
BRANCH  21  31
ATOM     30  C   UNL     1      51.532   6.436  16.509  0.00  0.00    +0.000 C 
ATOM     31  O   UNL     1      51.251   5.379  17.425  0.00  0.00    +0.000 OA
ENDBRANCH  21  31
ENDBRANCH  17  28
ENDBRANCH   1  19
TORSDOF 7
ENDMDL
