MODEL 1
REMARK VINA RESULT:    -7.136      0.000      0.000
REMARK INTER + INTRA:         -12.073
REMARK INTER:                 -10.890
REMARK INTRA:                  -1.183
REMARK UNBOUND:                -1.183
REMARK  Name = 
REMARK  10 active torsions:
REMARK  status: ('A' for Active; 'I' for Inactive)
REMARK    1  A    between atoms: C_1  and  N_2
REMARK    2  A    between atoms: N_2  and  C_3
REMARK    3  A    between atoms: C_3  and  C_4
REMARK    4  A    between atoms: C_4  and  C_5
REMARK    5  A    between atoms: C_5  and  O_6
REMARK    6  A    between atoms: O_6  and  C_7
REMARK    7  A    between atoms: C_10  and  O_11
REMARK    8  A    between atoms: O_11  and  C_12
REMARK    9  A    between atoms: C_12  and  C_13
REMARK   10  A    between atoms: C_16  and  C_17
REMARK                            x       y       z     vdW  Elec       q    Type
REMARK                         _______ _______ _______ _____ _____    ______ ____
ROOT
ATOM      1  C   UNL     1      47.189   5.788  13.455  0.00  0.00    +0.000 A 
ATOM      2  C   UNL     1      47.116   6.621  12.336  0.00  0.00    +0.000 A 
ATOM      3  C   UNL     1      46.037   6.512  11.450  0.00  0.00    +0.000 A 
ATOM      4  C   UNL     1      45.037   5.566  11.676  0.00  0.00    +0.000 A 
ATOM      5  C   UNL     1      45.082   4.784  12.831  0.00  0.00    +0.000 A 
ATOM      6  C   UNL     1      46.165   4.878  13.702  0.00  0.00    +0.000 A 
ENDROOT
BRANCH   1   7
ATOM      7  O   UNL     1      48.230   5.732  14.340  0.00  0.00    +0.000 OA
BRANCH   7   8
ATOM      8  C   UNL     1      48.683   6.997  14.820  0.00  0.00    +0.000 C 
BRANCH   8   9
ATOM      9  C   UNL     1      49.208   6.819  16.241  0.00  0.00    +0.000 C 
BRANCH   9  10
ATOM     10  C   UNL     1      48.952   5.413  16.786  0.00  0.00    +0.000 C 
BRANCH  10  12
ATOM     11  C   UNL     1      47.114   3.906  17.200  0.00  0.00    +0.000 C 
ATOM     12  N   UNL     1      47.588   5.278  17.301  0.00  0.00    +0.000 NA
ATOM     13  H   UNL     1      47.547   5.556  18.279  0.00  0.00    +0.000 HD
ENDBRANCH  10  12
ENDBRANCH   9  10
ENDBRANCH   8   9
ENDBRANCH   7   8
ENDBRANCH   1   7
BRANCH   4  14
ATOM     14  O   UNL     1      44.073   5.461  10.703  0.00  0.00    +0.000 OA
BRANCH  14  15
ATOM     15  C   UNL     1      43.733   4.110  10.373  0.00  0.00    +0.000 C 
BRANCH  15  16
ATOM     16  C   UNL     1      44.681   3.516   9.360  0.00  0.00    +0.000 A 
ATOM     17  C   UNL     1      45.351   4.372   8.470  0.00  0.00    +0.000 A 
ATOM     18  C   UNL     1      46.280   3.864   7.558  0.00  0.00    +0.000 A 
ATOM     19  C   UNL     1      46.554   2.496   7.531  0.00  0.00    +0.000 A 
ATOM     20  C   UNL     1      45.898   1.638   8.420  0.00  0.00    +0.000 A 
ATOM     21  C   UNL     1      44.969   2.146   9.334  0.00  0.00    +0.000 A 
BRANCH  19  22
ATOM     22  C   UNL     1      47.513   1.976   6.603  0.00  0.00    +0.000 C 
ATOM     23  N   UNL     1      48.294   1.555   5.852  0.00  0.00    +0.000 NA
ENDBRANCH  19  22
ENDBRANCH  15  16
ENDBRANCH  14  15
ENDBRANCH   4  14
TORSDOF 9
ENDMDL
MODEL 2
REMARK VINA RESULT:    -6.555      2.016      2.906
REMARK INTER + INTRA:         -11.186
REMARK INTER:                 -10.101
REMARK INTRA:                  -1.085
REMARK UNBOUND:                -1.183
REMARK  Name = 
REMARK  10 active torsions:
REMARK  status: ('A' for Active; 'I' for Inactive)
REMARK    1  A    between atoms: C_1  and  N_2
REMARK    2  A    between atoms: N_2  and  C_3
REMARK    3  A    between atoms: C_3  and  C_4
REMARK    4  A    between atoms: C_4  and  C_5
REMARK    5  A    between atoms: C_5  and  O_6
REMARK    6  A    between atoms: O_6  and  C_7
REMARK    7  A    between atoms: C_10  and  O_11
REMARK    8  A    between atoms: O_11  and  C_12
REMARK    9  A    between atoms: C_12  and  C_13
REMARK   10  A    between atoms: C_16  and  C_17
REMARK                            x       y       z     vdW  Elec       q    Type
REMARK                         _______ _______ _______ _____ _____    ______ ____
ROOT
ATOM      1  C   UNL     1      47.287   5.546  13.588  0.00  0.00    +0.000 A 
ATOM      2  C   UNL     1      46.995   4.181  13.636  0.00  0.00    +0.000 A 
ATOM      3  C   UNL     1      45.888   3.676  12.942  0.00  0.00    +0.000 A 
ATOM      4  C   UNL     1      45.069   4.535  12.208  0.00  0.00    +0.000 A 
ATOM      5  C   UNL     1      45.406   5.886  12.111  0.00  0.00    +0.000 A 
ATOM      6  C   UNL     1      46.494   6.391  12.818  0.00  0.00    +0.000 A 
ENDROOT
BRANCH   1   7
ATOM      7  O   UNL     1      48.277   6.173  14.292  0.00  0.00    +0.000 OA
BRANCH   7   8
ATOM      8  C   UNL     1      48.301   7.593  14.164  0.00  0.00    +0.000 C 
BRANCH   8   9
ATOM      9  C   UNL     1      49.739   8.035  13.906  0.00  0.00    +0.000 C 
BRANCH   9  10
ATOM     10  C   UNL     1      49.991   8.369  12.435  0.00  0.00    +0.000 C 
BRANCH  10  12
ATOM     11  C   UNL     1      51.552   7.743  10.706  0.00  0.00    +0.000 C 
ATOM     12  N   UNL     1      50.645   7.261  11.738  0.00  0.00    +0.000 NA
ATOM     13  H   UNL     1      51.183   6.695  12.392  0.00  0.00    +0.000 HD
ENDBRANCH  10  12
ENDBRANCH   9  10
ENDBRANCH   8   9
ENDBRANCH   7   8
ENDBRANCH   1   7
BRANCH   4  14
ATOM     14  O   UNL     1      43.952   3.969  11.644  0.00  0.00    +0.000 OA
BRANCH  14  15
ATOM     15  C   UNL     1      43.724   4.374  10.290  0.00  0.00    +0.000 C 
BRANCH  15  16
ATOM     16  C   UNL     1      44.685   3.717   9.329  0.00  0.00    +0.000 A 
ATOM     17  C   UNL     1      45.483   4.527   8.504  0.00  0.00    +0.000 A 
ATOM     18  C   UNL     1      46.426   3.957   7.644  0.00  0.00    +0.000 A 
ATOM     19  C   UNL     1      46.586   2.571   7.607  0.00  0.00    +0.000 A 
ATOM     20  C   UNL     1      45.802   1.758   8.433  0.00  0.00    +0.000 A 
ATOM     21  C   UNL     1      44.859   2.329   9.293  0.00  0.00    +0.000 A 
BRANCH  19  22
ATOM     22  C   UNL     1      47.558   1.986   6.734  0.00  0.00    +0.000 C 
ATOM     23  N   UNL     1      48.348   1.515   6.022  0.00  0.00    +0.000 NA
ENDBRANCH  19  22
ENDBRANCH  15  16
ENDBRANCH  14  15
ENDBRANCH   4  14
TORSDOF 9
ENDMDL
MODEL 3
REMARK VINA RESULT:    -6.313      1.467      1.989
REMARK INTER + INTRA:         -10.817
REMARK INTER:                 -10.105
REMARK INTRA:                  -0.713
REMARK UNBOUND:                -1.183
REMARK  Name = 
REMARK  10 active torsions:
REMARK  status: ('A' for Active; 'I' for Inactive)
REMARK    1  A    between atoms: C_1  and  N_2
REMARK    2  A    between atoms: N_2  and  C_3
REMARK    3  A    between atoms: C_3  and  C_4
REMARK    4  A    between atoms: C_4  and  C_5
REMARK    5  A    between atoms: C_5  and  O_6
REMARK    6  A    between atoms: O_6  and  C_7
REMARK    7  A    between atoms: C_10  and  O_11
REMARK    8  A    between atoms: O_11  and  C_12
REMARK    9  A    between atoms: C_12  and  C_13
REMARK   10  A    between atoms: C_16  and  C_17
REMARK                            x       y       z     vdW  Elec       q    Type
REMARK                         _______ _______ _______ _____ _____    ______ ____
ROOT
ATOM      1  C   UNL     1      47.533   6.093  13.104  0.00  0.00    +0.000 A 
ATOM      2  C   UNL     1      47.198   6.929  12.037  0.00  0.00    +0.000 A 
ATOM      3  C   UNL     1      46.043   6.679  11.285  0.00  0.00    +0.000 A 
ATOM      4  C   UNL     1      45.229   5.588  11.592  0.00  0.00    +0.000 A 
ATOM      5  C   UNL     1      45.534   4.796  12.701  0.00  0.00    +0.000 A 
ATOM      6  C   UNL     1      46.693   5.033  13.436  0.00  0.00    +0.000 A 
ENDROOT
BRANCH   1   7
ATOM      7  O   UNL     1      48.675   6.174  13.852  0.00  0.00    +0.000 OA
BRANCH   7   8
ATOM      8  C   UNL     1      48.487   6.625  15.192  0.00  0.00    +0.000 C 
BRANCH   8   9
ATOM      9  C   UNL     1      48.875   8.099  15.268  0.00  0.00    +0.000 C 
BRANCH   9  10
ATOM     10  C   UNL     1      48.756   8.661  16.686  0.00  0.00    +0.000 C 
BRANCH  10  12
ATOM     11  C   UNL     1      48.363  10.906  17.477  0.00  0.00    +0.000 C 
ATOM     12  N   UNL     1      47.811   9.778  16.741  0.00  0.00    +0.000 NA
ATOM     13  H   UNL     1      47.578  10.096  15.802  0.00  0.00    +0.000 HD
ENDBRANCH  10  12
ENDBRANCH   9  10
ENDBRANCH   8   9
ENDBRANCH   7   8
ENDBRANCH   1   7
BRANCH   4  14
ATOM     14  O   UNL     1      44.176   5.362  10.742  0.00  0.00    +0.000 OA
BRANCH  14  15
ATOM     15  C   UNL     1      43.941   3.975  10.473  0.00  0.00    +0.000 C 
BRANCH  15  16
ATOM     16  C   UNL     1      44.846   3.443   9.389  0.00  0.00    +0.000 A 
ATOM     17  C   UNL     1      45.466   4.350   8.514  0.00  0.00    +0.000 A 
ATOM     18  C   UNL     1      46.357   3.899   7.536  0.00  0.00    +0.000 A 
ATOM     19  C   UNL     1      46.643   2.538   7.428  0.00  0.00    +0.000 A 
ATOM     20  C   UNL     1      46.037   1.629   8.303  0.00  0.00    +0.000 A 
ATOM     21  C   UNL     1      45.147   2.080   9.282  0.00  0.00    +0.000 A 
BRANCH  19  22
ATOM     22  C   UNL     1      47.563   2.076   6.433  0.00  0.00    +0.000 C 
ATOM     23  N   UNL     1      48.310   1.705   5.623  0.00  0.00    +0.000 NA
ENDBRANCH  19  22
ENDBRANCH  15  16
ENDBRANCH  14  15
ENDBRANCH   4  14
TORSDOF 9
ENDMDL
MODEL 4
REMARK VINA RESULT:    -5.628      1.565      8.416
REMARK INTER + INTRA:          -9.772
REMARK INTER:                  -9.096
REMARK INTRA:                  -0.675
REMARK UNBOUND:                -1.183
REMARK  Name = 
REMARK  10 active torsions:
REMARK  status: ('A' for Active; 'I' for Inactive)
REMARK    1  A    between atoms: C_1  and  N_2
REMARK    2  A    between atoms: N_2  and  C_3
REMARK    3  A    between atoms: C_3  and  C_4
REMARK    4  A    between atoms: C_4  and  C_5
REMARK    5  A    between atoms: C_5  and  O_6
REMARK    6  A    between atoms: O_6  and  C_7
REMARK    7  A    between atoms: C_10  and  O_11
REMARK    8  A    between atoms: O_11  and  C_12
REMARK    9  A    between atoms: C_12  and  C_13
REMARK   10  A    between atoms: C_16  and  C_17
REMARK                            x       y       z     vdW  Elec       q    Type
REMARK                         _______ _______ _______ _____ _____    ______ ____
ROOT
ATOM      1  C   UNL     1      44.784   3.822  10.275  0.00  0.00    +0.000 A 
ATOM      2  C   UNL     1      45.267   5.113  10.047  0.00  0.00    +0.000 A 
ATOM      3  C   UNL     1      45.840   5.843  11.096  0.00  0.00    +0.000 A 
ATOM      4  C   UNL     1      45.922   5.288  12.373  0.00  0.00    +0.000 A 
ATOM      5  C   UNL     1      45.499   3.973  12.578  0.00  0.00    +0.000 A 
ATOM      6  C   UNL     1      44.911   3.255  11.540  0.00  0.00    +0.000 A 
ENDROOT
BRANCH   1   7
ATOM      7  O   UNL     1      44.122   3.047   9.364  0.00  0.00    +0.000 OA
BRANCH   7   8
ATOM      8  C   UNL     1      44.804   1.855   8.978  0.00  0.00    +0.000 C 
BRANCH   8   9
ATOM      9  C   UNL     1      46.052   2.241   8.189  0.00  0.00    +0.000 C 
BRANCH   9  10
ATOM     10  C   UNL     1      46.750   1.029   7.570  0.00  0.00    +0.000 C 
BRANCH  10  12
ATOM     11  C   UNL     1      47.736   2.324   5.791  0.00  0.00    +0.000 C 
ATOM     12  N   UNL     1      47.991   1.412   6.896  0.00  0.00    +0.000 NA
ATOM     13  H   UNL     1      48.624   1.873   7.546  0.00  0.00    +0.000 HD
ENDBRANCH  10  12
ENDBRANCH   9  10
ENDBRANCH   8   9
ENDBRANCH   7   8
ENDBRANCH   1   7
BRANCH   4  14
ATOM     14  O   UNL     1      46.406   6.111  13.360  0.00  0.00    +0.000 OA
BRANCH  14  15
ATOM     15  C   UNL     1      47.773   5.856  13.703  0.00  0.00    +0.000 C 
BRANCH  15  16
ATOM     16  C   UNL     1      47.950   5.584  15.177  0.00  0.00    +0.000 A 
ATOM     17  C   UNL     1      47.366   4.433  15.731  0.00  0.00    +0.000 A 
ATOM     18  C   UNL     1      47.557   4.117  17.079  0.00  0.00    +0.000 A 
ATOM     19  C   UNL     1      48.340   4.945  17.884  0.00  0.00    +0.000 A 
ATOM     20  C   UNL     1      48.933   6.089  17.337  0.00  0.00    +0.000 A 
ATOM     21  C   UNL     1      48.743   6.404  15.989  0.00  0.00    +0.000 A 
BRANCH  19  22
ATOM     22  C   UNL     1      48.544   4.617  19.263  0.00  0.00    +0.000 C 
ATOM     23  N   UNL     1      48.706   4.352  20.384  0.00  0.00    +0.000 NA
ENDBRANCH  19  22
ENDBRANCH  15  16
ENDBRANCH  14  15
ENDBRANCH   4  14
TORSDOF 9
ENDMDL
MODEL 5
REMARK VINA RESULT:    -5.429      2.543      7.606
REMARK INTER + INTRA:          -9.468
REMARK INTER:                  -8.740
REMARK INTRA:                  -0.727
REMARK UNBOUND:                -1.183
REMARK  Name = 
REMARK  10 active torsions:
REMARK  status: ('A' for Active; 'I' for Inactive)
REMARK    1  A    between atoms: C_1  and  N_2
REMARK    2  A    between atoms: N_2  and  C_3
REMARK    3  A    between atoms: C_3  and  C_4
REMARK    4  A    between atoms: C_4  and  C_5
REMARK    5  A    between atoms: C_5  and  O_6
REMARK    6  A    between atoms: O_6  and  C_7
REMARK    7  A    between atoms: C_10  and  O_11
REMARK    8  A    between atoms: O_11  and  C_12
REMARK    9  A    between atoms: C_12  and  C_13
REMARK   10  A    between atoms: C_16  and  C_17
REMARK                            x       y       z     vdW  Elec       q    Type
REMARK                         _______ _______ _______ _____ _____    ______ ____
ROOT
ATOM      1  C   UNL     1      44.818   3.729   9.996  0.00  0.00    +0.000 A 
ATOM      2  C   UNL     1      45.206   5.057   9.803  0.00  0.00    +0.000 A 
ATOM      3  C   UNL     1      45.569   5.848  10.899  0.00  0.00    +0.000 A 
ATOM      4  C   UNL     1      45.537   5.317  12.189  0.00  0.00    +0.000 A 
ATOM      5  C   UNL     1      45.213   3.970  12.368  0.00  0.00    +0.000 A 
ATOM      6  C   UNL     1      44.832   3.190  11.279  0.00  0.00    +0.000 A 
ENDROOT
BRANCH   1   7
ATOM      7  O   UNL     1      44.354   2.885   9.025  0.00  0.00    +0.000 OA
BRANCH   7   8
ATOM      8  C   UNL     1      45.164   1.735   8.788  0.00  0.00    +0.000 C 
BRANCH   8   9
ATOM      9  C   UNL     1      46.412   2.167   8.025  0.00  0.00    +0.000 C 
BRANCH   9  10
ATOM     10  C   UNL     1      47.098   0.997   7.318  0.00  0.00    +0.000 C 
BRANCH  10  12
ATOM     11  C   UNL     1      47.524   2.567   5.537  0.00  0.00    +0.000 C 
ATOM     12  N   UNL     1      48.062   1.465   6.320  0.00  0.00    +0.000 NA
ATOM     13  H   UNL     1      48.916   1.785   6.772  0.00  0.00    +0.000 HD
ENDBRANCH  10  12
ENDBRANCH   9  10
ENDBRANCH   8   9
ENDBRANCH   7   8
ENDBRANCH   1   7
BRANCH   4  14
ATOM     14  O   UNL     1      45.812   6.192  13.210  0.00  0.00    +0.000 OA
BRANCH  14  15
ATOM     15  C   UNL     1      46.092   7.525  12.766  0.00  0.00    +0.000 C 
BRANCH  15  16
ATOM     16  C   UNL     1      47.568   7.838  12.800  0.00  0.00    +0.000 A 
ATOM     17  C   UNL     1      48.354   7.302  13.834  0.00  0.00    +0.000 A 
ATOM     18  C   UNL     1      49.734   7.522  13.865  0.00  0.00    +0.000 A 
ATOM     19  C   UNL     1      50.343   8.272  12.859  0.00  0.00    +0.000 A 
ATOM     20  C   UNL     1      49.569   8.801  11.820  0.00  0.00    +0.000 A 
ATOM     21  C   UNL     1      48.188   8.581  11.788  0.00  0.00    +0.000 A 
BRANCH  19  22
ATOM     22  C   UNL     1      51.758   8.490  12.885  0.00  0.00    +0.000 C 
ATOM     23  N   UNL     1      52.907   8.670  12.906  0.00  0.00    +0.000 NA
ENDBRANCH  19  22
ENDBRANCH  15  16
ENDBRANCH  14  15
ENDBRANCH   4  14
TORSDOF 9
ENDMDL
MODEL 6
REMARK VINA RESULT:    -5.371      2.405      8.164
REMARK INTER + INTRA:          -9.379
REMARK INTER:                  -8.656
REMARK INTRA:                  -0.723
REMARK UNBOUND:                -1.183
REMARK  Name = 
REMARK  10 active torsions:
REMARK  status: ('A' for Active; 'I' for Inactive)
REMARK    1  A    between atoms: C_1  and  N_2
REMARK    2  A    between atoms: N_2  and  C_3
REMARK    3  A    between atoms: C_3  and  C_4
REMARK    4  A    between atoms: C_4  and  C_5
REMARK    5  A    between atoms: C_5  and  O_6
REMARK    6  A    between atoms: O_6  and  C_7
REMARK    7  A    between atoms: C_10  and  O_11
REMARK    8  A    between atoms: O_11  and  C_12
REMARK    9  A    between atoms: C_12  and  C_13
REMARK   10  A    between atoms: C_16  and  C_17
REMARK                            x       y       z     vdW  Elec       q    Type
REMARK                         _______ _______ _______ _____ _____    ______ ____
ROOT
ATOM      1  C   UNL     1      45.300   4.574  11.565  0.00  0.00    +0.000 A 
ATOM      2  C   UNL     1      45.978   5.792  11.651  0.00  0.00    +0.000 A 
ATOM      3  C   UNL     1      46.834   6.043  12.730  0.00  0.00    +0.000 A 
ATOM      4  C   UNL     1      47.007   5.082  13.727  0.00  0.00    +0.000 A 
ATOM      5  C   UNL     1      46.378   3.842  13.599  0.00  0.00    +0.000 A 
ATOM      6  C   UNL     1      45.511   3.600  12.537  0.00  0.00    +0.000 A 
ENDROOT
BRANCH   1   7
ATOM      7  O   UNL     1      44.371   4.245  10.617  0.00  0.00    +0.000 OA
BRANCH   7   8
ATOM      8  C   UNL     1      44.776   4.476   9.269  0.00  0.00    +0.000 C 
BRANCH   8   9
ATOM      9  C   UNL     1      45.409   3.199   8.725  0.00  0.00    +0.000 C 
BRANCH   9  10
ATOM     10  C   UNL     1      45.947   3.374   7.304  0.00  0.00    +0.000 C 
BRANCH  10  12
ATOM     11  C   UNL     1      47.343   1.413   7.147  0.00  0.00    +0.000 C 
ATOM     12  N   UNL     1      47.315   2.868   7.184  0.00  0.00    +0.000 NA
ATOM     13  H   UNL     1      47.751   3.214   6.331  0.00  0.00    +0.000 HD
ENDBRANCH  10  12
ENDBRANCH   9  10
ENDBRANCH   8   9
ENDBRANCH   7   8
ENDBRANCH   1   7
BRANCH   4  14
ATOM     14  O   UNL     1      47.785   5.453  14.796  0.00  0.00    +0.000 OA
BRANCH  14  15
ATOM     15  C   UNL     1      47.431   4.798  16.019  0.00  0.00    +0.000 C 
BRANCH  15  16
ATOM     16  C   UNL     1      48.557   3.947  16.556  0.00  0.00    +0.000 A 
ATOM     17  C   UNL     1      48.535   2.562  16.320  0.00  0.00    +0.000 A 
ATOM     18  C   UNL     1      49.588   1.751  16.750  0.00  0.00    +0.000 A 
ATOM     19  C   UNL     1      50.678   2.317  17.413  0.00  0.00    +0.000 A 
ATOM     20  C   UNL     1      50.711   3.696  17.644  0.00  0.00    +0.000 A 
ATOM     21  C   UNL     1      49.658   4.508  17.213  0.00  0.00    +0.000 A 
BRANCH  19  22
ATOM     22  C   UNL     1      51.762   1.487  17.846  0.00  0.00    +0.000 C 
ATOM     23  N   UNL     1      52.644   0.817  18.199  0.00  0.00    +0.000 NA
ENDBRANCH  19  22
ENDBRANCH  15  16
ENDBRANCH  14  15
ENDBRANCH   4  14
TORSDOF 9
ENDMDL
MODEL 7
REMARK VINA RESULT:    -4.936      2.443      8.410
REMARK INTER + INTRA:          -8.715
REMARK INTER:                  -7.935
REMARK INTRA:                  -0.781
REMARK UNBOUND:                -1.183
REMARK  Name = 
REMARK  10 active torsions:
REMARK  status: ('A' for Active; 'I' for Inactive)
REMARK    1  A    between atoms: C_1  and  N_2
REMARK    2  A    between atoms: N_2  and  C_3
REMARK    3  A    between atoms: C_3  and  C_4
REMARK    4  A    between atoms: C_4  and  C_5
REMARK    5  A    between atoms: C_5  and  O_6
REMARK    6  A    between atoms: O_6  and  C_7
REMARK    7  A    between atoms: C_10  and  O_11
REMARK    8  A    between atoms: O_11  and  C_12
REMARK    9  A    between atoms: C_12  and  C_13
REMARK   10  A    between atoms: C_16  and  C_17
REMARK                            x       y       z     vdW  Elec       q    Type
REMARK                         _______ _______ _______ _____ _____    ______ ____
ROOT
ATOM      1  C   UNL     1      44.909   5.677  12.915  0.00  0.00    +0.000 A 
ATOM      2  C   UNL     1      45.591   6.865  12.645  0.00  0.00    +0.000 A 
ATOM      3  C   UNL     1      46.894   7.051  13.122  0.00  0.00    +0.000 A 
ATOM      4  C   UNL     1      47.513   6.054  13.877  0.00  0.00    +0.000 A 
ATOM      5  C   UNL     1      46.852   4.842  14.086  0.00  0.00    +0.000 A 
ATOM      6  C   UNL     1      45.548   4.666  13.628  0.00  0.00    +0.000 A 
ENDROOT
BRANCH   1   7
ATOM      7  O   UNL     1      43.608   5.412  12.587  0.00  0.00    +0.000 OA
BRANCH   7   8
ATOM      8  C   UNL     1      43.410   4.231  11.812  0.00  0.00    +0.000 C 
BRANCH   8   9
ATOM      9  C   UNL     1      43.690   4.558  10.348  0.00  0.00    +0.000 C 
BRANCH   9  10
ATOM     10  C   UNL     1      44.591   3.517   9.681  0.00  0.00    +0.000 C 
BRANCH  10  12
ATOM     11  C   UNL     1      45.633   3.514   7.505  0.00  0.00    +0.000 C 
ATOM     12  N   UNL     1      44.374   3.470   8.234  0.00  0.00    +0.000 NA
ATOM     13  H   UNL     1      43.887   2.615   7.974  0.00  0.00    +0.000 HD
ENDBRANCH  10  12
ENDBRANCH   9  10
ENDBRANCH   8   9
ENDBRANCH   7   8
ENDBRANCH   1   7
BRANCH   4  14
ATOM     14  O   UNL     1      48.750   6.362  14.387  0.00  0.00    +0.000 OA
BRANCH  14  15
ATOM     15  C   UNL     1      48.743   6.626  15.794  0.00  0.00    +0.000 C 
BRANCH  15  16
ATOM     16  C   UNL     1      49.739   5.772  16.539  0.00  0.00    +0.000 A 
ATOM     17  C   UNL     1      49.327   4.526  17.040  0.00  0.00    +0.000 A 
ATOM     18  C   UNL     1      50.236   3.682  17.684  0.00  0.00    +0.000 A 
ATOM     19  C   UNL     1      51.569   4.072  17.826  0.00  0.00    +0.000 A 
ATOM     20  C   UNL     1      51.989   5.308  17.322  0.00  0.00    +0.000 A 
ATOM     21  C   UNL     1      51.080   6.152  16.677  0.00  0.00    +0.000 A 
BRANCH  19  22
ATOM     22  C   UNL     1      52.503   3.204  18.477  0.00  0.00    +0.000 C 
ATOM     23  N   UNL     1      53.263   2.499  19.003  0.00  0.00    +0.000 NA
ENDBRANCH  19  22
ENDBRANCH  15  16
ENDBRANCH  14  15
ENDBRANCH   4  14
TORSDOF 9
ENDMDL
MODEL 8
REMARK VINA RESULT:    -4.650      3.256      4.578
REMARK INTER + INTRA:          -8.279
REMARK INTER:                  -7.327
REMARK INTRA:                  -0.952
REMARK UNBOUND:                -1.183
REMARK  Name = 
REMARK  10 active torsions:
REMARK  status: ('A' for Active; 'I' for Inactive)
REMARK    1  A    between atoms: C_1  and  N_2
REMARK    2  A    between atoms: N_2  and  C_3
REMARK    3  A    between atoms: C_3  and  C_4
REMARK    4  A    between atoms: C_4  and  C_5
REMARK    5  A    between atoms: C_5  and  O_6
REMARK    6  A    between atoms: O_6  and  C_7
REMARK    7  A    between atoms: C_10  and  O_11
REMARK    8  A    between atoms: O_11  and  C_12
REMARK    9  A    between atoms: C_12  and  C_13
REMARK   10  A    between atoms: C_16  and  C_17
REMARK                            x       y       z     vdW  Elec       q    Type
REMARK                         _______ _______ _______ _____ _____    ______ ____
ROOT
ATOM      1  C   UNL     1      48.754   7.347  12.616  0.00  0.00    +0.000 A 
ATOM      2  C   UNL     1      48.272   6.186  13.225  0.00  0.00    +0.000 A 
ATOM      3  C   UNL     1      46.902   5.896  13.198  0.00  0.00    +0.000 A 
ATOM      4  C   UNL     1      46.013   6.770  12.572  0.00  0.00    +0.000 A 
ATOM      5  C   UNL     1      46.509   7.893  11.908  0.00  0.00    +0.000 A 
ATOM      6  C   UNL     1      47.868   8.192  11.952  0.00  0.00    +0.000 A 
ENDROOT
BRANCH   1   7
ATOM      7  O   UNL     1      50.047   7.788  12.652  0.00  0.00    +0.000 OA
BRANCH   7   8
ATOM      8  C   UNL     1      50.408   8.688  11.606  0.00  0.00    +0.000 C 
BRANCH   8   9
ATOM      9  C   UNL     1      51.846   8.398  11.189  0.00  0.00    +0.000 C 
BRANCH   9  10
ATOM     10  C   UNL     1      51.937   7.290  10.138  0.00  0.00    +0.000 C 
BRANCH  10  12
ATOM     11  C   UNL     1      52.896   6.622   8.029  0.00  0.00    +0.000 C 
ATOM     12  N   UNL     1      52.755   7.700   8.997  0.00  0.00    +0.000 NA
ATOM     13  H   UNL     1      52.336   8.497   8.524  0.00  0.00    +0.000 HD
ENDBRANCH  10  12
ENDBRANCH   9  10
ENDBRANCH   8   9
ENDBRANCH   7   8
ENDBRANCH   1   7
BRANCH   4  14
ATOM     14  O   UNL     1      44.680   6.457  12.682  0.00  0.00    +0.000 OA
BRANCH  14  15
ATOM     15  C   UNL     1      44.029   6.262  11.421  0.00  0.00    +0.000 C 
BRANCH  15  16
ATOM     16  C   UNL     1      44.581   5.073  10.673  0.00  0.00    +0.000 A 
ATOM     17  C   UNL     1      44.326   3.781  11.164  0.00  0.00    +0.000 A 
ATOM     18  C   UNL     1      44.771   2.655  10.467  0.00  0.00    +0.000 A 
ATOM     19  C   UNL     1      45.467   2.808   9.267  0.00  0.00    +0.000 A 
ATOM     20  C   UNL     1      45.717   4.090   8.767  0.00  0.00    +0.000 A 
ATOM     21  C   UNL     1      45.272   5.217   9.464  0.00  0.00    +0.000 A 
BRANCH  19  22
ATOM     22  C   UNL     1      45.914   1.654   8.547  0.00  0.00    +0.000 C 
ATOM     23  N   UNL     1      46.274   0.716   7.962  0.00  0.00    +0.000 NA
ENDBRANCH  19  22
ENDBRANCH  15  16
ENDBRANCH  14  15
ENDBRANCH   4  14
TORSDOF 9
ENDMDL
MODEL 9
REMARK VINA RESULT:    -4.625      2.410      8.694
REMARK INTER + INTRA:          -8.241
REMARK INTER:                  -7.067
REMARK INTRA:                  -1.174
REMARK UNBOUND:                -1.183
REMARK  Name = 
REMARK  10 active torsions:
REMARK  status: ('A' for Active; 'I' for Inactive)
REMARK    1  A    between atoms: C_1  and  N_2
REMARK    2  A    between atoms: N_2  and  C_3
REMARK    3  A    between atoms: C_3  and  C_4
REMARK    4  A    between atoms: C_4  and  C_5
REMARK    5  A    between atoms: C_5  and  O_6
REMARK    6  A    between atoms: O_6  and  C_7
REMARK    7  A    between atoms: C_10  and  O_11
REMARK    8  A    between atoms: O_11  and  C_12
REMARK    9  A    between atoms: C_12  and  C_13
REMARK   10  A    between atoms: C_16  and  C_17
REMARK                            x       y       z     vdW  Elec       q    Type
REMARK                         _______ _______ _______ _____ _____    ______ ____
ROOT
ATOM      1  C   UNL     1      45.875   6.871  11.843  0.00  0.00    +0.000 A 
ATOM      2  C   UNL     1      45.331   7.912  12.599  0.00  0.00    +0.000 A 
ATOM      3  C   UNL     1      46.175   8.806  13.270  0.00  0.00    +0.000 A 
ATOM      4  C   UNL     1      47.560   8.656  13.193  0.00  0.00    +0.000 A 
ATOM      5  C   UNL     1      48.096   7.655  12.381  0.00  0.00    +0.000 A 
ATOM      6  C   UNL     1      47.258   6.753  11.731  0.00  0.00    +0.000 A 
ENDROOT
BRANCH   1   7
ATOM      7  O   UNL     1      45.164   5.883  11.220  0.00  0.00    +0.000 OA
BRANCH   7   8
ATOM      8  C   UNL     1      43.753   5.934  11.424  0.00  0.00    +0.000 C 
BRANCH   8   9
ATOM      9  C   UNL     1      43.191   4.522  11.298  0.00  0.00    +0.000 C 
BRANCH   9  10
ATOM     10  C   UNL     1      43.952   3.681  10.271  0.00  0.00    +0.000 C 
BRANCH  10  12
ATOM     11  C   UNL     1      45.062   3.751   8.131  0.00  0.00    +0.000 C 
ATOM     12  N   UNL     1      44.065   4.375   8.988  0.00  0.00    +0.000 NA
ATOM     13  H   UNL     1      43.174   4.365   8.496  0.00  0.00    +0.000 HD
ENDBRANCH  10  12
ENDBRANCH   9  10
ENDBRANCH   8   9
ENDBRANCH   7   8
ENDBRANCH   1   7
BRANCH   4  14
ATOM     14  O   UNL     1      48.304   9.516  13.962  0.00  0.00    +0.000 OA
BRANCH  14  15
ATOM     15  C   UNL     1      49.342   8.869  14.707  0.00  0.00    +0.000 C 
BRANCH  15  16
ATOM     16  C   UNL     1      48.835   8.295  16.009  0.00  0.00    +0.000 A 
ATOM     17  C   UNL     1      48.971   6.917  16.243  0.00  0.00    +0.000 A 
ATOM     18  C   UNL     1      48.567   6.360  17.460  0.00  0.00    +0.000 A 
ATOM     19  C   UNL     1      48.031   7.176  18.457  0.00  0.00    +0.000 A 
ATOM     20  C   UNL     1      47.901   8.551  18.234  0.00  0.00    +0.000 A 
ATOM     21  C   UNL     1      48.306   9.109  17.017  0.00  0.00    +0.000 A 
BRANCH  19  22
ATOM     22  C   UNL     1      47.627   6.607  19.707  0.00  0.00    +0.000 C 
ATOM     23  N   UNL     1      47.296   6.148  20.723  0.00  0.00    +0.000 NA
ENDBRANCH  19  22
ENDBRANCH  15  16
ENDBRANCH  14  15
ENDBRANCH   4  14
TORSDOF 9
ENDMDL
