MODEL 1
REMARK VINA RESULT:    -7.619      0.000      0.000
REMARK INTER + INTRA:         -11.358
REMARK INTER:                 -10.292
REMARK INTRA:                  -1.066
REMARK UNBOUND:                -1.066
REMARK  Name = 
REMARK  8 active torsions:
REMARK  status: ('A' for Active; 'I' for Inactive)
REMARK    1  A    between atoms: C_1  and  C_2
REMARK    2  A    between atoms: N_4  and  C_5
REMARK    3  A    between atoms: C_7  and  C_8
REMARK    4  A    between atoms: C_8  and  C_9
REMARK    5  A    between atoms: C_9  and  N_10
REMARK    6  A    between atoms: C_15  and  C_16
REMARK    7  A    between atoms: C_21  and  C_22
REMARK    8  A    between atoms: C_28  and  C_29
REMARK                            x       y       z     vdW  Elec       q    Type
REMARK                         _______ _______ _______ _____ _____    ______ ____
ROOT
ATOM      1  C   UNL     1      44.927   6.786  12.138  0.00  0.00    +0.000 A 
ATOM      2  C   UNL     1      46.185   6.615  12.747  0.00  0.00    +0.000 A 
ATOM      3  C   UNL     1      47.077   7.685  12.963  0.00  0.00    +0.000 A 
ATOM      4  C   UNL     1      46.674   8.969  12.578  0.00  0.00    +0.000 A 
ATOM      5  C   UNL     1      45.439   9.187  11.966  0.00  0.00    +0.000 A 
ATOM      6  C   UNL     1      44.586   8.094  11.758  0.00  0.00    +0.000 A 
ENDROOT
BRANCH   1  10
ATOM      7  C   UNL     1      45.006   3.931   9.438  0.00  0.00    +0.000 C 
ATOM      8  C   UNL     1      43.658   4.055  10.145  0.00  0.00    +0.000 C 
ATOM      9  C   UNL     1      43.377   5.494  10.641  0.00  0.00    +0.000 C 
ATOM     10  N   UNL     1      44.064   5.735  11.916  0.00  0.00    +0.000 N 
ATOM     11  C   UNL     1      43.732   4.737  12.942  0.00  0.00    +0.000 C 
ATOM     12  C   UNL     1      44.064   3.320  12.439  0.00  0.00    +0.000 C 
ATOM     13  C   UNL     1      45.554   2.995  12.490  0.00  0.00    +0.000 C 
ATOM     14  O   UNL     1      43.488   3.040  11.152  0.00  0.00    +0.000 OA
ENDBRANCH   1  10
BRANCH   5  15
ATOM     15  C   UNL     1      45.028  10.564  11.517  0.00  0.00    +0.000 C 
ATOM     16  F   UNL     1      43.842  10.978  12.049  0.00  0.00    +0.000 F 
ATOM     17  F   UNL     1      45.938  11.516  11.862  0.00  0.00    +0.000 F 
ATOM     18  F   UNL     1      44.882  10.656  10.167  0.00  0.00    +0.000 F 
ENDBRANCH   5  15
BRANCH   3  19
ATOM     19  C   UNL     1      48.446   7.407  13.569  0.00  0.00    +0.000 C 
BRANCH  19  20
ATOM     20  C   UNL     1      48.448   6.267  14.596  0.00  0.00    +0.000 C 
BRANCH  20  21
ATOM     21  N   UNL     1      48.105   6.706  15.948  0.00  0.00    +0.000 N 
ATOM     22  C   UNL     1      48.390   5.702  16.904  0.00  0.00    +0.000 A 
ATOM     23  C   UNL     1      48.107   5.966  18.242  0.00  0.00    +0.000 A 
ATOM     24  C   UNL     1      48.399   5.005  19.213  0.00  0.00    +0.000 A 
ATOM     25  C   UNL     1      48.965   3.799  18.827  0.00  0.00    +0.000 A 
ATOM     26  C   UNL     1      49.221   3.611  17.480  0.00  0.00    +0.000 A 
ATOM     27  N   UNL     1      48.950   4.536  16.518  0.00  0.00    +0.000 NA
ATOM     28  H   UNL     1      47.126   6.964  16.036  0.00  0.00    +0.000 HD
BRANCH  26  29
ATOM     29  C   UNL     1      49.818   2.322  17.005  0.00  0.00    +0.000 C 
ATOM     30  N   UNL     1      50.840   1.827  17.768  0.00  0.00    +0.000 N 
ATOM     31  O   UNL     1      49.427   1.744  15.997  0.00  0.00    +0.000 OA
ATOM     32  H   UNL     1      51.130   2.326  18.600  0.00  0.00    +0.000 HD
ATOM     33  H   UNL     1      51.282   0.957  17.509  0.00  0.00    +0.000 HD
ENDBRANCH  26  29
ENDBRANCH  20  21
ENDBRANCH  19  20
ENDBRANCH   3  19
TORSDOF 6
ENDMDL
MODEL 2
REMARK VINA RESULT:    -7.299      1.540      2.257
REMARK INTER + INTRA:         -10.926
REMARK INTER:                  -9.749
REMARK INTRA:                  -1.177
REMARK UNBOUND:                -1.066
REMARK  Name = 
REMARK  8 active torsions:
REMARK  status: ('A' for Active; 'I' for Inactive)
REMARK    1  A    between atoms: C_1  and  C_2
REMARK    2  A    between atoms: N_4  and  C_5
REMARK    3  A    between atoms: C_7  and  C_8
REMARK    4  A    between atoms: C_8  and  C_9
REMARK    5  A    between atoms: C_9  and  N_10
REMARK    6  A    between atoms: C_15  and  C_16
REMARK    7  A    between atoms: C_21  and  C_22
REMARK    8  A    between atoms: C_28  and  C_29
REMARK                            x       y       z     vdW  Elec       q    Type
REMARK                         _______ _______ _______ _____ _____    ______ ____
ROOT
ATOM      1  C   UNL     1      45.959   6.040  12.819  0.00  0.00    +0.000 A 
ATOM      2  C   UNL     1      47.253   6.089  13.372  0.00  0.00    +0.000 A 
ATOM      3  C   UNL     1      47.982   7.289  13.497  0.00  0.00    +0.000 A 
ATOM      4  C   UNL     1      47.375   8.478  13.075  0.00  0.00    +0.000 A 
ATOM      5  C   UNL     1      46.097   8.479  12.516  0.00  0.00    +0.000 A 
ATOM      6  C   UNL     1      45.410   7.263  12.398  0.00  0.00    +0.000 A 
ENDROOT
BRANCH   1  10
ATOM      7  C   UNL     1      42.315   5.364  11.511  0.00  0.00    +0.000 C 
ATOM      8  C   UNL     1      42.917   4.176  12.259  0.00  0.00    +0.000 C 
ATOM      9  C   UNL     1      43.956   4.608  13.322  0.00  0.00    +0.000 C 
ATOM     10  N   UNL     1      45.256   4.863  12.686  0.00  0.00    +0.000 N 
ATOM     11  C   UNL     1      45.737   3.724  11.893  0.00  0.00    +0.000 C 
ATOM     12  C   UNL     1      44.705   3.345  10.816  0.00  0.00    +0.000 C 
ATOM     13  C   UNL     1      44.711   4.289   9.616  0.00  0.00    +0.000 C 
ATOM     14  O   UNL     1      43.386   3.158  11.356  0.00  0.00    +0.000 OA
ENDBRANCH   1  10
BRANCH   5  15
ATOM     15  C   UNL     1      45.465   9.755  12.027  0.00  0.00    +0.000 C 
ATOM     16  F   UNL     1      46.296  10.834  12.095  0.00  0.00    +0.000 F 
ATOM     17  F   UNL     1      45.072   9.675  10.725  0.00  0.00    +0.000 F 
ATOM     18  F   UNL     1      44.353  10.097  12.734  0.00  0.00    +0.000 F 
ENDBRANCH   5  15
BRANCH   3  19
ATOM     19  C   UNL     1      49.402   7.248  14.046  0.00  0.00    +0.000 C 
BRANCH  19  20
ATOM     20  C   UNL     1      49.499   7.601  15.536  0.00  0.00    +0.000 C 
BRANCH  20  21
ATOM     21  N   UNL     1      50.642   6.982  16.204  0.00  0.00    +0.000 N 
ATOM     22  C   UNL     1      50.316   5.696  16.698  0.00  0.00    +0.000 A 
ATOM     23  C   UNL     1      51.301   4.979  17.373  0.00  0.00    +0.000 A 
ATOM     24  C   UNL     1      51.019   3.698  17.851  0.00  0.00    +0.000 A 
ATOM     25  C   UNL     1      49.757   3.159  17.647  0.00  0.00    +0.000 A 
ATOM     26  C   UNL     1      48.831   3.929  16.965  0.00  0.00    +0.000 A 
ATOM     27  N   UNL     1      49.088   5.178  16.486  0.00  0.00    +0.000 NA
ATOM     28  H   UNL     1      50.990   7.543  16.977  0.00  0.00    +0.000 HD
BRANCH  26  29
ATOM     29  C   UNL     1      47.449   3.403  16.729  0.00  0.00    +0.000 C 
ATOM     30  N   UNL     1      46.899   2.700  17.765  0.00  0.00    +0.000 N 
ATOM     31  O   UNL     1      46.844   3.583  15.678  0.00  0.00    +0.000 OA
ATOM     32  H   UNL     1      47.424   2.580  18.623  0.00  0.00    +0.000 HD
ATOM     33  H   UNL     1      45.967   2.324  17.676  0.00  0.00    +0.000 HD
ENDBRANCH  26  29
ENDBRANCH  20  21
ENDBRANCH  19  20
ENDBRANCH   3  19
TORSDOF 6
ENDMDL
MODEL 3
REMARK VINA RESULT:    -6.895      2.831      4.081
REMARK INTER + INTRA:         -10.379
REMARK INTER:                  -9.254
REMARK INTRA:                  -1.125
REMARK UNBOUND:                -1.066
REMARK  Name = 
REMARK  8 active torsions:
REMARK  status: ('A' for Active; 'I' for Inactive)
REMARK    1  A    between atoms: C_1  and  C_2
REMARK    2  A    between atoms: N_4  and  C_5
REMARK    3  A    between atoms: C_7  and  C_8
REMARK    4  A    between atoms: C_8  and  C_9
REMARK    5  A    between atoms: C_9  and  N_10
REMARK    6  A    between atoms: C_15  and  C_16
REMARK    7  A    between atoms: C_21  and  C_22
REMARK    8  A    between atoms: C_28  and  C_29
REMARK                            x       y       z     vdW  Elec       q    Type
REMARK                         _______ _______ _______ _____ _____    ______ ____
ROOT
ATOM      1  C   UNL     1      46.418   6.000  12.555  0.00  0.00    +0.000 A 
ATOM      2  C   UNL     1      46.296   5.114  13.642  0.00  0.00    +0.000 A 
ATOM      3  C   UNL     1      47.245   5.053  14.683  0.00  0.00    +0.000 A 
ATOM      4  C   UNL     1      48.333   5.933  14.638  0.00  0.00    +0.000 A 
ATOM      5  C   UNL     1      48.498   6.824  13.578  0.00  0.00    +0.000 A 
ATOM      6  C   UNL     1      47.540   6.845  12.556  0.00  0.00    +0.000 A 
ENDROOT
BRANCH   1  10
ATOM      7  C   UNL     1      44.411   3.123  10.782  0.00  0.00    +0.000 C 
ATOM      8  C   UNL     1      44.379   4.443  10.014  0.00  0.00    +0.000 C 
ATOM      9  C   UNL     1      45.636   5.310  10.269  0.00  0.00    +0.000 C 
ATOM     10  N   UNL     1      45.496   6.046  11.532  0.00  0.00    +0.000 N 
ATOM     11  C   UNL     1      44.266   6.847  11.594  0.00  0.00    +0.000 C 
ATOM     12  C   UNL     1      43.031   5.953  11.382  0.00  0.00    +0.000 C 
ATOM     13  C   UNL     1      42.658   5.137  12.616  0.00  0.00    +0.000 C 
ATOM     14  O   UNL     1      43.133   5.140  10.200  0.00  0.00    +0.000 OA
ENDBRANCH   1  10
BRANCH   5  15
ATOM     15  C   UNL     1      49.692   7.740  13.514  0.00  0.00    +0.000 C 
ATOM     16  F   UNL     1      50.662   7.434  14.423  0.00  0.00    +0.000 F 
ATOM     17  F   UNL     1      50.304   7.711  12.298  0.00  0.00    +0.000 F 
ATOM     18  F   UNL     1      49.369   9.044  13.740  0.00  0.00    +0.000 F 
ENDBRANCH   5  15
BRANCH   3  19
ATOM     19  C   UNL     1      47.076   4.021  15.791  0.00  0.00    +0.000 C 
BRANCH  19  20
ATOM     20  C   UNL     1      48.263   3.954  16.759  0.00  0.00    +0.000 C 
BRANCH  20  21
ATOM     21  N   UNL     1      48.828   2.612  16.891  0.00  0.00    +0.000 N 
ATOM     22  C   UNL     1      50.205   2.661  17.218  0.00  0.00    +0.000 A 
ATOM     23  C   UNL     1      50.891   1.458  17.368  0.00  0.00    +0.000 A 
ATOM     24  C   UNL     1      52.243   1.472  17.714  0.00  0.00    +0.000 A 
ATOM     25  C   UNL     1      52.884   2.687  17.903  0.00  0.00    +0.000 A 
ATOM     26  C   UNL     1      52.135   3.841  17.741  0.00  0.00    +0.000 A 
ATOM     27  N   UNL     1      50.815   3.849  17.409  0.00  0.00    +0.000 NA
ATOM     28  H   UNL     1      48.720   2.060  16.044  0.00  0.00    +0.000 HD
BRANCH  26  29
ATOM     29  C   UNL     1      52.779   5.182  17.919  0.00  0.00    +0.000 C 
ATOM     30  N   UNL     1      52.777   5.989  16.815  0.00  0.00    +0.000 N 
ATOM     31  O   UNL     1      53.281   5.538  18.978  0.00  0.00    +0.000 OA
ATOM     32  H   UNL     1      52.344   5.666  15.958  0.00  0.00    +0.000 HD
ATOM     33  H   UNL     1      53.188   6.910  16.867  0.00  0.00    +0.000 HD
ENDBRANCH  26  29
ENDBRANCH  20  21
ENDBRANCH  19  20
ENDBRANCH   3  19
TORSDOF 6
ENDMDL
MODEL 4
REMARK VINA RESULT:    -6.889      3.255      7.729
REMARK INTER + INTRA:         -10.371
REMARK INTER:                  -9.351
REMARK INTRA:                  -1.019
REMARK UNBOUND:                -1.066
REMARK  Name = 
REMARK  8 active torsions:
REMARK  status: ('A' for Active; 'I' for Inactive)
REMARK    1  A    between atoms: C_1  and  C_2
REMARK    2  A    between atoms: N_4  and  C_5
REMARK    3  A    between atoms: C_7  and  C_8
REMARK    4  A    between atoms: C_8  and  C_9
REMARK    5  A    between atoms: C_9  and  N_10
REMARK    6  A    between atoms: C_15  and  C_16
REMARK    7  A    between atoms: C_21  and  C_22
REMARK    8  A    between atoms: C_28  and  C_29
REMARK                            x       y       z     vdW  Elec       q    Type
REMARK                         _______ _______ _______ _____ _____    ______ ____
ROOT
ATOM      1  C   UNL     1      49.828   6.382  16.320  0.00  0.00    +0.000 A 
ATOM      2  C   UNL     1      48.677   6.630  15.549  0.00  0.00    +0.000 A 
ATOM      3  C   UNL     1      48.690   7.458  14.407  0.00  0.00    +0.000 A 
ATOM      4  C   UNL     1      49.909   8.028  14.019  0.00  0.00    +0.000 A 
ATOM      5  C   UNL     1      51.074   7.815  14.755  0.00  0.00    +0.000 A 
ATOM      6  C   UNL     1      51.016   6.996  15.891  0.00  0.00    +0.000 A 
ENDROOT
BRANCH   1  10
ATOM      7  C   UNL     1      47.167   6.073  19.196  0.00  0.00    +0.000 C 
ATOM      8  C   UNL     1      48.507   5.429  19.543  0.00  0.00    +0.000 C 
ATOM      9  C   UNL     1      49.696   6.100  18.813  0.00  0.00    +0.000 C 
ATOM     10  N   UNL     1      49.806   5.584  17.443  0.00  0.00    +0.000 N 
ATOM     11  C   UNL     1      49.899   4.119  17.390  0.00  0.00    +0.000 C 
ATOM     12  C   UNL     1      48.682   3.478  18.083  0.00  0.00    +0.000 C 
ATOM     13  C   UNL     1      47.416   3.511  17.232  0.00  0.00    +0.000 C 
ATOM     14  O   UNL     1      48.464   3.997  19.406  0.00  0.00    +0.000 OA
ENDBRANCH   1  10
BRANCH   5  15
ATOM     15  C   UNL     1      52.373   8.463  14.356  0.00  0.00    +0.000 C 
ATOM     16  F   UNL     1      53.414   7.587  14.270  0.00  0.00    +0.000 F 
ATOM     17  F   UNL     1      52.299   9.068  13.138  0.00  0.00    +0.000 F 
ATOM     18  F   UNL     1      52.771   9.429  15.230  0.00  0.00    +0.000 F 
ENDBRANCH   5  15
BRANCH   3  19
ATOM     19  C   UNL     1      47.389   7.730  13.664  0.00  0.00    +0.000 C 
BRANCH  19  20
ATOM     20  C   UNL     1      46.904   6.548  12.815  0.00  0.00    +0.000 C 
BRANCH  20  21
ATOM     21  N   UNL     1      45.878   5.743  13.475  0.00  0.00    +0.000 N 
ATOM     22  C   UNL     1      45.148   4.969  12.540  0.00  0.00    +0.000 A 
ATOM     23  C   UNL     1      44.124   4.154  13.015  0.00  0.00    +0.000 A 
ATOM     24  C   UNL     1      43.401   3.361  12.121  0.00  0.00    +0.000 A 
ATOM     25  C   UNL     1      43.715   3.399  10.771  0.00  0.00    +0.000 A 
ATOM     26  C   UNL     1      44.748   4.231  10.374  0.00  0.00    +0.000 A 
ATOM     27  N   UNL     1      45.469   5.008  11.230  0.00  0.00    +0.000 NA
ATOM     28  H   UNL     1      45.221   6.309  14.004  0.00  0.00    +0.000 HD
BRANCH  26  29
ATOM     29  C   UNL     1      45.121   4.323   8.927  0.00  0.00    +0.000 C 
ATOM     30  N   UNL     1      44.420   3.507   8.083  0.00  0.00    +0.000 N 
ATOM     31  O   UNL     1      45.998   5.075   8.517  0.00  0.00    +0.000 OA
ATOM     32  H   UNL     1      43.694   2.906   8.455  0.00  0.00    +0.000 HD
ATOM     33  H   UNL     1      44.615   3.524   7.092  0.00  0.00    +0.000 HD
ENDBRANCH  26  29
ENDBRANCH  20  21
ENDBRANCH  19  20
ENDBRANCH   3  19
TORSDOF 6
ENDMDL
MODEL 5
REMARK VINA RESULT:    -6.877      3.018      7.590
REMARK INTER + INTRA:         -10.356
REMARK INTER:                  -9.230
REMARK INTRA:                  -1.125
REMARK UNBOUND:                -1.066
REMARK  Name = 
REMARK  8 active torsions:
REMARK  status: ('A' for Active; 'I' for Inactive)
REMARK    1  A    between atoms: C_1  and  C_2
REMARK    2  A    between atoms: N_4  and  C_5
REMARK    3  A    between atoms: C_7  and  C_8
REMARK    4  A    between atoms: C_8  and  C_9
REMARK    5  A    between atoms: C_9  and  N_10
REMARK    6  A    between atoms: C_15  and  C_16
REMARK    7  A    between atoms: C_21  and  C_22
REMARK    8  A    between atoms: C_28  and  C_29
REMARK                            x       y       z     vdW  Elec       q    Type
REMARK                         _______ _______ _______ _____ _____    ______ ____
ROOT
ATOM      1  C   UNL     1      49.227   7.292  14.726  0.00  0.00    +0.000 A 
ATOM      2  C   UNL     1      47.892   7.641  14.448  0.00  0.00    +0.000 A 
ATOM      3  C   UNL     1      47.494   8.209  13.221  0.00  0.00    +0.000 A 
ATOM      4  C   UNL     1      48.469   8.405  12.236  0.00  0.00    +0.000 A 
ATOM      5  C   UNL     1      49.806   8.080  12.467  0.00  0.00    +0.000 A 
ATOM      6  C   UNL     1      50.163   7.529  13.705  0.00  0.00    +0.000 A 
ENDROOT
BRANCH   1  10
ATOM      7  C   UNL     1      51.167   8.889  17.748  0.00  0.00    +0.000 C 
ATOM      8  C   UNL     1      51.105   7.364  17.810  0.00  0.00    +0.000 C 
ATOM      9  C   UNL     1      51.003   6.717  16.407  0.00  0.00    +0.000 C 
ATOM     10  N   UNL     1      49.614   6.751  15.932  0.00  0.00    +0.000 N 
ATOM     11  C   UNL     1      48.671   6.139  16.878  0.00  0.00    +0.000 C 
ATOM     12  C   UNL     1      48.761   6.832  18.250  0.00  0.00    +0.000 C 
ATOM     13  C   UNL     1      48.053   8.183  18.292  0.00  0.00    +0.000 C 
ATOM     14  O   UNL     1      50.109   6.907  18.744  0.00  0.00    +0.000 OA
ENDBRANCH   1  10
BRANCH   5  15
ATOM     15  C   UNL     1      50.858   8.330  11.419  0.00  0.00    +0.000 C 
ATOM     16  F   UNL     1      50.891   7.378  10.443  0.00  0.00    +0.000 F 
ATOM     17  F   UNL     1      50.675   9.514  10.772  0.00  0.00    +0.000 F 
ATOM     18  F   UNL     1      52.117   8.377  11.936  0.00  0.00    +0.000 F 
ENDBRANCH   5  15
BRANCH   3  19
ATOM     19  C   UNL     1      46.040   8.618  13.022  0.00  0.00    +0.000 C 
BRANCH  19  20
ATOM     20  C   UNL     1      45.241   7.650  12.141  0.00  0.00    +0.000 C 
BRANCH  20  21
ATOM     21  N   UNL     1      44.528   6.627  12.904  0.00  0.00    +0.000 N 
ATOM     22  C   UNL     1      44.308   5.463  12.128  0.00  0.00    +0.000 A 
ATOM     23  C   UNL     1      43.629   4.398  12.714  0.00  0.00    +0.000 A 
ATOM     24  C   UNL     1      43.418   3.227  11.983  0.00  0.00    +0.000 A 
ATOM     25  C   UNL     1      43.888   3.144  10.681  0.00  0.00    +0.000 A 
ATOM     26  C   UNL     1      44.558   4.242  10.168  0.00  0.00    +0.000 A 
ATOM     27  N   UNL     1      44.779   5.390  10.866  0.00  0.00    +0.000 NA
ATOM     28  H   UNL     1      43.630   6.955  13.250  0.00  0.00    +0.000 HD
BRANCH  26  29
ATOM     29  C   UNL     1      45.075   4.213   8.763  0.00  0.00    +0.000 C 
ATOM     30  N   UNL     1      44.488   3.297   7.935  0.00  0.00    +0.000 N 
ATOM     31  O   UNL     1      45.969   4.955   8.373  0.00  0.00    +0.000 OA
ATOM     32  H   UNL     1      43.744   2.707   8.289  0.00  0.00    +0.000 HD
ATOM     33  H   UNL     1      44.783   3.229   6.972  0.00  0.00    +0.000 HD
ENDBRANCH  26  29
ENDBRANCH  20  21
ENDBRANCH  19  20
ENDBRANCH   3  19
TORSDOF 6
ENDMDL
MODEL 6
REMARK VINA RESULT:    -6.868      4.366      8.569
REMARK INTER + INTRA:         -10.342
REMARK INTER:                  -9.454
REMARK INTRA:                  -0.888
REMARK UNBOUND:                -1.066
REMARK  Name = 
REMARK  8 active torsions:
REMARK  status: ('A' for Active; 'I' for Inactive)
REMARK    1  A    between atoms: C_1  and  C_2
REMARK    2  A    between atoms: N_4  and  C_5
REMARK    3  A    between atoms: C_7  and  C_8
REMARK    4  A    between atoms: C_8  and  C_9
REMARK    5  A    between atoms: C_9  and  N_10
REMARK    6  A    between atoms: C_15  and  C_16
REMARK    7  A    between atoms: C_21  and  C_22
REMARK    8  A    between atoms: C_28  and  C_29
REMARK                            x       y       z     vdW  Elec       q    Type
REMARK                         _______ _______ _______ _____ _____    ______ ____
ROOT
ATOM      1  C   UNL     1      49.031   6.849  16.831  0.00  0.00    +0.000 A 
ATOM      2  C   UNL     1      48.679   7.050  15.483  0.00  0.00    +0.000 A 
ATOM      3  C   UNL     1      48.103   6.038  14.688  0.00  0.00    +0.000 A 
ATOM      4  C   UNL     1      47.850   4.796  15.282  0.00  0.00    +0.000 A 
ATOM      5  C   UNL     1      48.186   4.548  16.612  0.00  0.00    +0.000 A 
ATOM      6  C   UNL     1      48.769   5.577  17.365  0.00  0.00    +0.000 A 
ENDROOT
BRANCH   1  10
ATOM      7  C   UNL     1      47.933  10.568  17.473  0.00  0.00    +0.000 C 
ATOM      8  C   UNL     1      49.371  10.281  17.902  0.00  0.00    +0.000 C 
ATOM      9  C   UNL     1      50.022   9.145  17.076  0.00  0.00    +0.000 C 
ATOM     10  N   UNL     1      49.608   7.836  17.599  0.00  0.00    +0.000 N 
ATOM     11  C   UNL     1      49.878   7.683  19.035  0.00  0.00    +0.000 C 
ATOM     12  C   UNL     1      49.182   8.799  19.835  0.00  0.00    +0.000 C 
ATOM     13  C   UNL     1      47.683   8.571  20.010  0.00  0.00    +0.000 C 
ATOM     14  O   UNL     1      49.479  10.111  19.328  0.00  0.00    +0.000 OA
ENDBRANCH   1  10
BRANCH   5  15
ATOM     15  C   UNL     1      47.949   3.197  17.234  0.00  0.00    +0.000 C 
ATOM     16  F   UNL     1      46.629   2.872  17.342  0.00  0.00    +0.000 F 
ATOM     17  F   UNL     1      48.519   2.189  16.517  0.00  0.00    +0.000 F 
ATOM     18  F   UNL     1      48.461   3.098  18.492  0.00  0.00    +0.000 F 
ENDBRANCH   5  15
BRANCH   3  19
ATOM     19  C   UNL     1      47.810   6.316  13.219  0.00  0.00    +0.000 C 
BRANCH  19  20
ATOM     20  C   UNL     1      46.345   6.671  12.937  0.00  0.00    +0.000 C 
BRANCH  20  21
ATOM     21  N   UNL     1      45.397   5.721  13.517  0.00  0.00    +0.000 N 
ATOM     22  C   UNL     1      44.837   4.880  12.525  0.00  0.00    +0.000 A 
ATOM     23  C   UNL     1      43.904   3.924  12.919  0.00  0.00    +0.000 A 
ATOM     24  C   UNL     1      43.351   3.064  11.969  0.00  0.00    +0.000 A 
ATOM     25  C   UNL     1      43.740   3.176  10.642  0.00  0.00    +0.000 A 
ATOM     26  C   UNL     1      44.676   4.147  10.327  0.00  0.00    +0.000 A 
ATOM     27  N   UNL     1      45.230   4.992  11.239  0.00  0.00    +0.000 NA
ATOM     28  H   UNL     1      44.638   6.181  14.012  0.00  0.00    +0.000 HD
BRANCH  26  29
ATOM     29  C   UNL     1      45.121   4.323   8.908  0.00  0.00    +0.000 C 
ATOM     30  N   UNL     1      44.456   3.568   7.981  0.00  0.00    +0.000 N 
ATOM     31  O   UNL     1      46.025   5.088   8.589  0.00  0.00    +0.000 OA
ATOM     32  H   UNL     1      43.707   2.955   8.279  0.00  0.00    +0.000 HD
ATOM     33  H   UNL     1      44.701   3.644   7.005  0.00  0.00    +0.000 HD
ENDBRANCH  26  29
ENDBRANCH  20  21
ENDBRANCH  19  20
ENDBRANCH   3  19
TORSDOF 6
ENDMDL
MODEL 7
REMARK VINA RESULT:    -6.659      2.963      4.526
REMARK INTER + INTRA:         -10.060
REMARK INTER:                  -8.796
REMARK INTRA:                  -1.264
REMARK UNBOUND:                -1.066
REMARK  Name = 
REMARK  8 active torsions:
REMARK  status: ('A' for Active; 'I' for Inactive)
REMARK    1  A    between atoms: C_1  and  C_2
REMARK    2  A    between atoms: N_4  and  C_5
REMARK    3  A    between atoms: C_7  and  C_8
REMARK    4  A    between atoms: C_8  and  C_9
REMARK    5  A    between atoms: C_9  and  N_10
REMARK    6  A    between atoms: C_15  and  C_16
REMARK    7  A    between atoms: C_21  and  C_22
REMARK    8  A    between atoms: C_28  and  C_29
REMARK                            x       y       z     vdW  Elec       q    Type
REMARK                         _______ _______ _______ _____ _____    ______ ____
ROOT
ATOM      1  C   UNL     1      46.031   4.698  13.289  0.00  0.00    +0.000 A 
ATOM      2  C   UNL     1      46.447   4.280  14.567  0.00  0.00    +0.000 A 
ATOM      3  C   UNL     1      47.510   4.895  15.260  0.00  0.00    +0.000 A 
ATOM      4  C   UNL     1      48.152   5.982  14.655  0.00  0.00    +0.000 A 
ATOM      5  C   UNL     1      47.778   6.429  13.387  0.00  0.00    +0.000 A 
ATOM      6  C   UNL     1      46.725   5.782  12.726  0.00  0.00    +0.000 A 
ENDROOT
BRANCH   1  10
ATOM      7  C   UNL     1      43.022   6.223  11.272  0.00  0.00    +0.000 C 
ATOM      8  C   UNL     1      42.843   4.741  11.594  0.00  0.00    +0.000 C 
ATOM      9  C   UNL     1      43.580   4.321  12.889  0.00  0.00    +0.000 C 
ATOM     10  N   UNL     1      45.002   4.085  12.609  0.00  0.00    +0.000 N 
ATOM     11  C   UNL     1      45.219   3.115  11.527  0.00  0.00    +0.000 C 
ATOM     12  C   UNL     1      44.513   3.580  10.240  0.00  0.00    +0.000 C 
ATOM     13  C   UNL     1      45.263   4.689   9.507  0.00  0.00    +0.000 C 
ATOM     14  O   UNL     1      43.130   3.907  10.455  0.00  0.00    +0.000 OA
ENDBRANCH   1  10
BRANCH   5  15
ATOM     15  C   UNL     1      48.498   7.573  12.725  0.00  0.00    +0.000 C 
ATOM     16  F   UNL     1      49.854   7.429  12.714  0.00  0.00    +0.000 F 
ATOM     17  F   UNL     1      48.134   7.731  11.422  0.00  0.00    +0.000 F 
ATOM     18  F   UNL     1      48.256   8.769  13.329  0.00  0.00    +0.000 F 
ENDBRANCH   5  15
BRANCH   3  19
ATOM     19  C   UNL     1      47.942   4.341  16.611  0.00  0.00    +0.000 C 
BRANCH  19  20
ATOM     20  C   UNL     1      48.807   5.310  17.428  0.00  0.00    +0.000 C 
BRANCH  20  21
ATOM     21  N   UNL     1      48.323   5.506  18.793  0.00  0.00    +0.000 N 
ATOM     22  C   UNL     1      48.071   6.874  19.060  0.00  0.00    +0.000 A 
ATOM     23  C   UNL     1      47.614   7.225  20.328  0.00  0.00    +0.000 A 
ATOM     24  C   UNL     1      47.333   8.562  20.615  0.00  0.00    +0.000 A 
ATOM     25  C   UNL     1      47.516   9.522  19.631  0.00  0.00    +0.000 A 
ATOM     26  C   UNL     1      47.969   9.096  18.394  0.00  0.00    +0.000 A 
ATOM     27  N   UNL     1      48.244   7.797  18.092  0.00  0.00    +0.000 NA
ATOM     28  H   UNL     1      48.976   5.159  19.491  0.00  0.00    +0.000 HD
BRANCH  26  29
ATOM     29  C   UNL     1      48.199  10.091  17.298  0.00  0.00    +0.000 C 
ATOM     30  N   UNL     1      47.603  11.310  17.471  0.00  0.00    +0.000 N 
ATOM     31  O   UNL     1      48.871   9.837  16.305  0.00  0.00    +0.000 OA
ATOM     32  H   UNL     1      47.063  11.489  18.310  0.00  0.00    +0.000 HD
ATOM     33  H   UNL     1      47.723  12.030  16.774  0.00  0.00    +0.000 HD
ENDBRANCH  26  29
ENDBRANCH  20  21
ENDBRANCH  19  20
ENDBRANCH   3  19
TORSDOF 6
ENDMDL
MODEL 8
REMARK VINA RESULT:    -6.649      4.868      9.356
REMARK INTER + INTRA:         -10.047
REMARK INTER:                  -9.006
REMARK INTRA:                  -1.041
REMARK UNBOUND:                -1.066
REMARK  Name = 
REMARK  8 active torsions:
REMARK  status: ('A' for Active; 'I' for Inactive)
REMARK    1  A    between atoms: C_1  and  C_2
REMARK    2  A    between atoms: N_4  and  C_5
REMARK    3  A    between atoms: C_7  and  C_8
REMARK    4  A    between atoms: C_8  and  C_9
REMARK    5  A    between atoms: C_9  and  N_10
REMARK    6  A    between atoms: C_15  and  C_16
REMARK    7  A    between atoms: C_21  and  C_22
REMARK    8  A    between atoms: C_28  and  C_29
REMARK                            x       y       z     vdW  Elec       q    Type
REMARK                         _______ _______ _______ _____ _____    ______ ____
ROOT
ATOM      1  C   UNL     1      49.650   4.969  19.284  0.00  0.00    +0.000 A 
ATOM      2  C   UNL     1      48.701   4.426  18.397  0.00  0.00    +0.000 A 
ATOM      3  C   UNL     1      49.036   3.465  17.421  0.00  0.00    +0.000 A 
ATOM      4  C   UNL     1      50.362   3.020  17.359  0.00  0.00    +0.000 A 
ATOM      5  C   UNL     1      51.337   3.532  18.214  0.00  0.00    +0.000 A 
ATOM      6  C   UNL     1      50.967   4.496  19.162  0.00  0.00    +0.000 A 
ENDROOT
BRANCH   1  10
ATOM      7  C   UNL     1      50.656   8.757  19.565  0.00  0.00    +0.000 C 
ATOM      8  C   UNL     1      50.062   8.194  20.855  0.00  0.00    +0.000 C 
ATOM      9  C   UNL     1      50.309   6.674  21.008  0.00  0.00    +0.000 C 
ATOM     10  N   UNL     1      49.322   5.918  20.227  0.00  0.00    +0.000 N 
ATOM     11  C   UNL     1      47.936   6.275  20.559  0.00  0.00    +0.000 C 
ATOM     12  C   UNL     1      47.706   7.784  20.354  0.00  0.00    +0.000 C 
ATOM     13  C   UNL     1      47.542   8.176  18.888  0.00  0.00    +0.000 C 
ATOM     14  O   UNL     1      48.689   8.589  21.028  0.00  0.00    +0.000 OA
ENDBRANCH   1  10
BRANCH   5  15
ATOM     15  C   UNL     1      52.770   3.079  18.116  0.00  0.00    +0.000 C 
ATOM     16  F   UNL     1      52.928   1.927  17.404  0.00  0.00    +0.000 F 
ATOM     17  F   UNL     1      53.566   4.001  17.506  0.00  0.00    +0.000 F 
ATOM     18  F   UNL     1      53.333   2.845  19.333  0.00  0.00    +0.000 F 
ENDBRANCH   5  15
BRANCH   3  19
ATOM     19  C   UNL     1      47.965   2.975  16.456  0.00  0.00    +0.000 C 
BRANCH  19  20
ATOM     20  C   UNL     1      46.948   4.054  16.060  0.00  0.00    +0.000 C 
BRANCH  20  21
ATOM     21  N   UNL     1      47.510   5.087  15.191  0.00  0.00    +0.000 N 
ATOM     22  C   UNL     1      46.772   5.205  13.988  0.00  0.00    +0.000 A 
ATOM     23  C   UNL     1      47.191   6.143  13.047  0.00  0.00    +0.000 A 
ATOM     24  C   UNL     1      46.472   6.302  11.862  0.00  0.00    +0.000 A 
ATOM     25  C   UNL     1      45.349   5.518  11.637  0.00  0.00    +0.000 A 
ATOM     26  C   UNL     1      44.992   4.610  12.620  0.00  0.00    +0.000 A 
ATOM     27  N   UNL     1      45.677   4.444  13.786  0.00  0.00    +0.000 NA
ATOM     28  H   UNL     1      48.482   4.910  14.954  0.00  0.00    +0.000 HD
BRANCH  26  29
ATOM     29  C   UNL     1      43.798   3.728  12.425  0.00  0.00    +0.000 C 
ATOM     30  N   UNL     1      42.759   4.285  11.732  0.00  0.00    +0.000 N 
ATOM     31  O   UNL     1      43.745   2.583  12.859  0.00  0.00    +0.000 OA
ATOM     32  H   UNL     1      42.842   5.230  11.378  0.00  0.00    +0.000 HD
ATOM     33  H   UNL     1      41.925   3.742  11.558  0.00  0.00    +0.000 HD
ENDBRANCH  26  29
ENDBRANCH  20  21
ENDBRANCH  19  20
ENDBRANCH   3  19
TORSDOF 6
ENDMDL
MODEL 9
REMARK VINA RESULT:    -6.383      4.235      9.070
REMARK INTER + INTRA:          -9.688
REMARK INTER:                  -8.724
REMARK INTRA:                  -0.964
REMARK UNBOUND:                -1.066
REMARK  Name = 
REMARK  8 active torsions:
REMARK  status: ('A' for Active; 'I' for Inactive)
REMARK    1  A    between atoms: C_1  and  C_2
REMARK    2  A    between atoms: N_4  and  C_5
REMARK    3  A    between atoms: C_7  and  C_8
REMARK    4  A    between atoms: C_8  and  C_9
REMARK    5  A    between atoms: C_9  and  N_10
REMARK    6  A    between atoms: C_15  and  C_16
REMARK    7  A    between atoms: C_21  and  C_22
REMARK    8  A    between atoms: C_28  and  C_29
REMARK                            x       y       z     vdW  Elec       q    Type
REMARK                         _______ _______ _______ _____ _____    ______ ____
ROOT
ATOM      1  C   UNL     1      50.596   4.546  18.698  0.00  0.00    +0.000 A 
ATOM      2  C   UNL     1      49.907   3.879  17.667  0.00  0.00    +0.000 A 
ATOM      3  C   UNL     1      48.539   4.098  17.401  0.00  0.00    +0.000 A 
ATOM      4  C   UNL     1      47.856   5.038  18.182  0.00  0.00    +0.000 A 
ATOM      5  C   UNL     1      48.496   5.718  19.218  0.00  0.00    +0.000 A 
ATOM      6  C   UNL     1      49.853   5.463  19.458  0.00  0.00    +0.000 A 
ENDROOT
BRANCH   1  10
ATOM      7  C   UNL     1      53.827   5.736  16.804  0.00  0.00    +0.000 C 
ATOM      8  C   UNL     1      54.093   4.610  17.801  0.00  0.00    +0.000 C 
ATOM      9  C   UNL     1      52.859   3.699  18.011  0.00  0.00    +0.000 C 
ATOM     10  N   UNL     1      51.928   4.318  18.963  0.00  0.00    +0.000 N 
ATOM     11  C   UNL     1      52.564   4.667  20.241  0.00  0.00    +0.000 C 
ATOM     12  C   UNL     1      53.759   5.609  20.006  0.00  0.00    +0.000 C 
ATOM     13  C   UNL     1      53.345   7.051  19.724  0.00  0.00    +0.000 C 
ATOM     14  O   UNL     1      54.677   5.103  19.021  0.00  0.00    +0.000 OA
ENDBRANCH   1  10
BRANCH   5  15
ATOM     15  C   UNL     1      47.746   6.698  20.081  0.00  0.00    +0.000 C 
ATOM     16  F   UNL     1      46.846   6.108  20.919  0.00  0.00    +0.000 F 
ATOM     17  F   UNL     1      48.574   7.425  20.882  0.00  0.00    +0.000 F 
ATOM     18  F   UNL     1      47.037   7.606  19.354  0.00  0.00    +0.000 F 
ENDBRANCH   5  15
BRANCH   3  19
ATOM     19  C   UNL     1      47.851   3.289  16.310  0.00  0.00    +0.000 C 
BRANCH  19  20
ATOM     20  C   UNL     1      46.734   4.052  15.586  0.00  0.00    +0.000 C 
BRANCH  20  21
ATOM     21  N   UNL     1      47.225   5.164  14.774  0.00  0.00    +0.000 N 
ATOM     22  C   UNL     1      46.589   5.200  13.509  0.00  0.00    +0.000 A 
ATOM     23  C   UNL     1      46.959   6.200  12.613  0.00  0.00    +0.000 A 
ATOM     24  C   UNL     1      46.333   6.277  11.367  0.00  0.00    +0.000 A 
ATOM     25  C   UNL     1      45.352   5.353  11.041  0.00  0.00    +0.000 A 
ATOM     26  C   UNL     1      45.035   4.391  11.985  0.00  0.00    +0.000 A 
ATOM     27  N   UNL     1      45.629   4.302  13.207  0.00  0.00    +0.000 NA
ATOM     28  H   UNL     1      48.230   5.123  14.625  0.00  0.00    +0.000 HD
BRANCH  26  29
ATOM     29  C   UNL     1      43.993   3.359  11.680  0.00  0.00    +0.000 C 
ATOM     30  N   UNL     1      43.788   2.422  12.654  0.00  0.00    +0.000 N 
ATOM     31  O   UNL     1      43.365   3.345  10.628  0.00  0.00    +0.000 OA
ATOM     32  H   UNL     1      44.318   2.470  13.517  0.00  0.00    +0.000 HD
ATOM     33  H   UNL     1      43.094   1.701  12.518  0.00  0.00    +0.000 HD
ENDBRANCH  26  29
ENDBRANCH  20  21
ENDBRANCH  19  20
ENDBRANCH   3  19
TORSDOF 6
ENDMDL
