MODEL 1
REMARK VINA RESULT:    -8.612      0.000      0.000
REMARK INTER + INTRA:         -11.086
REMARK INTER:                 -10.626
REMARK INTRA:                  -0.460
REMARK UNBOUND:                -0.460
REMARK  Name = 
REMARK  6 active torsions:
REMARK  status: ('A' for Active; 'I' for Inactive)
REMARK    1  A    between atoms: C_1  and  C_2
REMARK    2  A    between atoms: C_5  and  O_6
REMARK    3  A    between atoms: O_6  and  C_7
REMARK    4  A    between atoms: C_7  and  C_8
REMARK    5  A    between atoms: C_12  and  C_13
REMARK    6  A    between atoms: C_18  and  C_19
REMARK                            x       y       z     vdW  Elec       q    Type
REMARK                         _______ _______ _______ _____ _____    ______ ____
ROOT
ATOM      1  C   UNL     1      44.785   3.953  11.918  0.00  0.00    +0.000 A 
ATOM      2  C   UNL     1      44.590   5.293  11.573  0.00  0.00    +0.000 A 
ATOM      3  C   UNL     1      45.281   6.287  12.262  0.00  0.00    +0.000 A 
ATOM      4  C   UNL     1      46.139   5.929  13.292  0.00  0.00    +0.000 A 
ATOM      5  C   UNL     1      46.267   4.580  13.597  0.00  0.00    +0.000 A 
ATOM      6  N   UNL     1      45.606   3.581  12.939  0.00  0.00    +0.000 NA
ENDROOT
BRANCH   5   7
ATOM      7  C   UNL     1      47.176   4.180  14.719  0.00  0.00    +0.000 C 
ATOM      8  N   UNL     1      47.465   5.155  15.634  0.00  0.00    +0.000 N 
ATOM      9  O   UNL     1      47.643   3.050  14.823  0.00  0.00    +0.000 OA
ATOM     10  H   UNL     1      47.065   6.080  15.529  0.00  0.00    +0.000 HD
ATOM     11  H   UNL     1      48.072   4.939  16.411  0.00  0.00    +0.000 HD
ENDBRANCH   5   7
BRANCH   1  12
ATOM     12  C   UNL     1      44.029   2.853  11.189  0.00  0.00    +0.000 C 
BRANCH  12  13
ATOM     13  O   UNL     1      43.783   3.225   9.828  0.00  0.00    +0.000 OA
BRANCH  13  18
ATOM     14  C   UNL     1      47.992   2.216   6.136  0.00  0.00    +0.000 C 
ATOM     15  C   UNL     1      46.894   2.491   7.125  0.00  0.00    +0.000 A 
ATOM     16  C   UNL     1      46.447   3.808   7.312  0.00  0.00    +0.000 A 
ATOM     17  C   UNL     1      45.416   4.104   8.210  0.00  0.00    +0.000 A 
ATOM     18  C   UNL     1      44.810   3.082   8.935  0.00  0.00    +0.000 A 
ATOM     19  C   UNL     1      45.257   1.768   8.762  0.00  0.00    +0.000 A 
ATOM     20  C   UNL     1      46.297   1.456   7.868  0.00  0.00    +0.000 A 
ATOM     21  C   UNL     1      46.745   0.027   7.724  0.00  0.00    +0.000 C 
ENDBRANCH  13  18
ENDBRANCH  12  13
ENDBRANCH   1  12
TORSDOF 4
ENDMDL
MODEL 2
REMARK VINA RESULT:    -8.080      1.936      2.542
REMARK INTER + INTRA:         -10.430
REMARK INTER:                  -9.898
REMARK INTRA:                  -0.532
REMARK UNBOUND:                -0.460
REMARK  Name = 
REMARK  6 active torsions:
REMARK  status: ('A' for Active; 'I' for Inactive)
REMARK    1  A    between atoms: C_1  and  C_2
REMARK    2  A    between atoms: C_5  and  O_6
REMARK    3  A    between atoms: O_6  and  C_7
REMARK    4  A    between atoms: C_7  and  C_8
REMARK    5  A    between atoms: C_12  and  C_13
REMARK    6  A    between atoms: C_18  and  C_19
REMARK                            x       y       z     vdW  Elec       q    Type
REMARK                         _______ _______ _______ _____ _____    ______ ____
ROOT
ATOM      1  C   UNL     1      44.858   3.913  12.005  0.00  0.00    +0.000 A 
ATOM      2  C   UNL     1      45.930   3.534  12.816  0.00  0.00    +0.000 A 
ATOM      3  C   UNL     1      46.678   4.512  13.468  0.00  0.00    +0.000 A 
ATOM      4  C   UNL     1      46.353   5.848  13.286  0.00  0.00    +0.000 A 
ATOM      5  C   UNL     1      45.290   6.155  12.447  0.00  0.00    +0.000 A 
ATOM      6  N   UNL     1      44.535   5.219  11.796  0.00  0.00    +0.000 NA
ENDROOT
BRANCH   5   7
ATOM      7  C   UNL     1      44.939   7.595  12.226  0.00  0.00    +0.000 C 
ATOM      8  N   UNL     1      44.041   7.848  11.226  0.00  0.00    +0.000 N 
ATOM      9  O   UNL     1      45.421   8.505  12.894  0.00  0.00    +0.000 OA
ATOM     10  H   UNL     1      43.653   7.079  10.690  0.00  0.00    +0.000 HD
ATOM     11  H   UNL     1      43.768   8.800  11.035  0.00  0.00    +0.000 HD
ENDBRANCH   5   7
BRANCH   1  12
ATOM     12  C   UNL     1      44.038   2.862  11.273  0.00  0.00    +0.000 C 
BRANCH  12  13
ATOM     13  O   UNL     1      43.786   3.267   9.923  0.00  0.00    +0.000 OA
BRANCH  13  18
ATOM     14  C   UNL     1      47.948   2.264   6.177  0.00  0.00    +0.000 C 
ATOM     15  C   UNL     1      46.862   2.538   7.180  0.00  0.00    +0.000 A 
ATOM     16  C   UNL     1      46.416   3.854   7.373  0.00  0.00    +0.000 A 
ATOM     17  C   UNL     1      45.396   4.148   8.284  0.00  0.00    +0.000 A 
ATOM     18  C   UNL     1      44.801   3.125   9.016  0.00  0.00    +0.000 A 
ATOM     19  C   UNL     1      45.248   1.812   8.838  0.00  0.00    +0.000 A 
ATOM     20  C   UNL     1      46.276   1.501   7.930  0.00  0.00    +0.000 A 
ATOM     21  C   UNL     1      46.725   0.074   7.780  0.00  0.00    +0.000 C 
ENDBRANCH  13  18
ENDBRANCH  12  13
ENDBRANCH   1  12
TORSDOF 4
ENDMDL
MODEL 3
REMARK VINA RESULT:    -7.244      2.038      2.833
REMARK INTER + INTRA:          -9.398
REMARK INTER:                  -8.858
REMARK INTRA:                  -0.540
REMARK UNBOUND:                -0.460
REMARK  Name = 
REMARK  6 active torsions:
REMARK  status: ('A' for Active; 'I' for Inactive)
REMARK    1  A    between atoms: C_1  and  C_2
REMARK    2  A    between atoms: C_5  and  O_6
REMARK    3  A    between atoms: O_6  and  C_7
REMARK    4  A    between atoms: C_7  and  C_8
REMARK    5  A    between atoms: C_12  and  C_13
REMARK    6  A    between atoms: C_18  and  C_19
REMARK                            x       y       z     vdW  Elec       q    Type
REMARK                         _______ _______ _______ _____ _____    ______ ____
ROOT
ATOM      1  C   UNL     1      44.741   5.031  12.249  0.00  0.00    +0.000 A 
ATOM      2  C   UNL     1      45.437   3.976  12.844  0.00  0.00    +0.000 A 
ATOM      3  C   UNL     1      46.625   4.232  13.524  0.00  0.00    +0.000 A 
ATOM      4  C   UNL     1      47.106   5.532  13.583  0.00  0.00    +0.000 A 
ATOM      5  C   UNL     1      46.376   6.529  12.949  0.00  0.00    +0.000 A 
ATOM      6  N   UNL     1      45.206   6.311  12.277  0.00  0.00    +0.000 NA
ENDROOT
BRANCH   5   7
ATOM      7  C   UNL     1      46.893   7.936  12.990  0.00  0.00    +0.000 C 
ATOM      8  N   UNL     1      46.098   8.849  13.627  0.00  0.00    +0.000 N 
ATOM      9  O   UNL     1      47.962   8.264  12.486  0.00  0.00    +0.000 OA
ATOM     10  H   UNL     1      45.220   8.553  14.039  0.00  0.00    +0.000 HD
ATOM     11  H   UNL     1      46.398   9.810  13.685  0.00  0.00    +0.000 HD
ENDBRANCH   5   7
BRANCH   1  12
ATOM     12  C   UNL     1      43.450   4.770  11.489  0.00  0.00    +0.000 C 
BRANCH  12  13
ATOM     13  O   UNL     1      43.666   4.864  10.076  0.00  0.00    +0.000 OA
BRANCH  13  18
ATOM     14  C   UNL     1      46.822   0.960   7.401  0.00  0.00    +0.000 C 
ATOM     15  C   UNL     1      45.971   1.986   8.096  0.00  0.00    +0.000 A 
ATOM     16  C   UNL     1      45.019   1.569   9.040  0.00  0.00    +0.000 A 
ATOM     17  C   UNL     1      44.220   2.494   9.721  0.00  0.00    +0.000 A 
ATOM     18  C   UNL     1      44.365   3.855   9.472  0.00  0.00    +0.000 A 
ATOM     19  C   UNL     1      45.304   4.277   8.525  0.00  0.00    +0.000 A 
ATOM     20  C   UNL     1      46.109   3.360   7.827  0.00  0.00    +0.000 A 
ATOM     21  C   UNL     1      47.100   3.865   6.814  0.00  0.00    +0.000 C 
ENDBRANCH  13  18
ENDBRANCH  12  13
ENDBRANCH   1  12
TORSDOF 4
ENDMDL
MODEL 4
REMARK VINA RESULT:    -7.028      2.635      3.614
REMARK INTER + INTRA:          -9.132
REMARK INTER:                  -8.621
REMARK INTRA:                  -0.511
REMARK UNBOUND:                -0.460
REMARK  Name = 
REMARK  6 active torsions:
REMARK  status: ('A' for Active; 'I' for Inactive)
REMARK    1  A    between atoms: C_1  and  C_2
REMARK    2  A    between atoms: C_5  and  O_6
REMARK    3  A    between atoms: O_6  and  C_7
REMARK    4  A    between atoms: C_7  and  C_8
REMARK    5  A    between atoms: C_12  and  C_13
REMARK    6  A    between atoms: C_18  and  C_19
REMARK                            x       y       z     vdW  Elec       q    Type
REMARK                         _______ _______ _______ _____ _____    ______ ____
ROOT
ATOM      1  C   UNL     1      44.588   5.842  11.474  0.00  0.00    +0.000 A 
ATOM      2  C   UNL     1      45.785   5.314  11.965  0.00  0.00    +0.000 A 
ATOM      3  C   UNL     1      46.770   6.174  12.443  0.00  0.00    +0.000 A 
ATOM      4  C   UNL     1      46.552   7.544  12.408  0.00  0.00    +0.000 A 
ATOM      5  C   UNL     1      45.349   8.001  11.886  0.00  0.00    +0.000 A 
ATOM      6  N   UNL     1      44.361   7.184  11.411  0.00  0.00    +0.000 NA
ENDROOT
BRANCH   5   7
ATOM      7  C   UNL     1      45.106   9.479  11.825  0.00  0.00    +0.000 C 
ATOM      8  N   UNL     1      46.080  10.270  12.371  0.00  0.00    +0.000 N 
ATOM      9  O   UNL     1      44.099   9.966  11.321  0.00  0.00    +0.000 OA
ATOM     10  H   UNL     1      46.906   9.845  12.779  0.00  0.00    +0.000 HD
ATOM     11  H   UNL     1      45.969  11.272  12.356  0.00  0.00    +0.000 HD
ENDBRANCH   5   7
BRANCH   1  12
ATOM     12  C   UNL     1      43.505   4.922  10.933  0.00  0.00    +0.000 C 
BRANCH  12  13
ATOM     13  O   UNL     1      43.650   4.747   9.519  0.00  0.00    +0.000 OA
BRANCH  13  18
ATOM     14  C   UNL     1      46.938   0.587   7.460  0.00  0.00    +0.000 C 
ATOM     15  C   UNL     1      46.052   1.677   7.995  0.00  0.00    +0.000 A 
ATOM     16  C   UNL     1      45.222   1.414   9.096  0.00  0.00    +0.000 A 
ATOM     17  C   UNL     1      44.396   2.406   9.635  0.00  0.00    +0.000 A 
ATOM     18  C   UNL     1      44.390   3.682   9.082  0.00  0.00    +0.000 A 
ATOM     19  C   UNL     1      45.207   3.950   7.978  0.00  0.00    +0.000 A 
ATOM     20  C   UNL     1      46.038   2.962   7.421  0.00  0.00    +0.000 A 
ATOM     21  C   UNL     1      46.892   3.298   6.229  0.00  0.00    +0.000 C 
ENDBRANCH  13  18
ENDBRANCH  12  13
ENDBRANCH   1  12
TORSDOF 4
ENDMDL
MODEL 5
REMARK VINA RESULT:    -6.915      1.821      2.000
REMARK INTER + INTRA:          -8.992
REMARK INTER:                  -8.527
REMARK INTRA:                  -0.465
REMARK UNBOUND:                -0.460
REMARK  Name = 
REMARK  6 active torsions:
REMARK  status: ('A' for Active; 'I' for Inactive)
REMARK    1  A    between atoms: C_1  and  C_2
REMARK    2  A    between atoms: C_5  and  O_6
REMARK    3  A    between atoms: O_6  and  C_7
REMARK    4  A    between atoms: C_7  and  C_8
REMARK    5  A    between atoms: C_12  and  C_13
REMARK    6  A    between atoms: C_18  and  C_19
REMARK                            x       y       z     vdW  Elec       q    Type
REMARK                         _______ _______ _______ _____ _____    ______ ____
ROOT
ATOM      1  C   UNL     1      45.538   5.215  12.481  0.00  0.00    +0.000 A 
ATOM      2  C   UNL     1      44.707   6.333  12.377  0.00  0.00    +0.000 A 
ATOM      3  C   UNL     1      45.233   7.604  12.596  0.00  0.00    +0.000 A 
ATOM      4  C   UNL     1      46.573   7.735  12.931  0.00  0.00    +0.000 A 
ATOM      5  C   UNL     1      47.336   6.580  13.040  0.00  0.00    +0.000 A 
ATOM      6  N   UNL     1      46.851   5.319  12.828  0.00  0.00    +0.000 NA
ENDROOT
BRANCH   5   7
ATOM      7  C   UNL     1      48.781   6.705  13.418  0.00  0.00    +0.000 C 
ATOM      8  N   UNL     1      49.636   7.067  12.413  0.00  0.00    +0.000 N 
ATOM      9  O   UNL     1      49.189   6.497  14.557  0.00  0.00    +0.000 OA
ATOM     10  H   UNL     1      49.275   7.237  11.481  0.00  0.00    +0.000 HD
ATOM     11  H   UNL     1      50.620   7.167  12.613  0.00  0.00    +0.000 HD
ENDBRANCH   5   7
BRANCH   1  12
ATOM     12  C   UNL     1      44.980   3.818  12.260  0.00  0.00    +0.000 C 
BRANCH  12  13
ATOM     13  O   UNL     1      44.223   3.761  11.046  0.00  0.00    +0.000 OA
BRANCH  13  18
ATOM     14  C   UNL     1      47.038   2.890   6.180  0.00  0.00    +0.000 C 
ATOM     15  C   UNL     1      46.312   3.128   7.475  0.00  0.00    +0.000 A 
ATOM     16  C   UNL     1      45.981   4.439   7.850  0.00  0.00    +0.000 A 
ATOM     17  C   UNL     1      45.291   4.701   9.038  0.00  0.00    +0.000 A 
ATOM     18  C   UNL     1      44.914   3.651   9.870  0.00  0.00    +0.000 A 
ATOM     19  C   UNL     1      45.250   2.342   9.509  0.00  0.00    +0.000 A 
ATOM     20  C   UNL     1      45.950   2.063   8.321  0.00  0.00    +0.000 A 
ATOM     21  C   UNL     1      46.293   0.639   7.981  0.00  0.00    +0.000 C 
ENDBRANCH  13  18
ENDBRANCH  12  13
ENDBRANCH   1  12
TORSDOF 4
ENDMDL
MODEL 6
REMARK VINA RESULT:    -6.215      3.007      3.766
REMARK INTER + INTRA:          -8.129
REMARK INTER:                  -7.922
REMARK INTRA:                  -0.206
REMARK UNBOUND:                -0.460
REMARK  Name = 
REMARK  6 active torsions:
REMARK  status: ('A' for Active; 'I' for Inactive)
REMARK    1  A    between atoms: C_1  and  C_2
REMARK    2  A    between atoms: C_5  and  O_6
REMARK    3  A    between atoms: O_6  and  C_7
REMARK    4  A    between atoms: C_7  and  C_8
REMARK    5  A    between atoms: C_12  and  C_13
REMARK    6  A    between atoms: C_18  and  C_19
REMARK                            x       y       z     vdW  Elec       q    Type
REMARK                         _______ _______ _______ _____ _____    ______ ____
ROOT
ATOM      1  C   UNL     1      45.977   6.117  13.013  0.00  0.00    +0.000 A 
ATOM      2  C   UNL     1      47.351   5.911  13.161  0.00  0.00    +0.000 A 
ATOM      3  C   UNL     1      48.223   6.991  13.056  0.00  0.00    +0.000 A 
ATOM      4  C   UNL     1      47.711   8.253  12.787  0.00  0.00    +0.000 A 
ATOM      5  C   UNL     1      46.338   8.381  12.627  0.00  0.00    +0.000 A 
ATOM      6  N   UNL     1      45.455   7.342  12.728  0.00  0.00    +0.000 NA
ENDROOT
BRANCH   5   7
ATOM      7  C   UNL     1      45.773   9.735  12.319  0.00  0.00    +0.000 C 
ATOM      8  N   UNL     1      44.452   9.918  12.626  0.00  0.00    +0.000 N 
ATOM      9  O   UNL     1      46.441  10.635  11.819  0.00  0.00    +0.000 OA
ATOM     10  H   UNL     1      43.921   9.161  13.041  0.00  0.00    +0.000 HD
ATOM     11  H   UNL     1      44.021  10.811  12.440  0.00  0.00    +0.000 HD
ENDBRANCH   5   7
BRANCH   1  12
ATOM     12  C   UNL     1      45.009   4.948  13.110  0.00  0.00    +0.000 C 
BRANCH  12  13
ATOM     13  O   UNL     1      44.140   4.914  11.971  0.00  0.00    +0.000 OA
BRANCH  13  18
ATOM     14  C   UNL     1      46.229   3.229   6.955  0.00  0.00    +0.000 C 
ATOM     15  C   UNL     1      45.697   3.675   8.289  0.00  0.00    +0.000 A 
ATOM     16  C   UNL     1      45.884   5.004   8.698  0.00  0.00    +0.000 A 
ATOM     17  C   UNL     1      45.389   5.462   9.924  0.00  0.00    +0.000 A 
ATOM     18  C   UNL     1      44.692   4.596  10.760  0.00  0.00    +0.000 A 
ATOM     19  C   UNL     1      44.511   3.267  10.364  0.00  0.00    +0.000 A 
ATOM     20  C   UNL     1      45.008   2.790   9.139  0.00  0.00    +0.000 A 
ATOM     21  C   UNL     1      44.792   1.349   8.762  0.00  0.00    +0.000 C 
ENDBRANCH  13  18
ENDBRANCH  12  13
ENDBRANCH   1  12
TORSDOF 4
ENDMDL
MODEL 7
REMARK VINA RESULT:    -6.178      3.261      6.464
REMARK INTER + INTRA:          -8.083
REMARK INTER:                  -7.667
REMARK INTRA:                  -0.416
REMARK UNBOUND:                -0.460
REMARK  Name = 
REMARK  6 active torsions:
REMARK  status: ('A' for Active; 'I' for Inactive)
REMARK    1  A    between atoms: C_1  and  C_2
REMARK    2  A    between atoms: C_5  and  O_6
REMARK    3  A    between atoms: O_6  and  C_7
REMARK    4  A    between atoms: C_7  and  C_8
REMARK    5  A    between atoms: C_12  and  C_13
REMARK    6  A    between atoms: C_18  and  C_19
REMARK                            x       y       z     vdW  Elec       q    Type
REMARK                         _______ _______ _______ _____ _____    ______ ____
ROOT
ATOM      1  C   UNL     1      44.905   4.840  12.312  0.00  0.00    +0.000 A 
ATOM      2  C   UNL     1      44.036   3.863  12.803  0.00  0.00    +0.000 A 
ATOM      3  C   UNL     1      43.510   2.911  11.934  0.00  0.00    +0.000 A 
ATOM      4  C   UNL     1      43.847   2.960  10.589  0.00  0.00    +0.000 A 
ATOM      5  C   UNL     1      44.698   3.972  10.165  0.00  0.00    +0.000 A 
ATOM      6  N   UNL     1      45.233   4.919  10.993  0.00  0.00    +0.000 NA
ENDROOT
BRANCH   5   7
ATOM      7  C   UNL     1      45.057   4.049   8.711  0.00  0.00    +0.000 C 
ATOM      8  N   UNL     1      44.375   3.203   7.880  0.00  0.00    +0.000 N 
ATOM      9  O   UNL     1      45.910   4.817   8.278  0.00  0.00    +0.000 OA
ATOM     10  H   UNL     1      43.673   2.580   8.260  0.00  0.00    +0.000 HD
ATOM     11  H   UNL     1      44.576   3.214   6.891  0.00  0.00    +0.000 HD
ENDBRANCH   5   7
BRANCH   1  12
ATOM     12  C   UNL     1      45.479   5.897  13.243  0.00  0.00    +0.000 C 
BRANCH  12  13
ATOM     13  O   UNL     1      45.042   7.205  12.853  0.00  0.00    +0.000 OA
BRANCH  13  18
ATOM     14  C   UNL     1      49.277  10.668  11.293  0.00  0.00    +0.000 C 
ATOM     15  C   UNL     1      48.159   9.761  11.725  0.00  0.00    +0.000 A 
ATOM     16  C   UNL     1      46.883  10.298  11.957  0.00  0.00    +0.000 A 
ATOM     17  C   UNL     1      45.813   9.485  12.343  0.00  0.00    +0.000 A 
ATOM     18  C   UNL     1      46.000   8.115  12.499  0.00  0.00    +0.000 A 
ATOM     19  C   UNL     1      47.271   7.573  12.281  0.00  0.00    +0.000 A 
ATOM     20  C   UNL     1      48.359   8.378  11.899  0.00  0.00    +0.000 A 
ATOM     21  C   UNL     1      49.707   7.748  11.682  0.00  0.00    +0.000 C 
ENDBRANCH  13  18
ENDBRANCH  12  13
ENDBRANCH   1  12
TORSDOF 4
ENDMDL
MODEL 8
REMARK VINA RESULT:    -6.087      3.068      7.968
REMARK INTER + INTRA:          -7.971
REMARK INTER:                  -7.627
REMARK INTRA:                  -0.344
REMARK UNBOUND:                -0.460
REMARK  Name = 
REMARK  6 active torsions:
REMARK  status: ('A' for Active; 'I' for Inactive)
REMARK    1  A    between atoms: C_1  and  C_2
REMARK    2  A    between atoms: C_5  and  O_6
REMARK    3  A    between atoms: O_6  and  C_7
REMARK    4  A    between atoms: C_7  and  C_8
REMARK    5  A    between atoms: C_12  and  C_13
REMARK    6  A    between atoms: C_18  and  C_19
REMARK                            x       y       z     vdW  Elec       q    Type
REMARK                         _______ _______ _______ _____ _____    ______ ____
ROOT
ATOM      1  C   UNL     1      46.480   4.146  13.501  0.00  0.00    +0.000 A 
ATOM      2  C   UNL     1      46.701   5.467  13.105  0.00  0.00    +0.000 A 
ATOM      3  C   UNL     1      45.994   5.989  12.025  0.00  0.00    +0.000 A 
ATOM      4  C   UNL     1      45.093   5.179  11.349  0.00  0.00    +0.000 A 
ATOM      5  C   UNL     1      44.940   3.868  11.781  0.00  0.00    +0.000 A 
ATOM      6  N   UNL     1      45.616   3.327  12.839  0.00  0.00    +0.000 NA
ENDROOT
BRANCH   5   7
ATOM      7  C   UNL     1      43.983   2.976  11.049  0.00  0.00    +0.000 C 
ATOM      8  N   UNL     1      44.241   2.782   9.720  0.00  0.00    +0.000 N 
ATOM      9  O   UNL     1      43.021   2.446  11.595  0.00  0.00    +0.000 OA
ATOM     10  H   UNL     1      45.044   3.228   9.292  0.00  0.00    +0.000 HD
ATOM     11  H   UNL     1      43.629   2.189   9.179  0.00  0.00    +0.000 HD
ENDBRANCH   5   7
BRANCH   1  12
ATOM     12  C   UNL     1      47.253   3.553  14.668  0.00  0.00    +0.000 C 
BRANCH  12  13
ATOM     13  O   UNL     1      46.632   3.894  15.913  0.00  0.00    +0.000 OA
BRANCH  13  18
ATOM     14  C   UNL     1      50.343   5.026  20.073  0.00  0.00    +0.000 C 
ATOM     15  C   UNL     1      49.351   4.713  18.987  0.00  0.00    +0.000 A 
ATOM     16  C   UNL     1      48.052   5.236  19.066  0.00  0.00    +0.000 A 
ATOM     17  C   UNL     1      47.106   4.983  18.067  0.00  0.00    +0.000 A 
ATOM     18  C   UNL     1      47.447   4.204  16.967  0.00  0.00    +0.000 A 
ATOM     19  C   UNL     1      48.738   3.670  16.885  0.00  0.00    +0.000 A 
ATOM     20  C   UNL     1      49.698   3.910  17.884  0.00  0.00    +0.000 A 
ATOM     21  C   UNL     1      51.070   3.306  17.754  0.00  0.00    +0.000 C 
ENDBRANCH  13  18
ENDBRANCH  12  13
ENDBRANCH   1  12
TORSDOF 4
ENDMDL
MODEL 9
REMARK VINA RESULT:    -6.085      1.634      3.026
REMARK INTER + INTRA:          -7.968
REMARK INTER:                  -7.838
REMARK INTRA:                  -0.131
REMARK UNBOUND:                -0.460
REMARK  Name = 
REMARK  6 active torsions:
REMARK  status: ('A' for Active; 'I' for Inactive)
REMARK    1  A    between atoms: C_1  and  C_2
REMARK    2  A    between atoms: C_5  and  O_6
REMARK    3  A    between atoms: O_6  and  C_7
REMARK    4  A    between atoms: C_7  and  C_8
REMARK    5  A    between atoms: C_12  and  C_13
REMARK    6  A    between atoms: C_18  and  C_19
REMARK                            x       y       z     vdW  Elec       q    Type
REMARK                         _______ _______ _______ _____ _____    ______ ____
ROOT
ATOM      1  C   UNL     1      46.150   6.902  12.322  0.00  0.00    +0.000 A 
ATOM      2  C   UNL     1      47.074   7.923  12.558  0.00  0.00    +0.000 A 
ATOM      3  C   UNL     1      48.042   7.759  13.545  0.00  0.00    +0.000 A 
ATOM      4  C   UNL     1      48.060   6.589  14.291  0.00  0.00    +0.000 A 
ATOM      5  C   UNL     1      47.097   5.626  14.020  0.00  0.00    +0.000 A 
ATOM      6  N   UNL     1      46.137   5.754  13.055  0.00  0.00    +0.000 NA
ENDROOT
BRANCH   5   7
ATOM      7  C   UNL     1      47.094   4.364  14.829  0.00  0.00    +0.000 C 
ATOM      8  N   UNL     1      47.049   3.196  14.119  0.00  0.00    +0.000 N 
ATOM      9  O   UNL     1      47.127   4.363  16.056  0.00  0.00    +0.000 OA
ATOM     10  H   UNL     1      47.026   3.222  13.106  0.00  0.00    +0.000 HD
ATOM     11  H   UNL     1      47.046   2.316  14.614  0.00  0.00    +0.000 HD
ENDBRANCH   5   7
BRANCH   1  12
ATOM     12  C   UNL     1      45.076   7.066  11.258  0.00  0.00    +0.000 C 
BRANCH  12  13
ATOM     13  O   UNL     1      44.106   6.016  11.351  0.00  0.00    +0.000 OA
BRANCH  13  18
ATOM     14  C   UNL     1      45.513   1.342   8.430  0.00  0.00    +0.000 C 
ATOM     15  C   UNL     1      45.121   2.575   9.195  0.00  0.00    +0.000 A 
ATOM     16  C   UNL     1      44.330   2.452  10.347  0.00  0.00    +0.000 A 
ATOM     17  C   UNL     1      43.959   3.574  11.096  0.00  0.00    +0.000 A 
ATOM     18  C   UNL     1      44.379   4.841  10.705  0.00  0.00    +0.000 A 
ATOM     19  C   UNL     1      45.158   4.974   9.551  0.00  0.00    +0.000 A 
ATOM     20  C   UNL     1      45.534   3.857   8.784  0.00  0.00    +0.000 A 
ATOM     21  C   UNL     1      46.368   4.054   7.548  0.00  0.00    +0.000 C 
ENDBRANCH  13  18
ENDBRANCH  12  13
ENDBRANCH   1  12
TORSDOF 4
ENDMDL
