MODEL 1
REMARK VINA RESULT:    -7.821      0.000      0.000
REMARK INTER + INTRA:         -11.063
REMARK INTER:                 -10.336
REMARK INTRA:                  -0.727
REMARK UNBOUND:                -0.727
REMARK  Name = 
REMARK  6 active torsions:
REMARK  status: ('A' for Active; 'I' for Inactive)
REMARK    1  A    between atoms: N_1  and  C_2
REMARK    2  A    between atoms: C_2  and  C_3
REMARK    3  A    between atoms: C_3  and  C_4
REMARK    4  A    between atoms: C_7  and  C_8
REMARK    5  A    between atoms: C_8  and  N_9
REMARK    6  A    between atoms: C_14  and  C_15
REMARK                            x       y       z     vdW  Elec       q    Type
REMARK                         _______ _______ _______ _____ _____    ______ ____
ROOT
ATOM      1  N   UNL     1      43.881   4.327  10.514  0.00  0.00    +0.000 N 
ATOM      2  C   UNL     1      43.391   3.191  11.105  0.00  0.00    +0.000 A 
ATOM      3  N   UNL     1      43.878   2.104  10.556  0.00  0.00    +0.000 NA
ATOM      4  C   UNL     1      44.698   2.544   9.552  0.00  0.00    +0.000 A 
ATOM      5  C   UNL     1      45.573   1.817   8.740  0.00  0.00    +0.000 A 
ATOM      6  C   UNL     1      46.369   2.496   7.806  0.00  0.00    +0.000 A 
ATOM      7  C   UNL     1      46.184   3.872   7.603  0.00  0.00    +0.000 A 
ATOM      8  C   UNL     1      45.304   4.619   8.406  0.00  0.00    +0.000 A 
ATOM      9  C   UNL     1      44.627   3.929   9.419  0.00  0.00    +0.000 A 
ENDROOT
BRANCH   6  10
ATOM     10  C   UNL     1      47.451   1.707   7.144  0.00  0.00    +0.000 C 
ATOM     11  N   UNL     1      48.456   2.369   6.497  0.00  0.00    +0.000 N 
ATOM     12  O   UNL     1      47.481   0.484   7.208  0.00  0.00    +0.000 OA
ATOM     13  H   UNL     1      48.526   3.364   6.375  0.00  0.00    +0.000 HD
ATOM     14  H   UNL     1      49.199   1.790   6.123  0.00  0.00    +0.000 HD
ENDBRANCH   6  10
BRANCH   1  15
ATOM     15  C   UNL     1      44.002   5.629  11.161  0.00  0.00    +0.000 C 
BRANCH  15  19
ATOM     16  C   UNL     1      47.720   6.406  13.256  0.00  0.00    +0.000 A 
ATOM     17  C   UNL     1      47.441   7.051  12.046  0.00  0.00    +0.000 A 
ATOM     18  C   UNL     1      46.243   6.794  11.365  0.00  0.00    +0.000 A 
ATOM     19  C   UNL     1      45.307   5.883  11.876  0.00  0.00    +0.000 A 
ATOM     20  C   UNL     1      45.585   5.247  13.092  0.00  0.00    +0.000 A 
ATOM     21  C   UNL     1      46.774   5.515  13.779  0.00  0.00    +0.000 A 
BRANCH  16  22
ATOM     22  C   UNL     1      49.023   6.652  13.980  0.00  0.00    +0.000 C 
BRANCH  22  23
ATOM     23  C   UNL     1      48.861   6.738  15.502  0.00  0.00    +0.000 C 
BRANCH  23  24
ATOM     24  N   UNL     1      49.824   5.867  16.177  0.00  0.00    +0.000 NA
ATOM     25  H   UNL     1      50.403   5.396  15.482  0.00  0.00    +0.000 HD
ATOM     26  H   UNL     1      49.331   5.132  16.681  0.00  0.00    +0.000 HD
ENDBRANCH  23  24
ENDBRANCH  22  23
ENDBRANCH  16  22
ENDBRANCH  15  19
ENDBRANCH   1  15
TORSDOF 6
ENDMDL
MODEL 2
REMARK VINA RESULT:    -7.788      1.172      1.641
REMARK INTER + INTRA:         -11.020
REMARK INTER:                 -10.229
REMARK INTRA:                  -0.790
REMARK UNBOUND:                -0.727
REMARK  Name = 
REMARK  6 active torsions:
REMARK  status: ('A' for Active; 'I' for Inactive)
REMARK    1  A    between atoms: N_1  and  C_2
REMARK    2  A    between atoms: C_2  and  C_3
REMARK    3  A    between atoms: C_3  and  C_4
REMARK    4  A    between atoms: C_7  and  C_8
REMARK    5  A    between atoms: C_8  and  N_9
REMARK    6  A    between atoms: C_14  and  C_15
REMARK                            x       y       z     vdW  Elec       q    Type
REMARK                         _______ _______ _______ _____ _____    ______ ____
ROOT
ATOM      1  N   UNL     1      43.777   4.224  10.593  0.00  0.00    +0.000 N 
ATOM      2  C   UNL     1      43.318   3.066  11.168  0.00  0.00    +0.000 A 
ATOM      3  N   UNL     1      43.829   2.000  10.597  0.00  0.00    +0.000 NA
ATOM      4  C   UNL     1      44.632   2.477   9.596  0.00  0.00    +0.000 A 
ATOM      5  C   UNL     1      45.520   1.786   8.767  0.00  0.00    +0.000 A 
ATOM      6  C   UNL     1      46.293   2.502   7.840  0.00  0.00    +0.000 A 
ATOM      7  C   UNL     1      46.073   3.876   7.662  0.00  0.00    +0.000 A 
ATOM      8  C   UNL     1      45.180   4.586   8.483  0.00  0.00    +0.000 A 
ATOM      9  C   UNL     1      44.526   3.863   9.487  0.00  0.00    +0.000 A 
ENDROOT
BRANCH   6  10
ATOM     10  C   UNL     1      47.390   1.751   7.159  0.00  0.00    +0.000 C 
ATOM     11  N   UNL     1      48.383   2.448   6.530  0.00  0.00    +0.000 N 
ATOM     12  O   UNL     1      47.444   0.527   7.191  0.00  0.00    +0.000 OA
ATOM     13  H   UNL     1      48.433   3.447   6.434  0.00  0.00    +0.000 HD
ATOM     14  H   UNL     1      49.136   1.893   6.141  0.00  0.00    +0.000 HD
ENDBRANCH   6  10
BRANCH   1  15
ATOM     15  C   UNL     1      43.870   5.517  11.263  0.00  0.00    +0.000 C 
BRANCH  15  19
ATOM     16  C   UNL     1      47.808   6.490  12.798  0.00  0.00    +0.000 A 
ATOM     17  C   UNL     1      47.091   5.409  13.323  0.00  0.00    +0.000 A 
ATOM     18  C   UNL     1      45.815   5.099  12.833  0.00  0.00    +0.000 A 
ATOM     19  C   UNL     1      45.229   5.868  11.815  0.00  0.00    +0.000 A 
ATOM     20  C   UNL     1      45.955   6.942  11.286  0.00  0.00    +0.000 A 
ATOM     21  C   UNL     1      47.234   7.243  11.766  0.00  0.00    +0.000 A 
BRANCH  16  22
ATOM     22  C   UNL     1      49.170   6.852  13.344  0.00  0.00    +0.000 C 
BRANCH  22  23
ATOM     23  C   UNL     1      49.878   7.939  12.526  0.00  0.00    +0.000 C 
BRANCH  23  24
ATOM     24  N   UNL     1      50.894   7.352  11.653  0.00  0.00    +0.000 NA
ATOM     25  H   UNL     1      51.519   8.085  11.315  0.00  0.00    +0.000 HD
ATOM     26  H   UNL     1      50.452   6.954  10.826  0.00  0.00    +0.000 HD
ENDBRANCH  23  24
ENDBRANCH  22  23
ENDBRANCH  16  22
ENDBRANCH  15  19
ENDBRANCH   1  15
TORSDOF 6
ENDMDL
MODEL 3
REMARK VINA RESULT:    -7.749      2.585      6.556
REMARK INTER + INTRA:         -10.967
REMARK INTER:                 -10.317
REMARK INTRA:                  -0.650
REMARK UNBOUND:                -0.727
REMARK  Name = 
REMARK  6 active torsions:
REMARK  status: ('A' for Active; 'I' for Inactive)
REMARK    1  A    between atoms: N_1  and  C_2
REMARK    2  A    between atoms: C_2  and  C_3
REMARK    3  A    between atoms: C_3  and  C_4
REMARK    4  A    between atoms: C_7  and  C_8
REMARK    5  A    between atoms: C_8  and  N_9
REMARK    6  A    between atoms: C_14  and  C_15
REMARK                            x       y       z     vdW  Elec       q    Type
REMARK                         _______ _______ _______ _____ _____    ______ ____
ROOT
ATOM      1  N   UNL     1      43.862   5.829  11.611  0.00  0.00    +0.000 N 
ATOM      2  C   UNL     1      43.654   7.107  11.159  0.00  0.00    +0.000 A 
ATOM      3  N   UNL     1      44.652   7.903  11.465  0.00  0.00    +0.000 NA
ATOM      4  C   UNL     1      45.534   7.123  12.163  0.00  0.00    +0.000 A 
ATOM      5  C   UNL     1      46.825   7.424  12.604  0.00  0.00    +0.000 A 
ATOM      6  C   UNL     1      47.578   6.435  13.256  0.00  0.00    +0.000 A 
ATOM      7  C   UNL     1      46.983   5.205  13.575  0.00  0.00    +0.000 A 
ATOM      8  C   UNL     1      45.683   4.887  13.143  0.00  0.00    +0.000 A 
ATOM      9  C   UNL     1      45.013   5.848  12.378  0.00  0.00    +0.000 A 
ENDROOT
BRANCH   6  10
ATOM     10  C   UNL     1      49.023   6.732  13.485  0.00  0.00    +0.000 C 
ATOM     11  N   UNL     1      49.804   7.096  12.424  0.00  0.00    +0.000 N 
ATOM     12  O   UNL     1      49.513   6.700  14.608  0.00  0.00    +0.000 OA
ATOM     13  H   UNL     1      49.510   7.144  11.464  0.00  0.00    +0.000 HD
ATOM     14  H   UNL     1      50.759   7.350  12.644  0.00  0.00    +0.000 HD
ENDBRANCH   6  10
BRANCH   1  15
ATOM     15  C   UNL     1      43.286   4.624  11.023  0.00  0.00    +0.000 C 
BRANCH  15  19
ATOM     16  C   UNL     1      45.811   2.462   8.236  0.00  0.00    +0.000 A 
ATOM     17  C   UNL     1      45.053   1.771   9.188  0.00  0.00    +0.000 A 
ATOM     18  C   UNL     1      44.244   2.469  10.094  0.00  0.00    +0.000 A 
ATOM     19  C   UNL     1      44.183   3.871  10.071  0.00  0.00    +0.000 A 
ATOM     20  C   UNL     1      44.934   4.558   9.110  0.00  0.00    +0.000 A 
ATOM     21  C   UNL     1      45.731   3.860   8.197  0.00  0.00    +0.000 A 
BRANCH  16  22
ATOM     22  C   UNL     1      46.712   1.720   7.277  0.00  0.00    +0.000 C 
BRANCH  22  23
ATOM     23  C   UNL     1      47.826   2.596   6.694  0.00  0.00    +0.000 C 
BRANCH  23  24
ATOM     24  N   UNL     1      48.581   1.867   5.674  0.00  0.00    +0.000 NA
ATOM     25  H   UNL     1      48.082   1.907   4.786  0.00  0.00    +0.000 HD
ATOM     26  H   UNL     1      48.638   0.881   5.925  0.00  0.00    +0.000 HD
ENDBRANCH  23  24
ENDBRANCH  22  23
ENDBRANCH  16  22
ENDBRANCH  15  19
ENDBRANCH   1  15
TORSDOF 6
ENDMDL
MODEL 4
REMARK VINA RESULT:    -6.647      3.050      7.205
REMARK INTER + INTRA:          -9.512
REMARK INTER:                  -8.916
REMARK INTRA:                  -0.596
REMARK UNBOUND:                -0.727
REMARK  Name = 
REMARK  6 active torsions:
REMARK  status: ('A' for Active; 'I' for Inactive)
REMARK    1  A    between atoms: N_1  and  C_2
REMARK    2  A    between atoms: C_2  and  C_3
REMARK    3  A    between atoms: C_3  and  C_4
REMARK    4  A    between atoms: C_7  and  C_8
REMARK    5  A    between atoms: C_8  and  N_9
REMARK    6  A    between atoms: C_14  and  C_15
REMARK                            x       y       z     vdW  Elec       q    Type
REMARK                         _______ _______ _______ _____ _____    ______ ____
ROOT
ATOM      1  N   UNL     1      46.051   4.433  12.375  0.00  0.00    +0.000 N 
ATOM      2  C   UNL     1      46.300   3.612  13.445  0.00  0.00    +0.000 A 
ATOM      3  N   UNL     1      46.984   4.224  14.383  0.00  0.00    +0.000 NA
ATOM      4  C   UNL     1      47.212   5.484  13.899  0.00  0.00    +0.000 A 
ATOM      5  C   UNL     1      47.770   6.593  14.542  0.00  0.00    +0.000 A 
ATOM      6  C   UNL     1      47.849   7.816  13.858  0.00  0.00    +0.000 A 
ATOM      7  C   UNL     1      47.494   7.881  12.503  0.00  0.00    +0.000 A 
ATOM      8  C   UNL     1      46.936   6.774  11.838  0.00  0.00    +0.000 A 
ATOM      9  C   UNL     1      46.746   5.610  12.591  0.00  0.00    +0.000 A 
ENDROOT
BRANCH   6  10
ATOM     10  C   UNL     1      48.225   9.014  14.667  0.00  0.00    +0.000 C 
ATOM     11  N   UNL     1      47.674   9.179  15.907  0.00  0.00    +0.000 N 
ATOM     12  O   UNL     1      49.048   9.827  14.263  0.00  0.00    +0.000 OA
ATOM     13  H   UNL     1      46.985   8.583  16.331  0.00  0.00    +0.000 HD
ATOM     14  H   UNL     1      48.012   9.972  16.439  0.00  0.00    +0.000 HD
ENDBRANCH   6  10
BRANCH   1  15
ATOM     15  C   UNL     1      44.926   4.300  11.456  0.00  0.00    +0.000 C 
BRANCH  15  19
ATOM     16  C   UNL     1      46.013   3.121   7.425  0.00  0.00    +0.000 A 
ATOM     17  C   UNL     1      46.044   4.468   7.801  0.00  0.00    +0.000 A 
ATOM     18  C   UNL     1      45.685   4.851   9.101  0.00  0.00    +0.000 A 
ATOM     19  C   UNL     1      45.281   3.895  10.046  0.00  0.00    +0.000 A 
ATOM     20  C   UNL     1      45.262   2.546   9.668  0.00  0.00    +0.000 A 
ATOM     21  C   UNL     1      45.633   2.164   8.375  0.00  0.00    +0.000 A 
BRANCH  16  22
ATOM     22  C   UNL     1      46.366   2.703   6.016  0.00  0.00    +0.000 C 
BRANCH  22  23
ATOM     23  C   UNL     1      47.633   1.843   5.941  0.00  0.00    +0.000 C 
BRANCH  23  24
ATOM     24  N   UNL     1      48.800   2.598   6.399  0.00  0.00    +0.000 NA
ATOM     25  H   UNL     1      48.639   2.931   7.350  0.00  0.00    +0.000 HD
ATOM     26  H   UNL     1      48.922   3.429   5.823  0.00  0.00    +0.000 HD
ENDBRANCH  23  24
ENDBRANCH  22  23
ENDBRANCH  16  22
ENDBRANCH  15  19
ENDBRANCH   1  15
TORSDOF 6
ENDMDL
MODEL 5
REMARK VINA RESULT:    -6.248      3.969      6.070
REMARK INTER + INTRA:          -8.984
REMARK INTER:                  -8.531
REMARK INTRA:                  -0.453
REMARK UNBOUND:                -0.727
REMARK  Name = 
REMARK  6 active torsions:
REMARK  status: ('A' for Active; 'I' for Inactive)
REMARK    1  A    between atoms: N_1  and  C_2
REMARK    2  A    between atoms: C_2  and  C_3
REMARK    3  A    between atoms: C_3  and  C_4
REMARK    4  A    between atoms: C_7  and  C_8
REMARK    5  A    between atoms: C_8  and  N_9
REMARK    6  A    between atoms: C_14  and  C_15
REMARK                            x       y       z     vdW  Elec       q    Type
REMARK                         _______ _______ _______ _____ _____    ______ ____
ROOT
ATOM      1  N   UNL     1      47.405   5.050  14.708  0.00  0.00    +0.000 N 
ATOM      2  C   UNL     1      47.834   6.327  14.452  0.00  0.00    +0.000 A 
ATOM      3  N   UNL     1      47.331   6.799  13.336  0.00  0.00    +0.000 NA
ATOM      4  C   UNL     1      46.563   5.785  12.830  0.00  0.00    +0.000 A 
ATOM      5  C   UNL     1      45.694   5.794  11.736  0.00  0.00    +0.000 A 
ATOM      6  C   UNL     1      44.955   4.639  11.436  0.00  0.00    +0.000 A 
ATOM      7  C   UNL     1      45.194   3.454  12.148  0.00  0.00    +0.000 A 
ATOM      8  C   UNL     1      46.069   3.426  13.249  0.00  0.00    +0.000 A 
ATOM      9  C   UNL     1      46.685   4.632  13.602  0.00  0.00    +0.000 A 
ENDROOT
BRANCH   6  10
ATOM     10  C   UNL     1      43.872   4.780  10.417  0.00  0.00    +0.000 C 
ATOM     11  N   UNL     1      44.083   4.309   9.152  0.00  0.00    +0.000 N 
ATOM     12  O   UNL     1      42.784   5.267  10.703  0.00  0.00    +0.000 OA
ATOM     13  H   UNL     1      44.935   3.902   8.807  0.00  0.00    +0.000 HD
ATOM     14  H   UNL     1      43.294   4.369   8.519  0.00  0.00    +0.000 HD
ENDBRANCH   6  10
BRANCH   1  15
ATOM     15  C   UNL     1      47.305   4.445  16.031  0.00  0.00    +0.000 C 
BRANCH  15  19
ATOM     16  C   UNL     1      51.018   2.796  17.550  0.00  0.00    +0.000 A 
ATOM     17  C   UNL     1      50.057   1.960  16.970  0.00  0.00    +0.000 A 
ATOM     18  C   UNL     1      48.854   2.491  16.487  0.00  0.00    +0.000 A 
ATOM     19  C   UNL     1      48.585   3.865  16.581  0.00  0.00    +0.000 A 
ATOM     20  C   UNL     1      49.554   4.699  17.153  0.00  0.00    +0.000 A 
ATOM     21  C   UNL     1      50.761   4.171  17.623  0.00  0.00    +0.000 A 
BRANCH  16  22
ATOM     22  C   UNL     1      52.304   2.227  18.105  0.00  0.00    +0.000 C 
BRANCH  22  23
ATOM     23  C   UNL     1      52.711   0.904  17.448  0.00  0.00    +0.000 C 
BRANCH  23  24
ATOM     24  N   UNL     1      52.644  -0.197  18.410  0.00  0.00    +0.000 NA
ATOM     25  H   UNL     1      53.530  -0.267  18.910  0.00  0.00    +0.000 HD
ATOM     26  H   UNL     1      52.525  -1.080  17.917  0.00  0.00    +0.000 HD
ENDBRANCH  23  24
ENDBRANCH  22  23
ENDBRANCH  16  22
ENDBRANCH  15  19
ENDBRANCH   1  15
TORSDOF 6
ENDMDL
MODEL 6
REMARK VINA RESULT:    -5.892      3.228      6.780
REMARK INTER + INTRA:          -8.513
REMARK INTER:                  -8.054
REMARK INTRA:                  -0.460
REMARK UNBOUND:                -0.727
REMARK  Name = 
REMARK  6 active torsions:
REMARK  status: ('A' for Active; 'I' for Inactive)
REMARK    1  A    between atoms: N_1  and  C_2
REMARK    2  A    between atoms: C_2  and  C_3
REMARK    3  A    between atoms: C_3  and  C_4
REMARK    4  A    between atoms: C_7  and  C_8
REMARK    5  A    between atoms: C_8  and  N_9
REMARK    6  A    between atoms: C_14  and  C_15
REMARK                            x       y       z     vdW  Elec       q    Type
REMARK                         _______ _______ _______ _____ _____    ______ ____
ROOT
ATOM      1  N   UNL     1      45.721   7.299  12.893  0.00  0.00    +0.000 N 
ATOM      2  C   UNL     1      45.190   8.524  12.581  0.00  0.00    +0.000 A 
ATOM      3  N   UNL     1      46.110   9.369  12.180  0.00  0.00    +0.000 NA
ATOM      4  C   UNL     1      47.290   8.680  12.256  0.00  0.00    +0.000 A 
ATOM      5  C   UNL     1      48.564   9.053  11.818  0.00  0.00    +0.000 A 
ATOM      6  C   UNL     1      49.628   8.147  11.947  0.00  0.00    +0.000 A 
ATOM      7  C   UNL     1      49.434   6.937  12.630  0.00  0.00    +0.000 A 
ATOM      8  C   UNL     1      48.161   6.548  13.083  0.00  0.00    +0.000 A 
ATOM      9  C   UNL     1      47.098   7.418  12.816  0.00  0.00    +0.000 A 
ENDROOT
BRANCH   6  10
ATOM     10  C   UNL     1      50.899   8.500  11.247  0.00  0.00    +0.000 C 
ATOM     11  N   UNL     1      51.243   9.816  11.115  0.00  0.00    +0.000 N 
ATOM     12  O   UNL     1      51.661   7.636  10.828  0.00  0.00    +0.000 OA
ATOM     13  H   UNL     1      50.692  10.603  11.410  0.00  0.00    +0.000 HD
ATOM     14  H   UNL     1      52.145   9.998  10.692  0.00  0.00    +0.000 HD
ENDBRANCH   6  10
BRANCH   1  15
ATOM     15  C   UNL     1      45.002   6.031  12.840  0.00  0.00    +0.000 C 
BRANCH  15  19
ATOM     16  C   UNL     1      45.274   3.874   9.086  0.00  0.00    +0.000 A 
ATOM     17  C   UNL     1      44.715   3.263  10.215  0.00  0.00    +0.000 A 
ATOM     18  C   UNL     1      44.635   3.956  11.430  0.00  0.00    +0.000 A 
ATOM     19  C   UNL     1      45.118   5.270  11.542  0.00  0.00    +0.000 A 
ATOM     20  C   UNL     1      45.666   5.880  10.407  0.00  0.00    +0.000 A 
ATOM     21  C   UNL     1      45.733   5.193   9.191  0.00  0.00    +0.000 A 
BRANCH  16  22
ATOM     22  C   UNL     1      45.395   3.122   7.781  0.00  0.00    +0.000 C 
BRANCH  22  23
ATOM     23  C   UNL     1      46.810   3.160   7.192  0.00  0.00    +0.000 C 
BRANCH  23  24
ATOM     24  N   UNL     1      46.837   3.938   5.954  0.00  0.00    +0.000 NA
ATOM     25  H   UNL     1      47.198   3.360   5.195  0.00  0.00    +0.000 HD
ATOM     26  H   UNL     1      47.485   4.718   6.050  0.00  0.00    +0.000 HD
ENDBRANCH  23  24
ENDBRANCH  22  23
ENDBRANCH  16  22
ENDBRANCH  15  19
ENDBRANCH   1  15
TORSDOF 6
ENDMDL
MODEL 7
REMARK VINA RESULT:    -5.544      2.668      3.890
REMARK INTER + INTRA:          -8.054
REMARK INTER:                  -7.385
REMARK INTRA:                  -0.669
REMARK UNBOUND:                -0.727
REMARK  Name = 
REMARK  6 active torsions:
REMARK  status: ('A' for Active; 'I' for Inactive)
REMARK    1  A    between atoms: N_1  and  C_2
REMARK    2  A    between atoms: C_2  and  C_3
REMARK    3  A    between atoms: C_3  and  C_4
REMARK    4  A    between atoms: C_7  and  C_8
REMARK    5  A    between atoms: C_8  and  N_9
REMARK    6  A    between atoms: C_14  and  C_15
REMARK                            x       y       z     vdW  Elec       q    Type
REMARK                         _______ _______ _______ _____ _____    ______ ____
ROOT
ATOM      1  N   UNL     1      45.744   5.840  13.278  0.00  0.00    +0.000 N 
ATOM      2  C   UNL     1      46.247   4.821  14.045  0.00  0.00    +0.000 A 
ATOM      3  N   UNL     1      46.135   3.658  13.448  0.00  0.00    +0.000 NA
ATOM      4  C   UNL     1      45.514   3.922  12.257  0.00  0.00    +0.000 A 
ATOM      5  C   UNL     1      45.275   3.071  11.175  0.00  0.00    +0.000 A 
ATOM      6  C   UNL     1      44.668   3.584  10.018  0.00  0.00    +0.000 A 
ATOM      7  C   UNL     1      44.189   4.902  10.009  0.00  0.00    +0.000 A 
ATOM      8  C   UNL     1      44.416   5.771  11.091  0.00  0.00    +0.000 A 
ATOM      9  C   UNL     1      45.145   5.263  12.172  0.00  0.00    +0.000 A 
ENDROOT
BRANCH   6  10
ATOM     10  C   UNL     1      44.659   2.699   8.815  0.00  0.00    +0.000 C 
ATOM     11  N   UNL     1      44.677   1.343   8.987  0.00  0.00    +0.000 N 
ATOM     12  O   UNL     1      44.590   3.159   7.681  0.00  0.00    +0.000 OA
ATOM     13  H   UNL     1      44.743   0.859   9.866  0.00  0.00    +0.000 HD
ATOM     14  H   UNL     1      44.603   0.788   8.142  0.00  0.00    +0.000 HD
ENDBRANCH   6  10
BRANCH   1  15
ATOM     15  C   UNL     1      46.166   7.235  13.350  0.00  0.00    +0.000 C 
BRANCH  15  19
ATOM     16  C   UNL     1      50.285   7.941  12.189  0.00  0.00    +0.000 A 
ATOM     17  C   UNL     1      49.941   7.820  13.540  0.00  0.00    +0.000 A 
ATOM     18  C   UNL     1      48.610   7.601  13.916  0.00  0.00    +0.000 A 
ATOM     19  C   UNL     1      47.596   7.505  12.950  0.00  0.00    +0.000 A 
ATOM     20  C   UNL     1      47.946   7.616  11.598  0.00  0.00    +0.000 A 
ATOM     21  C   UNL     1      49.278   7.821  11.223  0.00  0.00    +0.000 A 
BRANCH  16  22
ATOM     22  C   UNL     1      51.714   8.211  11.776  0.00  0.00    +0.000 C 
BRANCH  22  23
ATOM     23  C   UNL     1      52.040   7.707  10.366  0.00  0.00    +0.000 C 
BRANCH  23  24
ATOM     24  N   UNL     1      52.841   6.484  10.424  0.00  0.00    +0.000 NA
ATOM     25  H   UNL     1      52.939   6.186  11.394  0.00  0.00    +0.000 HD
ATOM     26  H   UNL     1      53.784   6.672  10.087  0.00  0.00    +0.000 HD
ENDBRANCH  23  24
ENDBRANCH  22  23
ENDBRANCH  16  22
ENDBRANCH  15  19
ENDBRANCH   1  15
TORSDOF 6
ENDMDL
MODEL 8
REMARK VINA RESULT:    -5.279      3.388      5.523
REMARK INTER + INTRA:          -7.704
REMARK INTER:                  -7.015
REMARK INTRA:                  -0.689
REMARK UNBOUND:                -0.727
REMARK  Name = 
REMARK  6 active torsions:
REMARK  status: ('A' for Active; 'I' for Inactive)
REMARK    1  A    between atoms: N_1  and  C_2
REMARK    2  A    between atoms: C_2  and  C_3
REMARK    3  A    between atoms: C_3  and  C_4
REMARK    4  A    between atoms: C_7  and  C_8
REMARK    5  A    between atoms: C_8  and  N_9
REMARK    6  A    between atoms: C_14  and  C_15
REMARK                            x       y       z     vdW  Elec       q    Type
REMARK                         _______ _______ _______ _____ _____    ______ ____
ROOT
ATOM      1  N   UNL     1      47.576   7.327  13.787  0.00  0.00    +0.000 N 
ATOM      2  C   UNL     1      48.112   6.368  14.607  0.00  0.00    +0.000 A 
ATOM      3  N   UNL     1      47.585   5.186  14.387  0.00  0.00    +0.000 NA
ATOM      4  C   UNL     1      46.653   5.384  13.404  0.00  0.00    +0.000 A 
ATOM      5  C   UNL     1      45.900   4.444  12.695  0.00  0.00    +0.000 A 
ATOM      6  C   UNL     1      45.039   4.881  11.676  0.00  0.00    +0.000 A 
ATOM      7  C   UNL     1      44.843   6.254  11.470  0.00  0.00    +0.000 A 
ATOM      8  C   UNL     1      45.588   7.214  12.179  0.00  0.00    +0.000 A 
ATOM      9  C   UNL     1      46.536   6.737  13.091  0.00  0.00    +0.000 A 
ENDROOT
BRANCH   6  10
ATOM     10  C   UNL     1      44.451   3.827  10.797  0.00  0.00    +0.000 C 
ATOM     11  N   UNL     1      44.950   2.556  10.855  0.00  0.00    +0.000 N 
ATOM     12  O   UNL     1      43.502   4.065  10.058  0.00  0.00    +0.000 OA
ATOM     13  H   UNL     1      45.728   2.253  11.414  0.00  0.00    +0.000 HD
ATOM     14  H   UNL     1      44.473   1.866  10.288  0.00  0.00    +0.000 HD
ENDBRANCH   6  10
BRANCH   1  15
ATOM     15  C   UNL     1      48.251   8.553  13.373  0.00  0.00    +0.000 C 
BRANCH  15  19
ATOM     16  C   UNL     1      52.039   7.941  11.350  0.00  0.00    +0.000 A 
ATOM     17  C   UNL     1      51.999   8.546  12.612  0.00  0.00    +0.000 A 
ATOM     18  C   UNL     1      50.775   8.752  13.262  0.00  0.00    +0.000 A 
ATOM     19  C   UNL     1      49.568   8.363  12.661  0.00  0.00    +0.000 A 
ATOM     20  C   UNL     1      49.613   7.749  11.403  0.00  0.00    +0.000 A 
ATOM     21  C   UNL     1      50.836   7.532  10.761  0.00  0.00    +0.000 A 
BRANCH  16  22
ATOM     22  C   UNL     1      53.352   7.746  10.627  0.00  0.00    +0.000 C 
BRANCH  22  23
ATOM     23  C   UNL     1      53.364   6.510   9.721  0.00  0.00    +0.000 C 
BRANCH  23  24
ATOM     24  N   UNL     1      53.676   5.305  10.491  0.00  0.00    +0.000 NA
ATOM     25  H   UNL     1      54.551   5.440  10.998  0.00  0.00    +0.000 HD
ATOM     26  H   UNL     1      53.832   4.522   9.859  0.00  0.00    +0.000 HD
ENDBRANCH  23  24
ENDBRANCH  22  23
ENDBRANCH  16  22
ENDBRANCH  15  19
ENDBRANCH   1  15
TORSDOF 6
ENDMDL
MODEL 9
REMARK VINA RESULT:    -5.123      4.085      8.804
REMARK INTER + INTRA:          -7.497
REMARK INTER:                  -7.061
REMARK INTRA:                  -0.436
REMARK UNBOUND:                -0.727
REMARK  Name = 
REMARK  6 active torsions:
REMARK  status: ('A' for Active; 'I' for Inactive)
REMARK    1  A    between atoms: N_1  and  C_2
REMARK    2  A    between atoms: C_2  and  C_3
REMARK    3  A    between atoms: C_3  and  C_4
REMARK    4  A    between atoms: C_7  and  C_8
REMARK    5  A    between atoms: C_8  and  N_9
REMARK    6  A    between atoms: C_14  and  C_15
REMARK                            x       y       z     vdW  Elec       q    Type
REMARK                         _______ _______ _______ _____ _____    ______ ____
ROOT
ATOM      1  N   UNL     1      48.456   7.188  15.055  0.00  0.00    +0.000 N 
ATOM      2  C   UNL     1      48.529   8.518  15.379  0.00  0.00    +0.000 A 
ATOM      3  N   UNL     1      48.897   8.698  16.627  0.00  0.00    +0.000 NA
ATOM      4  C   UNL     1      49.046   7.439  17.144  0.00  0.00    +0.000 A 
ATOM      5  C   UNL     1      49.556   7.046  18.384  0.00  0.00    +0.000 A 
ATOM      6  C   UNL     1      49.671   5.678  18.677  0.00  0.00    +0.000 A 
ATOM      7  C   UNL     1      49.154   4.728  17.784  0.00  0.00    +0.000 A 
ATOM      8  C   UNL     1      48.632   5.107  16.534  0.00  0.00    +0.000 A 
ATOM      9  C   UNL     1      48.658   6.470  16.221  0.00  0.00    +0.000 A 
ENDROOT
BRANCH   6  10
ATOM     10  C   UNL     1      50.441   5.318  19.905  0.00  0.00    +0.000 C 
ATOM     11  N   UNL     1      49.869   4.491  20.830  0.00  0.00    +0.000 N 
ATOM     12  O   UNL     1      51.590   5.709  20.079  0.00  0.00    +0.000 OA
ATOM     13  H   UNL     1      48.935   4.122  20.795  0.00  0.00    +0.000 HD
ATOM     14  H   UNL     1      50.457   4.225  21.611  0.00  0.00    +0.000 HD
ENDBRANCH   6  10
BRANCH   1  15
ATOM     15  C   UNL     1      48.617   6.638  13.713  0.00  0.00    +0.000 C 
BRANCH  15  19
ATOM     16  C   UNL     1      45.027   5.115  11.814  0.00  0.00    +0.000 A 
ATOM     17  C   UNL     1      45.779   6.123  11.201  0.00  0.00    +0.000 A 
ATOM     18  C   UNL     1      46.934   6.622  11.818  0.00  0.00    +0.000 A 
ATOM     19  C   UNL     1      47.355   6.127  13.062  0.00  0.00    +0.000 A 
ATOM     20  C   UNL     1      46.606   5.111  13.667  0.00  0.00    +0.000 A 
ATOM     21  C   UNL     1      45.460   4.604  13.044  0.00  0.00    +0.000 A 
BRANCH  16  22
ATOM     22  C   UNL     1      43.761   4.595  11.172  0.00  0.00    +0.000 C 
BRANCH  22  23
ATOM     23  C   UNL     1      43.855   3.122  10.759  0.00  0.00    +0.000 C 
BRANCH  23  24
ATOM     24  N   UNL     1      43.039   2.283  11.636  0.00  0.00    +0.000 NA
ATOM     25  H   UNL     1      43.601   1.970  12.428  0.00  0.00    +0.000 HD
ATOM     26  H   UNL     1      42.753   1.440  11.141  0.00  0.00    +0.000 HD
ENDBRANCH  23  24
ENDBRANCH  22  23
ENDBRANCH  16  22
ENDBRANCH  15  19
ENDBRANCH   1  15
TORSDOF 6
ENDMDL
