MODEL 1
REMARK VINA RESULT:    -8.488      0.000      0.000
REMARK INTER + INTRA:         -12.289
REMARK INTER:                 -11.465
REMARK INTRA:                  -0.824
REMARK UNBOUND:                -0.824
REMARK  Name = 
REMARK  7 active torsions:
REMARK  status: ('A' for Active; 'I' for Inactive)
REMARK    1  A    between atoms: C_1  and  O_2
REMARK    2  A    between atoms: O_2  and  C_3
REMARK    3  A    between atoms: C_5  and  C_6
REMARK    4  A    between atoms: C_11  and  N_12
REMARK    5  A    between atoms: N_12  and  C_13
REMARK    6  A    between atoms: C_13  and  C_14
REMARK    7  A    between atoms: C_18  and  C_19
REMARK                            x       y       z     vdW  Elec       q    Type
REMARK                         _______ _______ _______ _____ _____    ______ ____
ROOT
ATOM      1  N   UNL     1      43.734   5.072   9.834  0.00  0.00    +0.000 N 
ATOM      2  H   UNL     1      42.818   5.110   9.389  0.00  0.00    +0.000 HD
ENDROOT
BRANCH   1   8
ATOM      3  C   UNL     1      44.432   2.736   9.602  0.00  0.00    +0.000 A 
ATOM      4  C   UNL     1      45.253   1.766   9.007  0.00  0.00    +0.000 A 
ATOM      5  C   UNL     1      46.215   2.124   8.054  0.00  0.00    +0.000 A 
ATOM      6  C   UNL     1      46.350   3.468   7.692  0.00  0.00    +0.000 A 
ATOM      7  C   UNL     1      45.528   4.433   8.281  0.00  0.00    +0.000 A 
ATOM      8  C   UNL     1      44.577   4.102   9.247  0.00  0.00    +0.000 A 
BRANCH   5   9
ATOM      9  C   UNL     1      47.042   1.032   7.463  0.00  0.00    +0.000 C 
ATOM     10  N   UNL     1      46.700  -0.263   7.726  0.00  0.00    +0.000 N 
ATOM     11  O   UNL     1      48.012   1.281   6.753  0.00  0.00    +0.000 OA
ATOM     12  H   UNL     1      45.945  -0.566   8.313  0.00  0.00    +0.000 HD
ATOM     13  H   UNL     1      47.299  -0.975   7.312  0.00  0.00    +0.000 HD
ENDBRANCH   5   9
BRANCH   3  15
ATOM     14  C   UNL     1      43.892   2.233  11.871  0.00  0.00    +0.000 C 
ATOM     15  O   UNL     1      43.455   2.446  10.529  0.00  0.00    +0.000 OA
ENDBRANCH   3  15
ENDBRANCH   1   8
BRANCH   1  16
ATOM     16  C   UNL     1      43.951   5.754  11.120  0.00  0.00    +0.000 C 
ATOM     17  C   UNL     1      42.895   5.479  12.190  0.00  0.00    +0.000 C 
ATOM     18  C   UNL     1      43.009   6.846  11.606  0.00  0.00    +0.000 C 
BRANCH  16  19
ATOM     19  C   UNL     1      45.405   5.882  11.594  0.00  0.00    +0.000 A 
ATOM     20  C   UNL     1      46.322   6.726  10.947  0.00  0.00    +0.000 A 
ATOM     21  C   UNL     1      47.570   7.012  11.500  0.00  0.00    +0.000 A 
ATOM     22  C   UNL     1      47.930   6.461  12.728  0.00  0.00    +0.000 A 
ATOM     23  C   UNL     1      47.065   5.590  13.410  0.00  0.00    +0.000 A 
ATOM     24  C   UNL     1      45.832   5.285  12.797  0.00  0.00    +0.000 A 
BRANCH  23  25
ATOM     25  C   UNL     1      47.379   5.088  14.763  0.00  0.00    +0.000 A 
ATOM     26  C   UNL     1      48.172   5.810  15.665  0.00  0.00    +0.000 A 
ATOM     27  C   UNL     1      48.507   5.270  16.907  0.00  0.00    +0.000 A 
ATOM     28  C   UNL     1      48.027   4.014  17.229  0.00  0.00    +0.000 A 
ATOM     29  N   UNL     1      47.252   3.280  16.407  0.00  0.00    +0.000 NA
ATOM     30  C   UNL     1      46.956   3.829  15.203  0.00  0.00    +0.000 A 
ENDBRANCH  23  25
ENDBRANCH  16  19
ENDBRANCH   1  16
TORSDOF 6
ENDMDL
MODEL 2
REMARK VINA RESULT:    -7.520      2.098      3.431
REMARK INTER + INTRA:         -10.982
REMARK INTER:                 -10.253
REMARK INTRA:                  -0.729
REMARK UNBOUND:                -0.824
REMARK  Name = 
REMARK  7 active torsions:
REMARK  status: ('A' for Active; 'I' for Inactive)
REMARK    1  A    between atoms: C_1  and  O_2
REMARK    2  A    between atoms: O_2  and  C_3
REMARK    3  A    between atoms: C_5  and  C_6
REMARK    4  A    between atoms: C_11  and  N_12
REMARK    5  A    between atoms: N_12  and  C_13
REMARK    6  A    between atoms: C_13  and  C_14
REMARK    7  A    between atoms: C_18  and  C_19
REMARK                            x       y       z     vdW  Elec       q    Type
REMARK                         _______ _______ _______ _____ _____    ______ ____
ROOT
ATOM      1  N   UNL     1      43.606   4.784  10.333  0.00  0.00    +0.000 N 
ATOM      2  H   UNL     1      42.745   4.253  10.449  0.00  0.00    +0.000 HD
ENDROOT
BRANCH   1   8
ATOM      3  C   UNL     1      44.560   2.680   9.519  0.00  0.00    +0.000 A 
ATOM      4  C   UNL     1      45.488   1.994   8.721  0.00  0.00    +0.000 A 
ATOM      5  C   UNL     1      46.414   2.692   7.935  0.00  0.00    +0.000 A 
ATOM      6  C   UNL     1      46.404   4.089   7.946  0.00  0.00    +0.000 A 
ATOM      7  C   UNL     1      45.475   4.772   8.737  0.00  0.00    +0.000 A 
ATOM      8  C   UNL     1      44.556   4.099   9.543  0.00  0.00    +0.000 A 
BRANCH   5   9
ATOM      9  C   UNL     1      47.362   1.889   7.109  0.00  0.00    +0.000 C 
ATOM     10  N   UNL     1      48.418   2.525   6.522  0.00  0.00    +0.000 N 
ATOM     11  O   UNL     1      47.207   0.682   6.953  0.00  0.00    +0.000 OA
ATOM     12  H   UNL     1      48.615   3.508   6.568  0.00  0.00    +0.000 HD
ATOM     13  H   UNL     1      49.032   1.941   5.958  0.00  0.00    +0.000 HD
ENDBRANCH   5   9
BRANCH   3  15
ATOM     14  C   UNL     1      43.730   2.228  11.710  0.00  0.00    +0.000 C 
ATOM     15  O   UNL     1      43.611   2.053  10.298  0.00  0.00    +0.000 OA
ENDBRANCH   3  15
ENDBRANCH   1   8
BRANCH   1  16
ATOM     16  C   UNL     1      43.860   5.962  11.177  0.00  0.00    +0.000 C 
ATOM     17  C   UNL     1      42.624   6.558  11.853  0.00  0.00    +0.000 C 
ATOM     18  C   UNL     1      43.329   7.337  10.796  0.00  0.00    +0.000 C 
BRANCH  16  19
ATOM     19  C   UNL     1      45.164   5.962  11.986  0.00  0.00    +0.000 A 
ATOM     20  C   UNL     1      45.511   4.893  12.829  0.00  0.00    +0.000 A 
ATOM     21  C   UNL     1      46.782   4.787  13.390  0.00  0.00    +0.000 A 
ATOM     22  C   UNL     1      47.748   5.753  13.113  0.00  0.00    +0.000 A 
ATOM     23  C   UNL     1      47.452   6.858  12.299  0.00  0.00    +0.000 A 
ATOM     24  C   UNL     1      46.141   6.957  11.789  0.00  0.00    +0.000 A 
BRANCH  23  25
ATOM     25  C   UNL     1      48.491   7.829  11.902  0.00  0.00    +0.000 A 
ATOM     26  C   UNL     1      49.820   7.450  11.665  0.00  0.00    +0.000 A 
ATOM     27  C   UNL     1      50.789   8.407  11.364  0.00  0.00    +0.000 A 
ATOM     28  C   UNL     1      50.404   9.732  11.290  0.00  0.00    +0.000 A 
ATOM     29  N   UNL     1      49.141  10.153  11.495  0.00  0.00    +0.000 NA
ATOM     30  C   UNL     1      48.227   9.198  11.800  0.00  0.00    +0.000 A 
ENDBRANCH  23  25
ENDBRANCH  16  19
ENDBRANCH   1  16
TORSDOF 6
ENDMDL
MODEL 3
REMARK VINA RESULT:    -7.315      3.128      7.511
REMARK INTER + INTRA:         -10.705
REMARK INTER:                  -9.677
REMARK INTRA:                  -1.028
REMARK UNBOUND:                -0.824
REMARK  Name = 
REMARK  7 active torsions:
REMARK  status: ('A' for Active; 'I' for Inactive)
REMARK    1  A    between atoms: C_1  and  O_2
REMARK    2  A    between atoms: O_2  and  C_3
REMARK    3  A    between atoms: C_5  and  C_6
REMARK    4  A    between atoms: C_11  and  N_12
REMARK    5  A    between atoms: N_12  and  C_13
REMARK    6  A    between atoms: C_13  and  C_14
REMARK    7  A    between atoms: C_18  and  C_19
REMARK                            x       y       z     vdW  Elec       q    Type
REMARK                         _______ _______ _______ _____ _____    ______ ____
ROOT
ATOM      1  N   UNL     1      47.478   6.863  12.966  0.00  0.00    +0.000 N 
ATOM      2  H   UNL     1      48.316   6.880  12.387  0.00  0.00    +0.000 HD
ENDROOT
BRANCH   1   8
ATOM      3  C   UNL     1      48.512   6.572  15.167  0.00  0.00    +0.000 A 
ATOM      4  C   UNL     1      48.675   5.827  16.345  0.00  0.00    +0.000 A 
ATOM      5  C   UNL     1      47.993   4.618  16.531  0.00  0.00    +0.000 A 
ATOM      6  C   UNL     1      47.137   4.156  15.528  0.00  0.00    +0.000 A 
ATOM      7  C   UNL     1      46.970   4.901  14.357  0.00  0.00    +0.000 A 
ATOM      8  C   UNL     1      47.654   6.098  14.141  0.00  0.00    +0.000 A 
BRANCH   5   9
ATOM      9  C   UNL     1      48.215   3.890  17.814  0.00  0.00    +0.000 C 
ATOM     10  N   UNL     1      47.336   2.907  18.169  0.00  0.00    +0.000 N 
ATOM     11  O   UNL     1      49.163   4.160  18.545  0.00  0.00    +0.000 OA
ATOM     12  H   UNL     1      46.520   2.632  17.655  0.00  0.00    +0.000 HD
ATOM     13  H   UNL     1      47.519   2.445  19.058  0.00  0.00    +0.000 HD
ENDBRANCH   5   9
BRANCH   3  15
ATOM     14  C   UNL     1      50.559   7.745  14.811  0.00  0.00    +0.000 C 
ATOM     15  O   UNL     1      49.137   7.778  14.933  0.00  0.00    +0.000 OA
ENDBRANCH   3  15
ENDBRANCH   1   8
BRANCH   1  16
ATOM     16  C   UNL     1      46.198   7.336  12.417  0.00  0.00    +0.000 C 
ATOM     17  C   UNL     1      46.248   8.701  11.730  0.00  0.00    +0.000 C 
ATOM     18  C   UNL     1      45.486   8.548  13.001  0.00  0.00    +0.000 C 
BRANCH  16  19
ATOM     19  C   UNL     1      45.283   6.275  11.790  0.00  0.00    +0.000 A 
ATOM     20  C   UNL     1      43.894   6.282  11.997  0.00  0.00    +0.000 A 
ATOM     21  C   UNL     1      43.040   5.462  11.260  0.00  0.00    +0.000 A 
ATOM     22  C   UNL     1      43.560   4.614  10.285  0.00  0.00    +0.000 A 
ATOM     23  C   UNL     1      44.943   4.545  10.050  0.00  0.00    +0.000 A 
ATOM     24  C   UNL     1      45.779   5.352  10.848  0.00  0.00    +0.000 A 
BRANCH  23  25
ATOM     25  C   UNL     1      45.503   3.740   8.946  0.00  0.00    +0.000 A 
ATOM     26  C   UNL     1      45.576   2.340   9.001  0.00  0.00    +0.000 A 
ATOM     27  C   UNL     1      46.178   1.620   7.970  0.00  0.00    +0.000 A 
ATOM     28  C   UNL     1      46.688   2.316   6.890  0.00  0.00    +0.000 A 
ATOM     29  N   UNL     1      46.635   3.658   6.778  0.00  0.00    +0.000 NA
ATOM     30  C   UNL     1      46.055   4.329   7.804  0.00  0.00    +0.000 A 
ENDBRANCH  23  25
ENDBRANCH  16  19
ENDBRANCH   1  16
TORSDOF 6
ENDMDL
MODEL 4
REMARK VINA RESULT:    -6.698      3.106      7.576
REMARK INTER + INTRA:          -9.871
REMARK INTER:                  -9.662
REMARK INTRA:                  -0.209
REMARK UNBOUND:                -0.824
REMARK  Name = 
REMARK  7 active torsions:
REMARK  status: ('A' for Active; 'I' for Inactive)
REMARK    1  A    between atoms: C_1  and  O_2
REMARK    2  A    between atoms: O_2  and  C_3
REMARK    3  A    between atoms: C_5  and  C_6
REMARK    4  A    between atoms: C_11  and  N_12
REMARK    5  A    between atoms: N_12  and  C_13
REMARK    6  A    between atoms: C_13  and  C_14
REMARK    7  A    between atoms: C_18  and  C_19
REMARK                            x       y       z     vdW  Elec       q    Type
REMARK                         _______ _______ _______ _____ _____    ______ ____
ROOT
ATOM      1  N   UNL     1      49.008   7.823  14.113  0.00  0.00    +0.000 N 
ATOM      2  H   UNL     1      49.772   8.364  14.515  0.00  0.00    +0.000 HD
ENDROOT
BRANCH   1   8
ATOM      3  C   UNL     1      48.957   6.767  16.322  0.00  0.00    +0.000 A 
ATOM      4  C   UNL     1      48.549   5.717  17.159  0.00  0.00    +0.000 A 
ATOM      5  C   UNL     1      47.794   4.650  16.657  0.00  0.00    +0.000 A 
ATOM      6  C   UNL     1      47.440   4.640  15.305  0.00  0.00    +0.000 A 
ATOM      7  C   UNL     1      47.842   5.689  14.473  0.00  0.00    +0.000 A 
ATOM      8  C   UNL     1      48.612   6.753  14.946  0.00  0.00    +0.000 A 
BRANCH   5   9
ATOM      9  C   UNL     1      47.393   3.578  17.613  0.00  0.00    +0.000 C 
ATOM     10  N   UNL     1      48.163   3.367  18.721  0.00  0.00    +0.000 N 
ATOM     11  O   UNL     1      46.393   2.892  17.420  0.00  0.00    +0.000 OA
ATOM     12  H   UNL     1      49.009   3.855  18.952  0.00  0.00    +0.000 HD
ATOM     13  H   UNL     1      47.859   2.618  19.339  0.00  0.00    +0.000 HD
ENDBRANCH   5   9
BRANCH   3  15
ATOM     14  C   UNL     1      50.628   7.612  17.801  0.00  0.00    +0.000 C 
ATOM     15  O   UNL     1      49.684   7.854  16.758  0.00  0.00    +0.000 OA
ENDBRANCH   3  15
ENDBRANCH   1   8
BRANCH   1  16
ATOM     16  C   UNL     1      48.642   8.010  12.700  0.00  0.00    +0.000 C 
ATOM     17  C   UNL     1      49.706   7.584  11.688  0.00  0.00    +0.000 C 
ATOM     18  C   UNL     1      49.360   9.027  11.824  0.00  0.00    +0.000 C 
BRANCH  16  19
ATOM     19  C   UNL     1      47.178   7.738  12.326  0.00  0.00    +0.000 A 
ATOM     20  C   UNL     1      46.193   8.735  12.424  0.00  0.00    +0.000 A 
ATOM     21  C   UNL     1      44.920   8.561  11.883  0.00  0.00    +0.000 A 
ATOM     22  C   UNL     1      44.602   7.378  11.218  0.00  0.00    +0.000 A 
ATOM     23  C   UNL     1      45.537   6.336  11.111  0.00  0.00    +0.000 A 
ATOM     24  C   UNL     1      46.797   6.529  11.713  0.00  0.00    +0.000 A 
BRANCH  23  25
ATOM     25  C   UNL     1      45.259   5.124  10.314  0.00  0.00    +0.000 A 
ATOM     26  C   UNL     1      45.708   4.976   8.994  0.00  0.00    +0.000 A 
ATOM     27  C   UNL     1      45.363   3.848   8.249  0.00  0.00    +0.000 A 
ATOM     28  C   UNL     1      44.582   2.877   8.847  0.00  0.00    +0.000 A 
ATOM     29  N   UNL     1      44.133   2.961  10.114  0.00  0.00    +0.000 NA
ATOM     30  C   UNL     1      44.475   4.076  10.806  0.00  0.00    +0.000 A 
ENDBRANCH  23  25
ENDBRANCH  16  19
ENDBRANCH   1  16
TORSDOF 6
ENDMDL
MODEL 5
REMARK VINA RESULT:    -6.678      2.791      4.876
REMARK INTER + INTRA:          -9.844
REMARK INTER:                  -8.695
REMARK INTRA:                  -1.149
REMARK UNBOUND:                -0.824
REMARK  Name = 
REMARK  7 active torsions:
REMARK  status: ('A' for Active; 'I' for Inactive)
REMARK    1  A    between atoms: C_1  and  O_2
REMARK    2  A    between atoms: O_2  and  C_3
REMARK    3  A    between atoms: C_5  and  C_6
REMARK    4  A    between atoms: C_11  and  N_12
REMARK    5  A    between atoms: N_12  and  C_13
REMARK    6  A    between atoms: C_13  and  C_14
REMARK    7  A    between atoms: C_18  and  C_19
REMARK                            x       y       z     vdW  Elec       q    Type
REMARK                         _______ _______ _______ _____ _____    ______ ____
ROOT
ATOM      1  N   UNL     1      46.441   7.494  13.240  0.00  0.00    +0.000 N 
ATOM      2  H   UNL     1      45.815   7.970  13.887  0.00  0.00    +0.000 HD
ENDROOT
BRANCH   1   8
ATOM      3  C   UNL     1      45.818   5.127  13.336  0.00  0.00    +0.000 A 
ATOM      4  C   UNL     1      45.203   4.007  12.756  0.00  0.00    +0.000 A 
ATOM      5  C   UNL     1      44.595   4.093  11.498  0.00  0.00    +0.000 A 
ATOM      6  C   UNL     1      44.600   5.314  10.818  0.00  0.00    +0.000 A 
ATOM      7  C   UNL     1      45.208   6.431  11.399  0.00  0.00    +0.000 A 
ATOM      8  C   UNL     1      45.838   6.365  12.643  0.00  0.00    +0.000 A 
BRANCH   5   9
ATOM      9  C   UNL     1      43.956   2.859  10.954  0.00  0.00    +0.000 C 
ATOM     10  N   UNL     1      44.507   2.266   9.855  0.00  0.00    +0.000 N 
ATOM     11  O   UNL     1      42.955   2.377  11.476  0.00  0.00    +0.000 OA
ATOM     12  H   UNL     1      45.305   2.597   9.344  0.00  0.00    +0.000 HD
ATOM     13  H   UNL     1      44.032   1.434   9.511  0.00  0.00    +0.000 HD
ENDBRANCH   5   9
BRANCH   3  15
ATOM     14  C   UNL     1      47.210   3.970  14.891  0.00  0.00    +0.000 C 
ATOM     15  O   UNL     1      46.415   5.114  14.579  0.00  0.00    +0.000 OA
ENDBRANCH   3  15
ENDBRANCH   1   8
BRANCH   1  16
ATOM     16  C   UNL     1      47.874   7.824  13.232  0.00  0.00    +0.000 C 
ATOM     17  C   UNL     1      48.314   8.791  12.132  0.00  0.00    +0.000 C 
ATOM     18  C   UNL     1      48.783   7.377  12.095  0.00  0.00    +0.000 C 
BRANCH  16  19
ATOM     19  C   UNL     1      48.556   7.970  14.599  0.00  0.00    +0.000 A 
ATOM     20  C   UNL     1      48.225   9.010  15.483  0.00  0.00    +0.000 A 
ATOM     21  C   UNL     1      48.676   9.020  16.802  0.00  0.00    +0.000 A 
ATOM     22  C   UNL     1      49.470   7.977  17.275  0.00  0.00    +0.000 A 
ATOM     23  C   UNL     1      49.855   6.923  16.430  0.00  0.00    +0.000 A 
ATOM     24  C   UNL     1      49.421   6.972  15.090  0.00  0.00    +0.000 A 
BRANCH  23  25
ATOM     25  C   UNL     1      50.599   5.753  16.940  0.00  0.00    +0.000 A 
ATOM     26  C   UNL     1      49.954   4.587  17.376  0.00  0.00    +0.000 A 
ATOM     27  C   UNL     1      50.686   3.531  17.919  0.00  0.00    +0.000 A 
ATOM     28  C   UNL     1      52.060   3.658  18.004  0.00  0.00    +0.000 A 
ATOM     29  N   UNL     1      52.733   4.749  17.591  0.00  0.00    +0.000 NA
ATOM     30  C   UNL     1      51.990   5.762  17.080  0.00  0.00    +0.000 A 
ENDBRANCH  23  25
ENDBRANCH  16  19
ENDBRANCH   1  16
TORSDOF 6
ENDMDL
MODEL 6
REMARK VINA RESULT:    -6.569      2.774      5.197
REMARK INTER + INTRA:          -9.698
REMARK INTER:                  -8.569
REMARK INTRA:                  -1.129
REMARK UNBOUND:                -0.824
REMARK  Name = 
REMARK  7 active torsions:
REMARK  status: ('A' for Active; 'I' for Inactive)
REMARK    1  A    between atoms: C_1  and  O_2
REMARK    2  A    between atoms: O_2  and  C_3
REMARK    3  A    between atoms: C_5  and  C_6
REMARK    4  A    between atoms: C_11  and  N_12
REMARK    5  A    between atoms: N_12  and  C_13
REMARK    6  A    between atoms: C_13  and  C_14
REMARK    7  A    between atoms: C_18  and  C_19
REMARK                            x       y       z     vdW  Elec       q    Type
REMARK                         _______ _______ _______ _____ _____    ______ ____
ROOT
ATOM      1  N   UNL     1      46.327   8.454  13.607  0.00  0.00    +0.000 N 
ATOM      2  H   UNL     1      45.662   8.953  14.194  0.00  0.00    +0.000 HD
ENDROOT
BRANCH   1   8
ATOM      3  C   UNL     1      44.968   7.731  11.702  0.00  0.00    +0.000 A 
ATOM      4  C   UNL     1      44.377   6.704  10.949  0.00  0.00    +0.000 A 
ATOM      5  C   UNL     1      44.522   5.363  11.326  0.00  0.00    +0.000 A 
ATOM      6  C   UNL     1      45.271   5.050  12.463  0.00  0.00    +0.000 A 
ATOM      7  C   UNL     1      45.864   6.073  13.209  0.00  0.00    +0.000 A 
ATOM      8  C   UNL     1      45.717   7.417  12.865  0.00  0.00    +0.000 A 
BRANCH   5   9
ATOM      9  C   UNL     1      43.869   4.331  10.469  0.00  0.00    +0.000 C 
ATOM     10  N   UNL     1      43.947   4.462   9.112  0.00  0.00    +0.000 N 
ATOM     11  O   UNL     1      43.271   3.379  10.961  0.00  0.00    +0.000 OA
ATOM     12  H   UNL     1      44.389   5.215   8.617  0.00  0.00    +0.000 HD
ATOM     13  H   UNL     1      43.478   3.742   8.567  0.00  0.00    +0.000 HD
ENDBRANCH   5   9
BRANCH   3  15
ATOM     14  C   UNL     1      43.621   9.520  10.878  0.00  0.00    +0.000 C 
ATOM     15  O   UNL     1      44.881   9.067  11.373  0.00  0.00    +0.000 OA
ENDBRANCH   3  15
ENDBRANCH   1   8
BRANCH   1  16
ATOM     16  C   UNL     1      47.772   8.648  13.809  0.00  0.00    +0.000 C 
ATOM     17  C   UNL     1      48.361   9.893  13.145  0.00  0.00    +0.000 C 
ATOM     18  C   UNL     1      48.754   8.542  12.651  0.00  0.00    +0.000 C 
BRANCH  16  19
ATOM     19  C   UNL     1      48.333   8.261  15.184  0.00  0.00    +0.000 A 
ATOM     20  C   UNL     1      48.256   9.130  16.285  0.00  0.00    +0.000 A 
ATOM     21  C   UNL     1      48.562   8.703  17.576  0.00  0.00    +0.000 A 
ATOM     22  C   UNL     1      48.949   7.383  17.800  0.00  0.00    +0.000 A 
ATOM     23  C   UNL     1      49.069   6.476  16.735  0.00  0.00    +0.000 A 
ATOM     24  C   UNL     1      48.799   6.956  15.438  0.00  0.00    +0.000 A 
BRANCH  23  25
ATOM     25  C   UNL     1      49.366   5.047  16.964  0.00  0.00    +0.000 A 
ATOM     26  C   UNL     1      50.576   4.613  17.522  0.00  0.00    +0.000 A 
ATOM     27  C   UNL     1      50.850   3.252  17.655  0.00  0.00    +0.000 A 
ATOM     28  C   UNL     1      49.894   2.345  17.236  0.00  0.00    +0.000 A 
ATOM     29  N   UNL     1      48.710   2.704  16.704  0.00  0.00    +0.000 NA
ATOM     30  C   UNL     1      48.482   4.035  16.577  0.00  0.00    +0.000 A 
ENDBRANCH  23  25
ENDBRANCH  16  19
ENDBRANCH   1  16
TORSDOF 6
ENDMDL
MODEL 7
REMARK VINA RESULT:    -6.567      3.178      7.841
REMARK INTER + INTRA:          -9.695
REMARK INTER:                  -8.554
REMARK INTRA:                  -1.140
REMARK UNBOUND:                -0.824
REMARK  Name = 
REMARK  7 active torsions:
REMARK  status: ('A' for Active; 'I' for Inactive)
REMARK    1  A    between atoms: C_1  and  O_2
REMARK    2  A    between atoms: O_2  and  C_3
REMARK    3  A    between atoms: C_5  and  C_6
REMARK    4  A    between atoms: C_11  and  N_12
REMARK    5  A    between atoms: N_12  and  C_13
REMARK    6  A    between atoms: C_13  and  C_14
REMARK    7  A    between atoms: C_18  and  C_19
REMARK                            x       y       z     vdW  Elec       q    Type
REMARK                         _______ _______ _______ _____ _____    ______ ____
ROOT
ATOM      1  N   UNL     1      49.157   6.976  13.930  0.00  0.00    +0.000 N 
ATOM      2  H   UNL     1      49.690   6.231  13.486  0.00  0.00    +0.000 HD
ENDROOT
BRANCH   1   8
ATOM      3  C   UNL     1      48.177   5.469  15.594  0.00  0.00    +0.000 A 
ATOM      4  C   UNL     1      47.879   5.161  16.930  0.00  0.00    +0.000 A 
ATOM      5  C   UNL     1      48.236   6.034  17.965  0.00  0.00    +0.000 A 
ATOM      6  C   UNL     1      48.904   7.223  17.656  0.00  0.00    +0.000 A 
ATOM      7  C   UNL     1      49.205   7.526  16.325  0.00  0.00    +0.000 A 
ATOM      8  C   UNL     1      48.841   6.681  15.276  0.00  0.00    +0.000 A 
BRANCH   5   9
ATOM      9  C   UNL     1      47.891   5.631  19.360  0.00  0.00    +0.000 C 
ATOM     10  N   UNL     1      48.168   4.355  19.759  0.00  0.00    +0.000 N 
ATOM     11  O   UNL     1      47.369   6.420  20.141  0.00  0.00    +0.000 OA
ATOM     12  H   UNL     1      48.567   3.632  19.189  0.00  0.00    +0.000 HD
ATOM     13  H   UNL     1      47.905   4.120  20.714  0.00  0.00    +0.000 HD
ENDBRANCH   5   9
BRANCH   3  15
ATOM     14  C   UNL     1      46.500   4.271  14.391  0.00  0.00    +0.000 C 
ATOM     15  O   UNL     1      47.870   4.644  14.533  0.00  0.00    +0.000 OA
ENDBRANCH   3  15
ENDBRANCH   1   8
BRANCH   1  16
ATOM     16  C   UNL     1      48.563   8.042  13.108  0.00  0.00    +0.000 C 
ATOM     17  C   UNL     1      49.524   8.726  12.136  0.00  0.00    +0.000 C 
ATOM     18  C   UNL     1      48.971   9.498  13.285  0.00  0.00    +0.000 C 
BRANCH  16  19
ATOM     19  C   UNL     1      47.125   7.817  12.623  0.00  0.00    +0.000 A 
ATOM     20  C   UNL     1      46.167   8.844  12.650  0.00  0.00    +0.000 A 
ATOM     21  C   UNL     1      44.933   8.712  12.013  0.00  0.00    +0.000 A 
ATOM     22  C   UNL     1      44.630   7.541  11.321  0.00  0.00    +0.000 A 
ATOM     23  C   UNL     1      45.538   6.470  11.280  0.00  0.00    +0.000 A 
ATOM     24  C   UNL     1      46.754   6.622  11.977  0.00  0.00    +0.000 A 
BRANCH  23  25
ATOM     25  C   UNL     1      45.284   5.269  10.459  0.00  0.00    +0.000 A 
ATOM     26  C   UNL     1      45.748   5.150   9.141  0.00  0.00    +0.000 A 
ATOM     27  C   UNL     1      45.425   4.031   8.373  0.00  0.00    +0.000 A 
ATOM     28  C   UNL     1      44.650   3.040   8.946  0.00  0.00    +0.000 A 
ATOM     29  N   UNL     1      44.187   3.096  10.210  0.00  0.00    +0.000 NA
ATOM     30  C   UNL     1      44.507   4.203  10.925  0.00  0.00    +0.000 A 
ENDBRANCH  23  25
ENDBRANCH  16  19
ENDBRANCH   1  16
TORSDOF 6
ENDMDL
MODEL 8
REMARK VINA RESULT:    -6.537      3.892      8.570
REMARK INTER + INTRA:          -9.654
REMARK INTER:                  -8.661
REMARK INTRA:                  -0.993
REMARK UNBOUND:                -0.824
REMARK  Name = 
REMARK  7 active torsions:
REMARK  status: ('A' for Active; 'I' for Inactive)
REMARK    1  A    between atoms: C_1  and  O_2
REMARK    2  A    between atoms: O_2  and  C_3
REMARK    3  A    between atoms: C_5  and  C_6
REMARK    4  A    between atoms: C_11  and  N_12
REMARK    5  A    between atoms: N_12  and  C_13
REMARK    6  A    between atoms: C_13  and  C_14
REMARK    7  A    between atoms: C_18  and  C_19
REMARK                            x       y       z     vdW  Elec       q    Type
REMARK                         _______ _______ _______ _____ _____    ______ ____
ROOT
ATOM      1  N   UNL     1      49.309   7.264  14.146  0.00  0.00    +0.000 N 
ATOM      2  H   UNL     1      49.813   6.380  14.178  0.00  0.00    +0.000 HD
ENDROOT
BRANCH   1   8
ATOM      3  C   UNL     1      48.962   6.786  16.523  0.00  0.00    +0.000 A 
ATOM      4  C   UNL     1      48.551   7.199  17.800  0.00  0.00    +0.000 A 
ATOM      5  C   UNL     1      48.059   8.493  18.012  0.00  0.00    +0.000 A 
ATOM      6  C   UNL     1      47.984   9.381  16.934  0.00  0.00    +0.000 A 
ATOM      7  C   UNL     1      48.399   8.970  15.664  0.00  0.00    +0.000 A 
ATOM      8  C   UNL     1      48.874   7.679  15.425  0.00  0.00    +0.000 A 
BRANCH   5   9
ATOM      9  C   UNL     1      47.650   8.858  19.400  0.00  0.00    +0.000 C 
ATOM     10  N   UNL     1      47.860   7.955  20.402  0.00  0.00    +0.000 N 
ATOM     11  O   UNL     1      47.135   9.944  19.648  0.00  0.00    +0.000 OA
ATOM     12  H   UNL     1      48.248   7.036  20.296  0.00  0.00    +0.000 HD
ATOM     13  H   UNL     1      47.555   8.241  21.330  0.00  0.00    +0.000 HD
ENDBRANCH   5   9
BRANCH   3  15
ATOM     14  C   UNL     1      49.583   4.639  17.359  0.00  0.00    +0.000 C 
ATOM     15  O   UNL     1      49.474   5.534  16.253  0.00  0.00    +0.000 OA
ENDBRANCH   3  15
ENDBRANCH   1   8
BRANCH   1  16
ATOM     16  C   UNL     1      48.862   7.807  12.854  0.00  0.00    +0.000 C 
ATOM     17  C   UNL     1      49.870   7.685  11.712  0.00  0.00    +0.000 C 
ATOM     18  C   UNL     1      49.521   9.034  12.241  0.00  0.00    +0.000 C 
BRANCH  16  19
ATOM     19  C   UNL     1      47.381   7.610  12.499  0.00  0.00    +0.000 A 
ATOM     20  C   UNL     1      46.449   8.655  12.611  0.00  0.00    +0.000 A 
ATOM     21  C   UNL     1      45.162   8.546  12.086  0.00  0.00    +0.000 A 
ATOM     22  C   UNL     1      44.776   7.382  11.425  0.00  0.00    +0.000 A 
ATOM     23  C   UNL     1      45.656   6.294  11.304  0.00  0.00    +0.000 A 
ATOM     24  C   UNL     1      46.932   6.422  11.890  0.00  0.00    +0.000 A 
BRANCH  23  25
ATOM     25  C   UNL     1      45.307   5.100  10.510  0.00  0.00    +0.000 A 
ATOM     26  C   UNL     1      45.607   4.993   9.144  0.00  0.00    +0.000 A 
ATOM     27  C   UNL     1      45.196   3.879   8.412  0.00  0.00    +0.000 A 
ATOM     28  C   UNL     1      44.500   2.881   9.066  0.00  0.00    +0.000 A 
ATOM     29  N   UNL     1      44.193   2.924  10.377  0.00  0.00    +0.000 NA
ATOM     30  C   UNL     1      44.596   4.026  11.057  0.00  0.00    +0.000 A 
ENDBRANCH  23  25
ENDBRANCH  16  19
ENDBRANCH   1  16
TORSDOF 6
ENDMDL
MODEL 9
REMARK VINA RESULT:    -6.530      4.410      7.241
REMARK INTER + INTRA:          -9.645
REMARK INTER:                  -8.695
REMARK INTRA:                  -0.949
REMARK UNBOUND:                -0.824
REMARK  Name = 
REMARK  7 active torsions:
REMARK  status: ('A' for Active; 'I' for Inactive)
REMARK    1  A    between atoms: C_1  and  O_2
REMARK    2  A    between atoms: O_2  and  C_3
REMARK    3  A    between atoms: C_5  and  C_6
REMARK    4  A    between atoms: C_11  and  N_12
REMARK    5  A    between atoms: N_12  and  C_13
REMARK    6  A    between atoms: C_13  and  C_14
REMARK    7  A    between atoms: C_18  and  C_19
REMARK                            x       y       z     vdW  Elec       q    Type
REMARK                         _______ _______ _______ _____ _____    ______ ____
ROOT
ATOM      1  N   UNL     1      48.815   6.342  12.781  0.00  0.00    +0.000 N 
ATOM      2  H   UNL     1      49.337   5.556  12.398  0.00  0.00    +0.000 HD
ENDROOT
BRANCH   1   8
ATOM      3  C   UNL     1      46.781   5.164  13.472  0.00  0.00    +0.000 A 
ATOM      4  C   UNL     1      45.391   4.989  13.393  0.00  0.00    +0.000 A 
ATOM      5  C   UNL     1      44.613   5.790  12.548  0.00  0.00    +0.000 A 
ATOM      6  C   UNL     1      45.235   6.779  11.780  0.00  0.00    +0.000 A 
ATOM      7  C   UNL     1      46.619   6.956  11.863  0.00  0.00    +0.000 A 
ATOM      8  C   UNL     1      47.418   6.157  12.683  0.00  0.00    +0.000 A 
BRANCH   5   9
ATOM      9  C   UNL     1      43.141   5.547  12.528  0.00  0.00    +0.000 C 
ATOM     10  N   UNL     1      42.364   6.307  11.701  0.00  0.00    +0.000 N 
ATOM     11  O   UNL     1      42.628   4.684  13.234  0.00  0.00    +0.000 OA
ATOM     12  H   UNL     1      42.684   7.050  11.109  0.00  0.00    +0.000 HD
ATOM     13  H   UNL     1      41.364   6.114  11.729  0.00  0.00    +0.000 HD
ENDBRANCH   5   9
BRANCH   3  15
ATOM     14  C   UNL     1      47.408   4.593  15.702  0.00  0.00    +0.000 C 
ATOM     15  O   UNL     1      47.599   4.423  14.298  0.00  0.00    +0.000 OA
ENDBRANCH   3  15
ENDBRANCH   1   8
BRANCH   1  16
ATOM     16  C   UNL     1      49.508   7.603  13.087  0.00  0.00    +0.000 C 
ATOM     17  C   UNL     1      50.059   7.715  14.509  0.00  0.00    +0.000 C 
ATOM     18  C   UNL     1      48.935   8.599  14.086  0.00  0.00    +0.000 C 
BRANCH  16  19
ATOM     19  C   UNL     1      50.356   8.213  11.963  0.00  0.00    +0.000 A 
ATOM     20  C   UNL     1      50.754   9.560  11.985  0.00  0.00    +0.000 A 
ATOM     21  C   UNL     1      51.698  10.059  11.089  0.00  0.00    +0.000 A 
ATOM     22  C   UNL     1      52.276   9.214  10.145  0.00  0.00    +0.000 A 
ATOM     23  C   UNL     1      51.899   7.864  10.057  0.00  0.00    +0.000 A 
ATOM     24  C   UNL     1      50.906   7.407  10.948  0.00  0.00    +0.000 A 
BRANCH  23  25
ATOM     25  C   UNL     1      52.581   6.926   9.142  0.00  0.00    +0.000 A 
ATOM     26  C   UNL     1      53.579   6.044   9.580  0.00  0.00    +0.000 A 
ATOM     27  C   UNL     1      54.251   5.225   8.673  0.00  0.00    +0.000 A 
ATOM     28  C   UNL     1      53.900   5.295   7.338  0.00  0.00    +0.000 A 
ATOM     29  N   UNL     1      52.942   6.114   6.862  0.00  0.00    +0.000 NA
ATOM     30  C   UNL     1      52.317   6.906   7.769  0.00  0.00    +0.000 A 
ENDBRANCH  23  25
ENDBRANCH  16  19
ENDBRANCH   1  16
TORSDOF 6
ENDMDL
