MODEL 1
REMARK VINA RESULT:    -7.996      0.000      0.000
REMARK INTER + INTRA:         -11.876
REMARK INTER:                 -10.801
REMARK INTRA:                  -1.075
REMARK UNBOUND:                -1.075
REMARK  Name = 
REMARK  7 active torsions:
REMARK  status: ('A' for Active; 'I' for Inactive)
REMARK    1  A    between atoms: C_1  and  N_2
REMARK    2  A    between atoms: N_2  and  C_3
REMARK    3  A    between atoms: C_3  and  C_4
REMARK    4  A    between atoms: C_7  and  C_8
REMARK    5  A    between atoms: C_8  and  O_9
REMARK    6  A    between atoms: O_9  and  C_10
REMARK    7  A    between atoms: C_18  and  C_20
REMARK                            x       y       z     vdW  Elec       q    Type
REMARK                         _______ _______ _______ _____ _____    ______ ____
ROOT
ATOM      1  C   UNL     1      46.157   8.608  12.154  0.00  0.00    +0.000 C 
ATOM      2  N   UNL     1      45.986   7.160  12.074  0.00  0.00    +0.000 N 
ATOM      3  C   UNL     1      44.734   6.726  11.600  0.00  0.00    +0.000 C 
ATOM      4  O   UNL     1      43.857   7.534  11.300  0.00  0.00    +0.000 OA
ENDROOT
BRANCH   3   5
ATOM      5  C   UNL     1      44.456   5.288  11.500  0.00  0.00    +0.000 A 
ATOM      6  C   UNL     1      43.713   4.565  12.418  0.00  0.00    +0.000 A 
ATOM      7  S   UNL     1      43.498   2.927  11.984  0.00  0.00    +0.000 S 
ATOM      8  C   UNL     1      44.266   3.170  10.487  0.00  0.00    +0.000 A 
ATOM      9  N   UNL     1      44.327   2.175   9.563  0.00  0.00    +0.000 NA
ATOM     10  C   UNL     1      44.877   2.527   8.447  0.00  0.00    +0.000 A 
ATOM     11  N   UNL     1      45.405   3.767   8.188  0.00  0.00    +0.000 N 
ATOM     12  C   UNL     1      45.493   4.754   9.144  0.00  0.00    +0.000 A 
ATOM     13  O   UNL     1      46.189   5.748   8.964  0.00  0.00    +0.000 OA
ATOM     14  C   UNL     1      44.770   4.452  10.366  0.00  0.00    +0.000 A 
ATOM     15  H   UNL     1      45.886   3.951   7.321  0.00  0.00    +0.000 HD
ENDBRANCH   3   5
BRANCH   2  16
ATOM     16  C   UNL     1      47.135   6.265  12.262  0.00  0.00    +0.000 C 
BRANCH  16  17
ATOM     17  C   UNL     1      47.432   5.831  13.664  0.00  0.00    +0.000 A 
ATOM     18  C   UNL     1      46.829   4.702  14.215  0.00  0.00    +0.000 A 
ATOM     19  C   UNL     1      47.192   4.290  15.492  0.00  0.00    +0.000 A 
ATOM     20  C   UNL     1      48.170   5.006  16.176  0.00  0.00    +0.000 A 
ATOM     21  N   UNL     1      48.753   6.122  15.670  0.00  0.00    +0.000 NA
ATOM     22  C   UNL     1      48.361   6.516  14.440  0.00  0.00    +0.000 A 
BRANCH  20  23
ATOM     23  C   UNL     1      48.644   4.536  17.528  0.00  0.00    +0.000 C 
BRANCH  23  24
ATOM     24  O   UNL     1      50.051   4.743  17.628  0.00  0.00    +0.000 OA
BRANCH  24  25
ATOM     25  C   UNL     1      50.817   3.615  17.669  0.00  0.00    +0.000 A 
ATOM     26  C   UNL     1      52.126   3.522  18.134  0.00  0.00    +0.000 A 
ATOM     27  C   UNL     1      52.784   2.293  18.099  0.00  0.00    +0.000 A 
ATOM     28  C   UNL     1      52.107   1.197  17.598  0.00  0.00    +0.000 A 
ATOM     29  N   UNL     1      50.836   1.245  17.141  0.00  0.00    +0.000 NA
ATOM     30  C   UNL     1      50.224   2.453  17.190  0.00  0.00    +0.000 A 
ENDBRANCH  24  25
ENDBRANCH  23  24
ENDBRANCH  20  23
ENDBRANCH  16  17
ENDBRANCH   2  16
TORSDOF 6
ENDMDL
MODEL 2
REMARK VINA RESULT:    -7.457      3.322      8.339
REMARK INTER + INTRA:         -11.147
REMARK INTER:                 -10.131
REMARK INTRA:                  -1.016
REMARK UNBOUND:                -1.075
REMARK  Name = 
REMARK  7 active torsions:
REMARK  status: ('A' for Active; 'I' for Inactive)
REMARK    1  A    between atoms: C_1  and  N_2
REMARK    2  A    between atoms: N_2  and  C_3
REMARK    3  A    between atoms: C_3  and  C_4
REMARK    4  A    between atoms: C_7  and  C_8
REMARK    5  A    between atoms: C_8  and  O_9
REMARK    6  A    between atoms: O_9  and  C_10
REMARK    7  A    between atoms: C_18  and  C_20
REMARK                            x       y       z     vdW  Elec       q    Type
REMARK                         _______ _______ _______ _____ _____    ______ ____
ROOT
ATOM      1  C   UNL     1      49.271   6.903  12.272  0.00  0.00    +0.000 C 
ATOM      2  N   UNL     1      48.665   7.324  13.533  0.00  0.00    +0.000 N 
ATOM      3  C   UNL     1      49.566   7.786  14.510  0.00  0.00    +0.000 C 
ATOM      4  O   UNL     1      50.777   7.806  14.295  0.00  0.00    +0.000 OA
ENDROOT
BRANCH   3   5
ATOM      5  C   UNL     1      49.059   8.213  15.819  0.00  0.00    +0.000 A 
ATOM      6  C   UNL     1      48.731   9.518  16.148  0.00  0.00    +0.000 A 
ATOM      7  S   UNL     1      48.092   9.686  17.723  0.00  0.00    +0.000 S 
ATOM      8  C   UNL     1      48.098   8.003  17.960  0.00  0.00    +0.000 A 
ATOM      9  N   UNL     1      47.568   7.453  19.084  0.00  0.00    +0.000 NA
ATOM     10  C   UNL     1      47.578   6.160  19.092  0.00  0.00    +0.000 A 
ATOM     11  N   UNL     1      48.105   5.372  18.101  0.00  0.00    +0.000 N 
ATOM     12  C   UNL     1      48.780   5.889  17.017  0.00  0.00    +0.000 A 
ATOM     13  O   UNL     1      49.452   5.168  16.287  0.00  0.00    +0.000 OA
ATOM     14  C   UNL     1      48.675   7.333  16.897  0.00  0.00    +0.000 A 
ATOM     15  H   UNL     1      48.147   4.370  18.206  0.00  0.00    +0.000 HD
ENDBRANCH   3   5
BRANCH   2  16
ATOM     16  C   UNL     1      47.207   7.455  13.649  0.00  0.00    +0.000 C 
BRANCH  16  17
ATOM     17  C   UNL     1      46.376   6.466  12.893  0.00  0.00    +0.000 A 
ATOM     18  C   UNL     1      45.693   6.831  11.735  0.00  0.00    +0.000 A 
ATOM     19  C   UNL     1      44.997   5.864  11.020  0.00  0.00    +0.000 A 
ATOM     20  C   UNL     1      45.023   4.547  11.471  0.00  0.00    +0.000 A 
ATOM     21  N   UNL     1      45.660   4.172  12.609  0.00  0.00    +0.000 NA
ATOM     22  C   UNL     1      46.304   5.138  13.298  0.00  0.00    +0.000 A 
BRANCH  20  23
ATOM     23  C   UNL     1      44.347   3.461  10.673  0.00  0.00    +0.000 C 
BRANCH  23  24
ATOM     24  O   UNL     1      44.403   3.795   9.288  0.00  0.00    +0.000 OA
BRANCH  24  25
ATOM     25  C   UNL     1      45.332   3.122   8.550  0.00  0.00    +0.000 A 
ATOM     26  C   UNL     1      46.153   3.662   7.564  0.00  0.00    +0.000 A 
ATOM     27  C   UNL     1      47.048   2.836   6.885  0.00  0.00    +0.000 A 
ATOM     28  C   UNL     1      47.090   1.494   7.216  0.00  0.00    +0.000 A 
ATOM     29  N   UNL     1      46.311   0.934   8.168  0.00  0.00    +0.000 NA
ATOM     30  C   UNL     1      45.454   1.762   8.811  0.00  0.00    +0.000 A 
ENDBRANCH  24  25
ENDBRANCH  23  24
ENDBRANCH  20  23
ENDBRANCH  16  17
ENDBRANCH   2  16
TORSDOF 6
ENDMDL
MODEL 3
REMARK VINA RESULT:    -7.096      2.978      8.401
REMARK INTER + INTRA:         -10.660
REMARK INTER:                  -9.987
REMARK INTRA:                  -0.673
REMARK UNBOUND:                -1.075
REMARK  Name = 
REMARK  7 active torsions:
REMARK  status: ('A' for Active; 'I' for Inactive)
REMARK    1  A    between atoms: C_1  and  N_2
REMARK    2  A    between atoms: N_2  and  C_3
REMARK    3  A    between atoms: C_3  and  C_4
REMARK    4  A    between atoms: C_7  and  C_8
REMARK    5  A    between atoms: C_8  and  O_9
REMARK    6  A    between atoms: O_9  and  C_10
REMARK    7  A    between atoms: C_18  and  C_20
REMARK                            x       y       z     vdW  Elec       q    Type
REMARK                         _______ _______ _______ _____ _____    ______ ____
ROOT
ATOM      1  C   UNL     1      46.781   8.575  13.879  0.00  0.00    +0.000 C 
ATOM      2  N   UNL     1      47.994   7.808  14.151  0.00  0.00    +0.000 N 
ATOM      3  C   UNL     1      48.714   8.204  15.294  0.00  0.00    +0.000 C 
ATOM      4  O   UNL     1      48.333   9.146  15.986  0.00  0.00    +0.000 OA
ENDROOT
BRANCH   3   5
ATOM      5  C   UNL     1      49.958   7.507  15.643  0.00  0.00    +0.000 A 
ATOM      6  C   UNL     1      51.230   7.988  15.377  0.00  0.00    +0.000 A 
ATOM      7  S   UNL     1      52.477   6.987  15.977  0.00  0.00    +0.000 S 
ATOM      8  C   UNL     1      51.357   5.958  16.734  0.00  0.00    +0.000 A 
ATOM      9  N   UNL     1      51.772   4.933  17.525  0.00  0.00    +0.000 NA
ATOM     10  C   UNL     1      50.809   4.282  18.091  0.00  0.00    +0.000 A 
ATOM     11  N   UNL     1      49.473   4.535  17.905  0.00  0.00    +0.000 N 
ATOM     12  C   UNL     1      49.010   5.466  17.002  0.00  0.00    +0.000 A 
ATOM     13  O   UNL     1      47.829   5.496  16.674  0.00  0.00    +0.000 OA
ATOM     14  C   UNL     1      50.051   6.312  16.447  0.00  0.00    +0.000 A 
ATOM     15  H   UNL     1      48.773   3.940  18.319  0.00  0.00    +0.000 HD
ENDBRANCH   3   5
BRANCH   2  16
ATOM     16  C   UNL     1      48.280   6.580  13.398  0.00  0.00    +0.000 C 
BRANCH  16  17
ATOM     17  C   UNL     1      47.156   5.998  12.600  0.00  0.00    +0.000 A 
ATOM     18  C   UNL     1      46.777   6.549  11.377  0.00  0.00    +0.000 A 
ATOM     19  C   UNL     1      45.780   5.932  10.630  0.00  0.00    +0.000 A 
ATOM     20  C   UNL     1      45.203   4.762  11.117  0.00  0.00    +0.000 A 
ATOM     21  N   UNL     1      45.538   4.222  12.316  0.00  0.00    +0.000 NA
ATOM     22  C   UNL     1      46.489   4.858  13.033  0.00  0.00    +0.000 A 
BRANCH  20  23
ATOM     23  C   UNL     1      44.179   4.025  10.293  0.00  0.00    +0.000 C 
BRANCH  23  24
ATOM     24  O   UNL     1      44.458   4.228   8.909  0.00  0.00    +0.000 OA
BRANCH  24  25
ATOM     25  C   UNL     1      45.333   3.348   8.343  0.00  0.00    +0.000 A 
ATOM     26  C   UNL     1      46.246   3.628   7.330  0.00  0.00    +0.000 A 
ATOM     27  C   UNL     1      47.068   2.612   6.844  0.00  0.00    +0.000 A 
ATOM     28  C   UNL     1      46.946   1.347   7.389  0.00  0.00    +0.000 A 
ATOM     29  N   UNL     1      46.075   1.037   8.374  0.00  0.00    +0.000 NA
ATOM     30  C   UNL     1      45.292   2.046   8.826  0.00  0.00    +0.000 A 
ENDBRANCH  24  25
ENDBRANCH  23  24
ENDBRANCH  20  23
ENDBRANCH  16  17
ENDBRANCH   2  16
TORSDOF 6
ENDMDL
MODEL 4
REMARK VINA RESULT:    -7.048      3.423      8.575
REMARK INTER + INTRA:         -10.595
REMARK INTER:                  -9.913
REMARK INTRA:                  -0.682
REMARK UNBOUND:                -1.075
REMARK  Name = 
REMARK  7 active torsions:
REMARK  status: ('A' for Active; 'I' for Inactive)
REMARK    1  A    between atoms: C_1  and  N_2
REMARK    2  A    between atoms: N_2  and  C_3
REMARK    3  A    between atoms: C_3  and  C_4
REMARK    4  A    between atoms: C_7  and  C_8
REMARK    5  A    between atoms: C_8  and  O_9
REMARK    6  A    between atoms: O_9  and  C_10
REMARK    7  A    between atoms: C_18  and  C_20
REMARK                            x       y       z     vdW  Elec       q    Type
REMARK                         _______ _______ _______ _____ _____    ______ ____
ROOT
ATOM      1  C   UNL     1      49.087   7.140  12.272  0.00  0.00    +0.000 C 
ATOM      2  N   UNL     1      48.509   6.843  13.580  0.00  0.00    +0.000 N 
ATOM      3  C   UNL     1      49.377   7.011  14.675  0.00  0.00    +0.000 C 
ATOM      4  O   UNL     1      50.542   7.367  14.509  0.00  0.00    +0.000 OA
ENDROOT
BRANCH   3   5
ATOM      5  C   UNL     1      48.897   6.719  16.031  0.00  0.00    +0.000 A 
ATOM      6  C   UNL     1      48.908   5.464  16.617  0.00  0.00    +0.000 A 
ATOM      7  S   UNL     1      48.359   5.459  18.234  0.00  0.00    +0.000 S 
ATOM      8  C   UNL     1      48.227   7.154  18.247  0.00  0.00    +0.000 A 
ATOM      9  N   UNL     1      47.900   7.821  19.385  0.00  0.00    +0.000 NA
ATOM     10  C   UNL     1      47.908   9.109  19.262  0.00  0.00    +0.000 A 
ATOM     11  N   UNL     1      48.171   9.784  18.097  0.00  0.00    +0.000 N 
ATOM     12  C   UNL     1      48.362   9.145  16.891  0.00  0.00    +0.000 A 
ATOM     13  O   UNL     1      48.343   9.769  15.835  0.00  0.00    +0.000 OA
ATOM     14  C   UNL     1      48.496   7.704  17.008  0.00  0.00    +0.000 A 
ATOM     15  H   UNL     1      48.087  10.788  18.052  0.00  0.00    +0.000 HD
ENDBRANCH   3   5
BRANCH   2  16
ATOM     16  C   UNL     1      47.065   6.612  13.719  0.00  0.00    +0.000 C 
BRANCH  16  17
ATOM     17  C   UNL     1      46.424   5.710  12.712  0.00  0.00    +0.000 A 
ATOM     18  C   UNL     1      46.049   4.409  13.041  0.00  0.00    +0.000 A 
ATOM     19  C   UNL     1      45.386   3.631  12.099  0.00  0.00    +0.000 A 
ATOM     20  C   UNL     1      45.093   4.185  10.856  0.00  0.00    +0.000 A 
ATOM     21  N   UNL     1      45.470   5.441  10.504  0.00  0.00    +0.000 NA
ATOM     22  C   UNL     1      46.137   6.164  11.429  0.00  0.00    +0.000 A 
BRANCH  20  23
ATOM     23  C   UNL     1      44.302   3.396   9.844  0.00  0.00    +0.000 C 
BRANCH  23  24
ATOM     24  O   UNL     1      45.020   2.211   9.512  0.00  0.00    +0.000 OA
BRANCH  24  25
ATOM     25  C   UNL     1      45.768   2.268   8.372  0.00  0.00    +0.000 A 
ATOM     26  C   UNL     1      45.890   3.360   7.518  0.00  0.00    +0.000 A 
ATOM     27  C   UNL     1      46.686   3.258   6.378  0.00  0.00    +0.000 A 
ATOM     28  C   UNL     1      47.334   2.062   6.131  0.00  0.00    +0.000 A 
ATOM     29  N   UNL     1      47.243   0.981   6.936  0.00  0.00    +0.000 NA
ATOM     30  C   UNL     1      46.464   1.113   8.036  0.00  0.00    +0.000 A 
ENDBRANCH  24  25
ENDBRANCH  23  24
ENDBRANCH  20  23
ENDBRANCH  16  17
ENDBRANCH   2  16
TORSDOF 6
ENDMDL
MODEL 5
REMARK VINA RESULT:    -6.814      2.335      8.273
REMARK INTER + INTRA:         -10.279
REMARK INTER:                  -9.451
REMARK INTRA:                  -0.827
REMARK UNBOUND:                -1.075
REMARK  Name = 
REMARK  7 active torsions:
REMARK  status: ('A' for Active; 'I' for Inactive)
REMARK    1  A    between atoms: C_1  and  N_2
REMARK    2  A    between atoms: N_2  and  C_3
REMARK    3  A    between atoms: C_3  and  C_4
REMARK    4  A    between atoms: C_7  and  C_8
REMARK    5  A    between atoms: C_8  and  O_9
REMARK    6  A    between atoms: O_9  and  C_10
REMARK    7  A    between atoms: C_18  and  C_20
REMARK                            x       y       z     vdW  Elec       q    Type
REMARK                         _______ _______ _______ _____ _____    ______ ____
ROOT
ATOM      1  C   UNL     1      48.246   8.713  14.445  0.00  0.00    +0.000 C 
ATOM      2  N   UNL     1      48.499   7.335  14.858  0.00  0.00    +0.000 N 
ATOM      3  C   UNL     1      48.478   7.108  16.246  0.00  0.00    +0.000 C 
ATOM      4  O   UNL     1      48.275   8.030  17.034  0.00  0.00    +0.000 OA
ENDROOT
BRANCH   3   5
ATOM      5  C   UNL     1      48.740   5.760  16.764  0.00  0.00    +0.000 A 
ATOM      6  C   UNL     1      47.806   4.738  16.806  0.00  0.00    +0.000 A 
ATOM      7  S   UNL     1      48.435   3.261  17.390  0.00  0.00    +0.000 S 
ATOM      8  C   UNL     1      50.007   3.903  17.467  0.00  0.00    +0.000 A 
ATOM      9  N   UNL     1      51.068   3.119  17.796  0.00  0.00    +0.000 NA
ATOM     10  C   UNL     1      52.208   3.726  17.743  0.00  0.00    +0.000 A 
ATOM     11  N   UNL     1      52.378   5.052  17.434  0.00  0.00    +0.000 N 
ATOM     12  C   UNL     1      51.322   5.913  17.238  0.00  0.00    +0.000 A 
ATOM     13  O   UNL     1      51.492   7.128  17.215  0.00  0.00    +0.000 OA
ATOM     14  C   UNL     1      50.033   5.249  17.153  0.00  0.00    +0.000 A 
ATOM     15  H   UNL     1      53.290   5.480  17.484  0.00  0.00    +0.000 HD
ENDBRANCH   3   5
BRANCH   2  16
ATOM     16  C   UNL     1      48.539   6.257  13.861  0.00  0.00    +0.000 C 
BRANCH  16  17
ATOM     17  C   UNL     1      47.295   6.029  13.060  0.00  0.00    +0.000 A 
ATOM     18  C   UNL     1      47.062   6.724  11.875  0.00  0.00    +0.000 A 
ATOM     19  C   UNL     1      45.932   6.427  11.121  0.00  0.00    +0.000 A 
ATOM     20  C   UNL     1      45.076   5.422  11.562  0.00  0.00    +0.000 A 
ATOM     21  N   UNL     1      45.269   4.749  12.725  0.00  0.00    +0.000 NA
ATOM     22  C   UNL     1      46.359   5.078  13.451  0.00  0.00    +0.000 A 
BRANCH  20  23
ATOM     23  C   UNL     1      43.888   5.019  10.725  0.00  0.00    +0.000 C 
BRANCH  23  24
ATOM     24  O   UNL     1      43.972   3.626  10.434  0.00  0.00    +0.000 OA
BRANCH  24  25
ATOM     25  C   UNL     1      44.800   3.282   9.405  0.00  0.00    +0.000 A 
ATOM     26  C   UNL     1      45.248   4.122   8.390  0.00  0.00    +0.000 A 
ATOM     27  C   UNL     1      46.084   3.616   7.395  0.00  0.00    +0.000 A 
ATOM     28  C   UNL     1      46.443   2.282   7.452  0.00  0.00    +0.000 A 
ATOM     29  N   UNL     1      46.032   1.436   8.423  0.00  0.00    +0.000 NA
ATOM     30  C   UNL     1      45.223   1.959   9.374  0.00  0.00    +0.000 A 
ENDBRANCH  24  25
ENDBRANCH  23  24
ENDBRANCH  20  23
ENDBRANCH  16  17
ENDBRANCH   2  16
TORSDOF 6
ENDMDL
MODEL 6
REMARK VINA RESULT:    -6.771      3.932      8.298
REMARK INTER + INTRA:         -10.221
REMARK INTER:                  -9.267
REMARK INTRA:                  -0.954
REMARK UNBOUND:                -1.075
REMARK  Name = 
REMARK  7 active torsions:
REMARK  status: ('A' for Active; 'I' for Inactive)
REMARK    1  A    between atoms: C_1  and  N_2
REMARK    2  A    between atoms: N_2  and  C_3
REMARK    3  A    between atoms: C_3  and  C_4
REMARK    4  A    between atoms: C_7  and  C_8
REMARK    5  A    between atoms: C_8  and  O_9
REMARK    6  A    between atoms: O_9  and  C_10
REMARK    7  A    between atoms: C_18  and  C_20
REMARK                            x       y       z     vdW  Elec       q    Type
REMARK                         _______ _______ _______ _____ _____    ______ ____
ROOT
ATOM      1  C   UNL     1      47.288   4.869  14.362  0.00  0.00    +0.000 C 
ATOM      2  N   UNL     1      47.413   6.304  14.118  0.00  0.00    +0.000 N 
ATOM      3  C   UNL     1      48.617   6.887  14.553  0.00  0.00    +0.000 C 
ATOM      4  O   UNL     1      49.480   6.214  15.113  0.00  0.00    +0.000 OA
ENDROOT
BRANCH   3   5
ATOM      5  C   UNL     1      48.831   8.328  14.371  0.00  0.00    +0.000 A 
ATOM      6  C   UNL     1      48.565   9.290  15.331  0.00  0.00    +0.000 A 
ATOM      7  S   UNL     1      48.994  10.872  14.849  0.00  0.00    +0.000 S 
ATOM      8  C   UNL     1      49.680  10.300  13.403  0.00  0.00    +0.000 A 
ATOM      9  N   UNL     1      50.333  11.142  12.558  0.00  0.00    +0.000 NA
ATOM     10  C   UNL     1      50.865  10.554  11.537  0.00  0.00    +0.000 A 
ATOM     11  N   UNL     1      50.767   9.213  11.264  0.00  0.00    +0.000 N 
ATOM     12  C   UNL     1      49.995   8.354  12.013  0.00  0.00    +0.000 A 
ATOM     13  O   UNL     1      49.724   7.228  11.607  0.00  0.00    +0.000 OA
ATOM     14  C   UNL     1      49.492   8.940  13.243  0.00  0.00    +0.000 A 
ATOM     15  H   UNL     1      51.143   8.832  10.409  0.00  0.00    +0.000 HD
ENDBRANCH   3   5
BRANCH   2  16
ATOM     16  C   UNL     1      46.433   7.001  13.275  0.00  0.00    +0.000 C 
BRANCH  16  17
ATOM     17  C   UNL     1      45.860   6.232  12.126  0.00  0.00    +0.000 A 
ATOM     18  C   UNL     1      46.410   6.322  10.849  0.00  0.00    +0.000 A 
ATOM     19  C   UNL     1      45.897   5.531   9.828  0.00  0.00    +0.000 A 
ATOM     20  C   UNL     1      44.859   4.649  10.118  0.00  0.00    +0.000 A 
ATOM     21  N   UNL     1      44.291   4.562  11.347  0.00  0.00    +0.000 NA
ATOM     22  C   UNL     1      44.791   5.362  12.313  0.00  0.00    +0.000 A 
BRANCH  20  23
ATOM     23  C   UNL     1      44.337   3.720   9.052  0.00  0.00    +0.000 C 
BRANCH  23  24
ATOM     24  O   UNL     1      45.160   2.557   9.002  0.00  0.00    +0.000 OA
BRANCH  24  25
ATOM     25  C   UNL     1      45.985   2.458   7.920  0.00  0.00    +0.000 A 
ATOM     26  C   UNL     1      46.110   3.386   6.889  0.00  0.00    +0.000 A 
ATOM     27  C   UNL     1      46.992   3.134   5.839  0.00  0.00    +0.000 A 
ATOM     28  C   UNL     1      47.721   1.959   5.857  0.00  0.00    +0.000 A 
ATOM     29  N   UNL     1      47.631   1.037   6.840  0.00  0.00    +0.000 NA
ATOM     30  C   UNL     1      46.766   1.311   7.847  0.00  0.00    +0.000 A 
ENDBRANCH  24  25
ENDBRANCH  23  24
ENDBRANCH  20  23
ENDBRANCH  16  17
ENDBRANCH   2  16
TORSDOF 6
ENDMDL
MODEL 7
REMARK VINA RESULT:    -6.534      3.326      8.700
REMARK INTER + INTRA:          -9.901
REMARK INTER:                  -9.344
REMARK INTRA:                  -0.557
REMARK UNBOUND:                -1.075
REMARK  Name = 
REMARK  7 active torsions:
REMARK  status: ('A' for Active; 'I' for Inactive)
REMARK    1  A    between atoms: C_1  and  N_2
REMARK    2  A    between atoms: N_2  and  C_3
REMARK    3  A    between atoms: C_3  and  C_4
REMARK    4  A    between atoms: C_7  and  C_8
REMARK    5  A    between atoms: C_8  and  O_9
REMARK    6  A    between atoms: O_9  and  C_10
REMARK    7  A    between atoms: C_18  and  C_20
REMARK                            x       y       z     vdW  Elec       q    Type
REMARK                         _______ _______ _______ _____ _____    ______ ____
ROOT
ATOM      1  C   UNL     1      47.233   4.303  16.523  0.00  0.00    +0.000 C 
ATOM      2  N   UNL     1      47.980   5.445  16.003  0.00  0.00    +0.000 N 
ATOM      3  C   UNL     1      48.992   5.939  16.846  0.00  0.00    +0.000 C 
ATOM      4  O   UNL     1      49.199   5.434  17.948  0.00  0.00    +0.000 OA
ENDROOT
BRANCH   3   5
ATOM      5  C   UNL     1      49.788   7.098  16.422  0.00  0.00    +0.000 A 
ATOM      6  C   UNL     1      50.948   7.022  15.670  0.00  0.00    +0.000 A 
ATOM      7  S   UNL     1      51.602   8.548  15.268  0.00  0.00    +0.000 S 
ATOM      8  C   UNL     1      50.276   9.355  15.961  0.00  0.00    +0.000 A 
ATOM      9  N   UNL     1      50.153  10.706  15.867  0.00  0.00    +0.000 NA
ATOM     10  C   UNL     1      49.059  11.171  16.377  0.00  0.00    +0.000 A 
ATOM     11  N   UNL     1      48.104  10.415  17.008  0.00  0.00    +0.000 N 
ATOM     12  C   UNL     1      48.259   9.069  17.253  0.00  0.00    +0.000 A 
ATOM     13  O   UNL     1      47.517   8.477  18.030  0.00  0.00    +0.000 OA
ATOM     14  C   UNL     1      49.404   8.480  16.581  0.00  0.00    +0.000 A 
ATOM     15  H   UNL     1      47.309  10.853  17.450  0.00  0.00    +0.000 HD
ENDBRANCH   3   5
BRANCH   2  16
ATOM     16  C   UNL     1      47.810   5.870  14.607  0.00  0.00    +0.000 C 
BRANCH  16  17
ATOM     17  C   UNL     1      46.803   5.122  13.790  0.00  0.00    +0.000 A 
ATOM     18  C   UNL     1      46.955   3.763  13.521  0.00  0.00    +0.000 A 
ATOM     19  C   UNL     1      45.958   3.089  12.825  0.00  0.00    +0.000 A 
ATOM     20  C   UNL     1      44.819   3.790  12.438  0.00  0.00    +0.000 A 
ATOM     21  N   UNL     1      44.659   5.118  12.667  0.00  0.00    +0.000 NA
ATOM     22  C   UNL     1      45.657   5.753  13.320  0.00  0.00    +0.000 A 
BRANCH  20  23
ATOM     23  C   UNL     1      43.684   3.069  11.756  0.00  0.00    +0.000 C 
BRANCH  23  24
ATOM     24  O   UNL     1      43.486   3.629  10.460  0.00  0.00    +0.000 OA
BRANCH  24  25
ATOM     25  C   UNL     1      44.420   3.300   9.521  0.00  0.00    +0.000 A 
ATOM     26  C   UNL     1      44.959   2.035   9.301  0.00  0.00    +0.000 A 
ATOM     27  C   UNL     1      45.920   1.860   8.306  0.00  0.00    +0.000 A 
ATOM     28  C   UNL     1      46.311   2.960   7.566  0.00  0.00    +0.000 A 
ATOM     29  N   UNL     1      45.810   4.202   7.747  0.00  0.00    +0.000 NA
ATOM     30  C   UNL     1      44.876   4.338   8.720  0.00  0.00    +0.000 A 
ENDBRANCH  24  25
ENDBRANCH  23  24
ENDBRANCH  20  23
ENDBRANCH  16  17
ENDBRANCH   2  16
TORSDOF 6
ENDMDL
MODEL 8
REMARK VINA RESULT:    -6.469      2.888      8.015
REMARK INTER + INTRA:          -9.814
REMARK INTER:                  -8.501
REMARK INTRA:                  -1.312
REMARK UNBOUND:                -1.075
REMARK  Name = 
REMARK  7 active torsions:
REMARK  status: ('A' for Active; 'I' for Inactive)
REMARK    1  A    between atoms: C_1  and  N_2
REMARK    2  A    between atoms: N_2  and  C_3
REMARK    3  A    between atoms: C_3  and  C_4
REMARK    4  A    between atoms: C_7  and  C_8
REMARK    5  A    between atoms: C_8  and  O_9
REMARK    6  A    between atoms: O_9  and  C_10
REMARK    7  A    between atoms: C_18  and  C_20
REMARK                            x       y       z     vdW  Elec       q    Type
REMARK                         _______ _______ _______ _____ _____    ______ ____
ROOT
ATOM      1  C   UNL     1      47.870   9.288  17.810  0.00  0.00    +0.000 C 
ATOM      2  N   UNL     1      48.860   8.294  17.403  0.00  0.00    +0.000 N 
ATOM      3  C   UNL     1      48.991   7.187  18.262  0.00  0.00    +0.000 C 
ATOM      4  O   UNL     1      48.318   7.099  19.287  0.00  0.00    +0.000 OA
ENDROOT
BRANCH   3   5
ATOM      5  C   UNL     1      49.974   6.141  17.950  0.00  0.00    +0.000 A 
ATOM      6  C   UNL     1      51.338   6.257  18.158  0.00  0.00    +0.000 A 
ATOM      7  S   UNL     1      52.210   4.840  17.771  0.00  0.00    +0.000 S 
ATOM      8  C   UNL     1      50.777   3.984  17.451  0.00  0.00    +0.000 A 
ATOM      9  N   UNL     1      50.805   2.656  17.163  0.00  0.00    +0.000 NA
ATOM     10  C   UNL     1      49.635   2.125  17.015  0.00  0.00    +0.000 A 
ATOM     11  N   UNL     1      48.448   2.808  17.087  0.00  0.00    +0.000 N 
ATOM     12  C   UNL     1      48.382   4.176  17.232  0.00  0.00    +0.000 A 
ATOM     13  O   UNL     1      47.333   4.783  17.041  0.00  0.00    +0.000 OA
ATOM     14  C   UNL     1      49.660   4.794  17.537  0.00  0.00    +0.000 A 
ATOM     15  H   UNL     1      47.574   2.346  16.887  0.00  0.00    +0.000 HD
ENDBRANCH   3   5
BRANCH   2  16
ATOM     16  C   UNL     1      49.483   8.368  16.075  0.00  0.00    +0.000 C 
BRANCH  16  17
ATOM     17  C   UNL     1      48.654   7.916  14.913  0.00  0.00    +0.000 A 
ATOM     18  C   UNL     1      47.820   8.802  14.233  0.00  0.00    +0.000 A 
ATOM     19  C   UNL     1      47.127   8.361  13.112  0.00  0.00    +0.000 A 
ATOM     20  C   UNL     1      47.307   7.048  12.684  0.00  0.00    +0.000 A 
ATOM     21  N   UNL     1      48.095   6.162  13.344  0.00  0.00    +0.000 NA
ATOM     22  C   UNL     1      48.733   6.609  14.446  0.00  0.00    +0.000 A 
BRANCH  20  23
ATOM     23  C   UNL     1      46.635   6.565  11.424  0.00  0.00    +0.000 C 
BRANCH  23  24
ATOM     24  O   UNL     1      45.225   6.532  11.630  0.00  0.00    +0.000 OA
BRANCH  24  25
ATOM     25  C   UNL     1      44.660   5.292  11.683  0.00  0.00    +0.000 A 
ATOM     26  C   UNL     1      44.390   4.459  10.601  0.00  0.00    +0.000 A 
ATOM     27  C   UNL     1      43.793   3.218  10.818  0.00  0.00    +0.000 A 
ATOM     28  C   UNL     1      43.486   2.852  12.115  0.00  0.00    +0.000 A 
ATOM     29  N   UNL     1      43.734   3.630  13.192  0.00  0.00    +0.000 NA
ATOM     30  C   UNL     1      44.316   4.829  12.948  0.00  0.00    +0.000 A 
ENDBRANCH  24  25
ENDBRANCH  23  24
ENDBRANCH  20  23
ENDBRANCH  16  17
ENDBRANCH   2  16
TORSDOF 6
ENDMDL
MODEL 9
REMARK VINA RESULT:    -6.296      2.056      8.104
REMARK INTER + INTRA:          -9.579
REMARK INTER:                  -8.733
REMARK INTRA:                  -0.846
REMARK UNBOUND:                -1.075
REMARK  Name = 
REMARK  7 active torsions:
REMARK  status: ('A' for Active; 'I' for Inactive)
REMARK    1  A    between atoms: C_1  and  N_2
REMARK    2  A    between atoms: N_2  and  C_3
REMARK    3  A    between atoms: C_3  and  C_4
REMARK    4  A    between atoms: C_7  and  C_8
REMARK    5  A    between atoms: C_8  and  O_9
REMARK    6  A    between atoms: O_9  and  C_10
REMARK    7  A    between atoms: C_18  and  C_20
REMARK                            x       y       z     vdW  Elec       q    Type
REMARK                         _______ _______ _______ _____ _____    ______ ____
ROOT
ATOM      1  C   UNL     1      48.925   9.040  17.126  0.00  0.00    +0.000 C 
ATOM      2  N   UNL     1      48.987   7.606  16.851  0.00  0.00    +0.000 N 
ATOM      3  C   UNL     1      48.436   6.777  17.845  0.00  0.00    +0.000 C 
ATOM      4  O   UNL     1      47.958   7.254  18.873  0.00  0.00    +0.000 OA
ENDROOT
BRANCH   3   5
ATOM      5  C   UNL     1      48.467   5.319  17.672  0.00  0.00    +0.000 A 
ATOM      6  C   UNL     1      47.394   4.556  17.244  0.00  0.00    +0.000 A 
ATOM      7  S   UNL     1      47.764   2.898  17.065  0.00  0.00    +0.000 S 
ATOM      8  C   UNL     1      49.405   3.174  17.414  0.00  0.00    +0.000 A 
ATOM      9  N   UNL     1      50.317   2.171  17.326  0.00  0.00    +0.000 NA
ATOM     10  C   UNL     1      51.534   2.545  17.549  0.00  0.00    +0.000 A 
ATOM     11  N   UNL     1      51.914   3.818  17.891  0.00  0.00    +0.000 N 
ATOM     12  C   UNL     1      51.008   4.827  18.132  0.00  0.00    +0.000 A 
ATOM     13  O   UNL     1      51.354   5.871  18.675  0.00  0.00    +0.000 OA
ATOM     14  C   UNL     1      49.645   4.490  17.763  0.00  0.00    +0.000 A 
ATOM     15  H   UNL     1      52.873   4.025  18.125  0.00  0.00    +0.000 HD
ENDBRANCH   3   5
BRANCH   2  16
ATOM     16  C   UNL     1      49.393   7.122  15.525  0.00  0.00    +0.000 C 
BRANCH  16  17
ATOM     17  C   UNL     1      48.345   7.121  14.456  0.00  0.00    +0.000 A 
ATOM     18  C   UNL     1      47.908   5.933  13.873  0.00  0.00    +0.000 A 
ATOM     19  C   UNL     1      46.878   5.970  12.940  0.00  0.00    +0.000 A 
ATOM     20  C   UNL     1      46.294   7.195  12.632  0.00  0.00    +0.000 A 
ATOM     21  N   UNL     1      46.719   8.367  13.169  0.00  0.00    +0.000 NA
ATOM     22  C   UNL     1      47.739   8.305  14.050  0.00  0.00    +0.000 A 
BRANCH  20  23
ATOM     23  C   UNL     1      45.121   7.257  11.688  0.00  0.00    +0.000 C 
BRANCH  23  24
ATOM     24  O   UNL     1      44.195   6.226  12.023  0.00  0.00    +0.000 OA
BRANCH  24  25
ATOM     25  C   UNL     1      44.258   5.098  11.258  0.00  0.00    +0.000 A 
ATOM     26  C   UNL     1      44.975   4.941  10.075  0.00  0.00    +0.000 A 
ATOM     27  C   UNL     1      44.928   3.724   9.397  0.00  0.00    +0.000 A 
ATOM     28  C   UNL     1      44.162   2.703   9.928  0.00  0.00    +0.000 A 
ATOM     29  N   UNL     1      43.455   2.815  11.074  0.00  0.00    +0.000 NA
ATOM     30  C   UNL     1      43.523   4.009  11.710  0.00  0.00    +0.000 A 
ENDBRANCH  24  25
ENDBRANCH  23  24
ENDBRANCH  20  23
ENDBRANCH  16  17
ENDBRANCH   2  16
TORSDOF 6
ENDMDL
