MODEL 1
REMARK VINA RESULT:    -7.069      0.000      0.000
REMARK INTER + INTRA:         -10.873
REMARK INTER:                  -9.549
REMARK INTRA:                  -1.324
REMARK UNBOUND:                -1.324
REMARK  Name = 
REMARK  9 active torsions:
REMARK  status: ('A' for Active; 'I' for Inactive)
REMARK    1  A    between atoms: C_1  and  C_2
REMARK    2  A    between atoms: C_2  and  C_3
REMARK    3  A    between atoms: C_8  and  C_9
REMARK    4  A    between atoms: N_11  and  C_12
REMARK    5  A    between atoms: C_12  and  C_13
REMARK    6  A    between atoms: C_16  and  C_17
REMARK    7  A    between atoms: C_17  and  C_18
REMARK    8  A    between atoms: C_17  and  C_19
REMARK    9  A    between atoms: C_17  and  C_20
REMARK                            x       y       z     vdW  Elec       q    Type
REMARK                         _______ _______ _______ _____ _____    ______ ____
ROOT
ATOM      1  C   UNL     1      49.119   8.349  15.686  0.00  0.00    +0.000 C 
ATOM      2  O   UNL     1      48.383   8.958  16.460  0.00  0.00    +0.000 OA
ATOM      3  N   UNL     1      48.842   8.256  14.348  0.00  0.00    +0.000 N 
ATOM      4  H   UNL     1      49.440   7.725  13.728  0.00  0.00    +0.000 HD
ENDROOT
BRANCH   1  10
ATOM      5  C   UNL     1      51.660   3.992  17.562  0.00  0.00    +0.000 A 
ATOM      6  N   UNL     1      52.485   4.985  17.430  0.00  0.00    +0.000 NA
ATOM      7  C   UNL     1      51.927   6.131  16.961  0.00  0.00    +0.000 A 
ATOM      8  S   UNL     1      52.868   7.534  16.770  0.00  0.00    +0.000 S 
ATOM      9  C   UNL     1      51.525   8.425  16.220  0.00  0.00    +0.000 A 
ATOM     10  C   UNL     1      50.347   7.686  16.157  0.00  0.00    +0.000 A 
ATOM     11  C   UNL     1      50.605   6.334  16.600  0.00  0.00    +0.000 A 
ATOM     12  C   UNL     1      49.728   5.184  16.733  0.00  0.00    +0.000 A 
ATOM     13  O   UNL     1      48.544   5.171  16.412  0.00  0.00    +0.000 OA
ATOM     14  N   UNL     1      50.326   4.062  17.252  0.00  0.00    +0.000 N 
ATOM     15  H   UNL     1      49.723   3.257  17.357  0.00  0.00    +0.000 HD
BRANCH   5  17
ATOM     16  C   UNL     1      51.431   1.535  17.414  0.00  0.00    +0.000 C 
ATOM     17  C   UNL     1      52.127   2.681  18.133  0.00  0.00    +0.000 C 
ENDBRANCH   5  17
ENDBRANCH   1  10
BRANCH   3  18
ATOM     18  C   UNL     1      47.674   8.848  13.744  0.00  0.00    +0.000 C 
BRANCH  18  19
ATOM     19  C   UNL     1      46.757   7.781  13.210  0.00  0.00    +0.000 A 
ATOM     20  C   UNL     1      47.086   6.430  13.342  0.00  0.00    +0.000 A 
ATOM     21  C   UNL     1      46.227   5.435  12.859  0.00  0.00    +0.000 A 
ATOM     22  C   UNL     1      45.014   5.756  12.221  0.00  0.00    +0.000 A 
ATOM     23  C   UNL     1      44.730   7.124  12.045  0.00  0.00    +0.000 A 
ATOM     24  C   UNL     1      45.582   8.120  12.536  0.00  0.00    +0.000 A 
BRANCH  22  25
ATOM     25  C   UNL     1      44.048   4.666  11.685  0.00  0.00    +0.000 C 
ATOM     26  C   UNL     1      43.792   3.540  12.723  0.00  0.00    +0.000 C 
ATOM     27  C   UNL     1      42.641   5.283  11.423  0.00  0.00    +0.000 C 
BRANCH  25  28
ATOM     28  C   UNL     1      44.604   4.035  10.390  0.00  0.00    +0.000 A 
ATOM     29  C   UNL     1      45.269   4.815   9.436  0.00  0.00    +0.000 A 
ATOM     30  C   UNL     1      45.716   4.225   8.256  0.00  0.00    +0.000 A 
ATOM     31  C   UNL     1      45.508   2.869   8.050  0.00  0.00    +0.000 A 
ATOM     32  C   UNL     1      44.872   2.154   9.047  0.00  0.00    +0.000 A 
ATOM     33  N   UNL     1      44.421   2.702  10.196  0.00  0.00    +0.000 NA
ENDBRANCH  25  28
ENDBRANCH  22  25
ENDBRANCH  18  19
ENDBRANCH   3  18
TORSDOF 6
ENDMDL
MODEL 2
REMARK VINA RESULT:    -7.056      1.687      1.853
REMARK INTER + INTRA:         -10.855
REMARK INTER:                  -9.534
REMARK INTRA:                  -1.321
REMARK UNBOUND:                -1.324
REMARK  Name = 
REMARK  9 active torsions:
REMARK  status: ('A' for Active; 'I' for Inactive)
REMARK    1  A    between atoms: C_1  and  C_2
REMARK    2  A    between atoms: C_2  and  C_3
REMARK    3  A    between atoms: C_8  and  C_9
REMARK    4  A    between atoms: N_11  and  C_12
REMARK    5  A    between atoms: C_12  and  C_13
REMARK    6  A    between atoms: C_16  and  C_17
REMARK    7  A    between atoms: C_17  and  C_18
REMARK    8  A    between atoms: C_17  and  C_19
REMARK    9  A    between atoms: C_17  and  C_20
REMARK                            x       y       z     vdW  Elec       q    Type
REMARK                         _______ _______ _______ _____ _____    ______ ____
ROOT
ATOM      1  C   UNL     1      48.585   8.026  16.589  0.00  0.00    +0.000 C 
ATOM      2  O   UNL     1      48.281   9.215  16.663  0.00  0.00    +0.000 OA
ATOM      3  N   UNL     1      48.539   7.340  15.405  0.00  0.00    +0.000 N 
ATOM      4  H   UNL     1      48.761   6.354  15.365  0.00  0.00    +0.000 HD
ENDROOT
BRANCH   1  10
ATOM      5  C   UNL     1      51.970   4.580  18.962  0.00  0.00    +0.000 A 
ATOM      6  N   UNL     1      51.069   4.993  19.802  0.00  0.00    +0.000 NA
ATOM      7  C   UNL     1      50.169   5.869  19.286  0.00  0.00    +0.000 A 
ATOM      8  S   UNL     1      48.902   6.472  20.247  0.00  0.00    +0.000 S 
ATOM      9  C   UNL     1      48.284   7.388  18.952  0.00  0.00    +0.000 A 
ATOM     10  C   UNL     1      49.020   7.271  17.776  0.00  0.00    +0.000 A 
ATOM     11  C   UNL     1      50.128   6.368  17.994  0.00  0.00    +0.000 A 
ATOM     12  C   UNL     1      51.177   5.904  17.102  0.00  0.00    +0.000 A 
ATOM     13  O   UNL     1      51.322   6.280  15.944  0.00  0.00    +0.000 OA
ATOM     14  N   UNL     1      52.037   4.987  17.654  0.00  0.00    +0.000 N 
ATOM     15  H   UNL     1      52.766   4.649  17.041  0.00  0.00    +0.000 HD
BRANCH   5  17
ATOM     16  C   UNL     1      53.113   2.491  18.304  0.00  0.00    +0.000 C 
ATOM     17  C   UNL     1      52.991   3.559  19.380  0.00  0.00    +0.000 C 
ENDBRANCH   5  17
ENDBRANCH   1  10
BRANCH   3  18
ATOM     18  C   UNL     1      48.127   7.944  14.162  0.00  0.00    +0.000 C 
BRANCH  18  19
ATOM     19  C   UNL     1      47.148   7.057  13.442  0.00  0.00    +0.000 A 
ATOM     20  C   UNL     1      47.235   5.667  13.551  0.00  0.00    +0.000 A 
ATOM     21  C   UNL     1      46.317   4.839  12.893  0.00  0.00    +0.000 A 
ATOM     22  C   UNL     1      45.285   5.371  12.098  0.00  0.00    +0.000 A 
ATOM     23  C   UNL     1      45.252   6.771  11.952  0.00  0.00    +0.000 A 
ATOM     24  C   UNL     1      46.162   7.601  12.617  0.00  0.00    +0.000 A 
BRANCH  22  25
ATOM     25  C   UNL     1      44.256   4.468  11.367  0.00  0.00    +0.000 C 
ATOM     26  C   UNL     1      43.724   3.324  12.272  0.00  0.00    +0.000 C 
ATOM     27  C   UNL     1      42.988   5.297  10.998  0.00  0.00    +0.000 C 
BRANCH  25  28
ATOM     28  C   UNL     1      44.879   3.852  10.095  0.00  0.00    +0.000 A 
ATOM     29  C   UNL     1      45.503   4.656   9.135  0.00  0.00    +0.000 A 
ATOM     30  C   UNL     1      46.013   4.075   7.976  0.00  0.00    +0.000 A 
ATOM     31  C   UNL     1      45.907   2.704   7.798  0.00  0.00    +0.000 A 
ATOM     32  C   UNL     1      45.306   1.966   8.800  0.00  0.00    +0.000 A 
ATOM     33  N   UNL     1      44.796   2.504   9.930  0.00  0.00    +0.000 NA
ENDBRANCH  25  28
ENDBRANCH  22  25
ENDBRANCH  18  19
ENDBRANCH   3  18
TORSDOF 6
ENDMDL
MODEL 3
REMARK VINA RESULT:    -7.055      2.444      2.926
REMARK INTER + INTRA:         -10.854
REMARK INTER:                  -9.507
REMARK INTRA:                  -1.347
REMARK UNBOUND:                -1.324
REMARK  Name = 
REMARK  9 active torsions:
REMARK  status: ('A' for Active; 'I' for Inactive)
REMARK    1  A    between atoms: C_1  and  C_2
REMARK    2  A    between atoms: C_2  and  C_3
REMARK    3  A    between atoms: C_8  and  C_9
REMARK    4  A    between atoms: N_11  and  C_12
REMARK    5  A    between atoms: C_12  and  C_13
REMARK    6  A    between atoms: C_16  and  C_17
REMARK    7  A    between atoms: C_17  and  C_18
REMARK    8  A    between atoms: C_17  and  C_19
REMARK    9  A    between atoms: C_17  and  C_20
REMARK                            x       y       z     vdW  Elec       q    Type
REMARK                         _______ _______ _______ _____ _____    ______ ____
ROOT
ATOM      1  C   UNL     1      48.617   9.616  15.439  0.00  0.00    +0.000 C 
ATOM      2  O   UNL     1      49.522  10.219  14.865  0.00  0.00    +0.000 OA
ATOM      3  N   UNL     1      47.633   8.962  14.747  0.00  0.00    +0.000 N 
ATOM      4  H   UNL     1      46.876   8.496  15.232  0.00  0.00    +0.000 HD
ENDROOT
BRANCH   1  10
ATOM      5  C   UNL     1      48.444   6.790  20.016  0.00  0.00    +0.000 A 
ATOM      6  N   UNL     1      48.416   8.065  20.260  0.00  0.00    +0.000 NA
ATOM      7  C   UNL     1      48.455   8.857  19.158  0.00  0.00    +0.000 A 
ATOM      8  S   UNL     1      48.385  10.550  19.308  0.00  0.00    +0.000 S 
ATOM      9  C   UNL     1      48.454  10.756  17.620  0.00  0.00    +0.000 A 
ATOM     10  C   UNL     1      48.542   9.563  16.908  0.00  0.00    +0.000 A 
ATOM     11  C   UNL     1      48.540   8.453  17.836  0.00  0.00    +0.000 A 
ATOM     12  C   UNL     1      48.604   7.018  17.615  0.00  0.00    +0.000 A 
ATOM     13  O   UNL     1      48.732   6.489  16.516  0.00  0.00    +0.000 OA
ATOM     14  N   UNL     1      48.517   6.257  18.755  0.00  0.00    +0.000 N 
ATOM     15  H   UNL     1      48.551   5.256  18.614  0.00  0.00    +0.000 HD
BRANCH   5  17
ATOM     16  C   UNL     1      48.667   4.404  20.618  0.00  0.00    +0.000 C 
ATOM     17  C   UNL     1      48.341   5.795  21.139  0.00  0.00    +0.000 C 
ENDBRANCH   5  17
ENDBRANCH   1  10
BRANCH   3  18
ATOM     18  C   UNL     1      47.570   8.932  13.307  0.00  0.00    +0.000 C 
BRANCH  18  19
ATOM     19  C   UNL     1      46.748   7.762  12.837  0.00  0.00    +0.000 A 
ATOM     20  C   UNL     1      45.466   7.958  12.319  0.00  0.00    +0.000 A 
ATOM     21  C   UNL     1      44.705   6.872  11.867  0.00  0.00    +0.000 A 
ATOM     22  C   UNL     1      45.195   5.554  11.925  0.00  0.00    +0.000 A 
ATOM     23  C   UNL     1      46.465   5.374  12.507  0.00  0.00    +0.000 A 
ATOM     24  C   UNL     1      47.232   6.457  12.949  0.00  0.00    +0.000 A 
BRANCH  22  25
ATOM     25  C   UNL     1      44.367   4.342  11.424  0.00  0.00    +0.000 C 
ATOM     26  C   UNL     1      44.299   3.198  12.473  0.00  0.00    +0.000 C 
ATOM     27  C   UNL     1      42.882   4.764  11.210  0.00  0.00    +0.000 C 
BRANCH  25  28
ATOM     28  C   UNL     1      44.958   3.783  10.111  0.00  0.00    +0.000 A 
ATOM     29  C   UNL     1      45.525   4.634   9.157  0.00  0.00    +0.000 A 
ATOM     30  C   UNL     1      46.006   4.104   7.961  0.00  0.00    +0.000 A 
ATOM     31  C   UNL     1      45.928   2.737   7.742  0.00  0.00    +0.000 A 
ATOM     32  C   UNL     1      45.382   1.952   8.740  0.00  0.00    +0.000 A 
ATOM     33  N   UNL     1      44.901   2.440   9.904  0.00  0.00    +0.000 NA
ENDBRANCH  25  28
ENDBRANCH  22  25
ENDBRANCH  18  19
ENDBRANCH   3  18
TORSDOF 6
ENDMDL
MODEL 4
REMARK VINA RESULT:    -6.882      3.400      9.114
REMARK INTER + INTRA:         -10.621
REMARK INTER:                  -9.353
REMARK INTRA:                  -1.267
REMARK UNBOUND:                -1.324
REMARK  Name = 
REMARK  9 active torsions:
REMARK  status: ('A' for Active; 'I' for Inactive)
REMARK    1  A    between atoms: C_1  and  C_2
REMARK    2  A    between atoms: C_2  and  C_3
REMARK    3  A    between atoms: C_8  and  C_9
REMARK    4  A    between atoms: N_11  and  C_12
REMARK    5  A    between atoms: C_12  and  C_13
REMARK    6  A    between atoms: C_16  and  C_17
REMARK    7  A    between atoms: C_17  and  C_18
REMARK    8  A    between atoms: C_17  and  C_19
REMARK    9  A    between atoms: C_17  and  C_20
REMARK                            x       y       z     vdW  Elec       q    Type
REMARK                         _______ _______ _______ _____ _____    ______ ____
ROOT
ATOM      1  C   UNL     1      47.149   3.988  14.856  0.00  0.00    +0.000 C 
ATOM      2  O   UNL     1      47.443   2.900  14.366  0.00  0.00    +0.000 OA
ATOM      3  N   UNL     1      47.135   4.191  16.210  0.00  0.00    +0.000 N 
ATOM      4  H   UNL     1      46.861   5.083  16.601  0.00  0.00    +0.000 HD
ENDROOT
BRANCH   1  10
ATOM      5  C   UNL     1      48.182   8.948  13.040  0.00  0.00    +0.000 A 
ATOM      6  N   UNL     1      47.104   8.472  12.493  0.00  0.00    +0.000 NA
ATOM      7  C   UNL     1      46.767   7.220  12.896  0.00  0.00    +0.000 A 
ATOM      8  S   UNL     1      45.359   6.473  12.303  0.00  0.00    +0.000 S 
ATOM      9  C   UNL     1      45.639   5.080  13.241  0.00  0.00    +0.000 A 
ATOM     10  C   UNL     1      46.798   5.141  14.009  0.00  0.00    +0.000 A 
ATOM     11  C   UNL     1      47.449   6.414  13.792  0.00  0.00    +0.000 A 
ATOM     12  C   UNL     1      48.667   6.976  14.350  0.00  0.00    +0.000 A 
ATOM     13  O   UNL     1      49.419   6.383  15.117  0.00  0.00    +0.000 OA
ATOM     14  N   UNL     1      48.944   8.259  13.948  0.00  0.00    +0.000 N 
ATOM     15  H   UNL     1      49.785   8.666  14.337  0.00  0.00    +0.000 HD
BRANCH   5  17
ATOM     16  C   UNL     1      48.709  10.545  11.229  0.00  0.00    +0.000 C 
ATOM     17  C   UNL     1      48.639  10.348  12.735  0.00  0.00    +0.000 C 
ENDBRANCH   5  17
ENDBRANCH   1  10
BRANCH   3  18
ATOM     18  C   UNL     1      47.449   3.156  17.164  0.00  0.00    +0.000 C 
BRANCH  18  19
ATOM     19  C   UNL     1      48.922   3.154  17.475  0.00  0.00    +0.000 A 
ATOM     20  C   UNL     1      49.740   2.111  17.033  0.00  0.00    +0.000 A 
ATOM     21  C   UNL     1      51.113   2.114  17.309  0.00  0.00    +0.000 A 
ATOM     22  C   UNL     1      51.714   3.153  18.044  0.00  0.00    +0.000 A 
ATOM     23  C   UNL     1      50.861   4.162  18.532  0.00  0.00    +0.000 A 
ATOM     24  C   UNL     1      49.491   4.168  18.248  0.00  0.00    +0.000 A 
BRANCH  22  25
ATOM     25  C   UNL     1      53.234   3.174  18.354  0.00  0.00    +0.000 C 
ATOM     26  C   UNL     1      53.973   4.322  17.616  0.00  0.00    +0.000 C 
ATOM     27  C   UNL     1      53.464   3.470  19.867  0.00  0.00    +0.000 C 
BRANCH  25  28
ATOM     28  C   UNL     1      53.887   1.828  17.969  0.00  0.00    +0.000 A 
ATOM     29  C   UNL     1      54.715   1.724  16.846  0.00  0.00    +0.000 A 
ATOM     30  C   UNL     1      55.250   0.486  16.497  0.00  0.00    +0.000 A 
ATOM     31  C   UNL     1      54.965  -0.624  17.279  0.00  0.00    +0.000 A 
ATOM     32  C   UNL     1      54.164  -0.443  18.390  0.00  0.00    +0.000 A 
ATOM     33  N   UNL     1      53.625   0.744  18.746  0.00  0.00    +0.000 NA
ENDBRANCH  25  28
ENDBRANCH  22  25
ENDBRANCH  18  19
ENDBRANCH   3  18
TORSDOF 6
ENDMDL
MODEL 5
REMARK VINA RESULT:    -6.864      2.886      4.826
REMARK INTER + INTRA:         -10.596
REMARK INTER:                  -9.133
REMARK INTRA:                  -1.464
REMARK UNBOUND:                -1.324
REMARK  Name = 
REMARK  9 active torsions:
REMARK  status: ('A' for Active; 'I' for Inactive)
REMARK    1  A    between atoms: C_1  and  C_2
REMARK    2  A    between atoms: C_2  and  C_3
REMARK    3  A    between atoms: C_8  and  C_9
REMARK    4  A    between atoms: N_11  and  C_12
REMARK    5  A    between atoms: C_12  and  C_13
REMARK    6  A    between atoms: C_16  and  C_17
REMARK    7  A    between atoms: C_17  and  C_18
REMARK    8  A    between atoms: C_17  and  C_19
REMARK    9  A    between atoms: C_17  and  C_20
REMARK                            x       y       z     vdW  Elec       q    Type
REMARK                         _______ _______ _______ _____ _____    ______ ____
ROOT
ATOM      1  C   UNL     1      50.084   7.160  15.184  0.00  0.00    +0.000 C 
ATOM      2  O   UNL     1      50.698   6.443  15.973  0.00  0.00    +0.000 OA
ATOM      3  N   UNL     1      48.832   6.834  14.735  0.00  0.00    +0.000 N 
ATOM      4  H   UNL     1      48.352   7.417  14.062  0.00  0.00    +0.000 HD
ENDROOT
BRANCH   1  10
ATOM      5  C   UNL     1      51.308  10.438  11.095  0.00  0.00    +0.000 A 
ATOM      6  N   UNL     1      51.673  10.958  12.228  0.00  0.00    +0.000 NA
ATOM      7  C   UNL     1      51.402  10.195  13.318  0.00  0.00    +0.000 A 
ATOM      8  S   UNL     1      51.855  10.718  14.871  0.00  0.00    +0.000 S 
ATOM      9  C   UNL     1      51.233   9.304  15.587  0.00  0.00    +0.000 A 
ATOM     10  C   UNL     1      50.664   8.416  14.679  0.00  0.00    +0.000 A 
ATOM     11  C   UNL     1      50.775   8.960  13.344  0.00  0.00    +0.000 A 
ATOM     12  C   UNL     1      50.354   8.436  12.056  0.00  0.00    +0.000 A 
ATOM     13  O   UNL     1      49.742   7.385  11.900  0.00  0.00    +0.000 OA
ATOM     14  N   UNL     1      50.687   9.221  10.980  0.00  0.00    +0.000 N 
ATOM     15  H   UNL     1      50.408   8.862  10.076  0.00  0.00    +0.000 HD
BRANCH   5  17
ATOM     16  C   UNL     1      53.003  10.781   9.330  0.00  0.00    +0.000 C 
ATOM     17  C   UNL     1      51.603  11.144   9.800  0.00  0.00    +0.000 C 
ENDBRANCH   5  17
ENDBRANCH   1  10
BRANCH   3  18
ATOM     18  C   UNL     1      48.141   5.634  15.136  0.00  0.00    +0.000 C 
BRANCH  18  19
ATOM     19  C   UNL     1      47.162   5.208  14.076  0.00  0.00    +0.000 A 
ATOM     20  C   UNL     1      46.549   6.156  13.252  0.00  0.00    +0.000 A 
ATOM     21  C   UNL     1      45.649   5.761  12.255  0.00  0.00    +0.000 A 
ATOM     22  C   UNL     1      45.324   4.406  12.051  0.00  0.00    +0.000 A 
ATOM     23  C   UNL     1      45.905   3.474  12.931  0.00  0.00    +0.000 A 
ATOM     24  C   UNL     1      46.813   3.865  13.922  0.00  0.00    +0.000 A 
BRANCH  22  25
ATOM     25  C   UNL     1      44.332   3.952  10.948  0.00  0.00    +0.000 C 
ATOM     26  C   UNL     1      43.407   2.799  11.423  0.00  0.00    +0.000 C 
ATOM     27  C   UNL     1      43.357   5.116  10.596  0.00  0.00    +0.000 C 
BRANCH  25  28
ATOM     28  C   UNL     1      45.095   3.494   9.685  0.00  0.00    +0.000 A 
ATOM     29  C   UNL     1      45.599   4.425   8.770  0.00  0.00    +0.000 A 
ATOM     30  C   UNL     1      46.240   3.979   7.616  0.00  0.00    +0.000 A 
ATOM     31  C   UNL     1      46.382   2.617   7.400  0.00  0.00    +0.000 A 
ATOM     32  C   UNL     1      45.887   1.754   8.359  0.00  0.00    +0.000 A 
ATOM     33  N   UNL     1      45.254   2.159   9.482  0.00  0.00    +0.000 NA
ENDBRANCH  25  28
ENDBRANCH  22  25
ENDBRANCH  18  19
ENDBRANCH   3  18
TORSDOF 6
ENDMDL
MODEL 6
REMARK VINA RESULT:    -6.699      3.294      8.871
REMARK INTER + INTRA:         -10.373
REMARK INTER:                  -8.998
REMARK INTRA:                  -1.375
REMARK UNBOUND:                -1.324
REMARK  Name = 
REMARK  9 active torsions:
REMARK  status: ('A' for Active; 'I' for Inactive)
REMARK    1  A    between atoms: C_1  and  C_2
REMARK    2  A    between atoms: C_2  and  C_3
REMARK    3  A    between atoms: C_8  and  C_9
REMARK    4  A    between atoms: N_11  and  C_12
REMARK    5  A    between atoms: C_12  and  C_13
REMARK    6  A    between atoms: C_16  and  C_17
REMARK    7  A    between atoms: C_17  and  C_18
REMARK    8  A    between atoms: C_17  and  C_19
REMARK    9  A    between atoms: C_17  and  C_20
REMARK                            x       y       z     vdW  Elec       q    Type
REMARK                         _______ _______ _______ _____ _____    ______ ____
ROOT
ATOM      1  C   UNL     1      46.990   4.004  14.836  0.00  0.00    +0.000 C 
ATOM      2  O   UNL     1      47.497   2.964  14.419  0.00  0.00    +0.000 OA
ATOM      3  N   UNL     1      46.813   4.236  16.174  0.00  0.00    +0.000 N 
ATOM      4  H   UNL     1      46.365   5.083  16.501  0.00  0.00    +0.000 HD
ENDROOT
BRANCH   1  10
ATOM      5  C   UNL     1      47.782   8.758  12.440  0.00  0.00    +0.000 A 
ATOM      6  N   UNL     1      46.664   8.225  12.048  0.00  0.00    +0.000 NA
ATOM      7  C   UNL     1      46.382   7.019  12.605  0.00  0.00    +0.000 A 
ATOM      8  S   UNL     1      44.936   6.209  12.226  0.00  0.00    +0.000 S 
ATOM      9  C   UNL     1      45.321   4.920  13.269  0.00  0.00    +0.000 A 
ATOM     10  C   UNL     1      46.546   5.063  13.914  0.00  0.00    +0.000 A 
ATOM     11  C   UNL     1      47.157   6.310  13.510  0.00  0.00    +0.000 A 
ATOM     12  C   UNL     1      48.413   6.931  13.890  0.00  0.00    +0.000 A 
ATOM     13  O   UNL     1      49.242   6.422  14.638  0.00  0.00    +0.000 OA
ATOM     14  N   UNL     1      48.635   8.168  13.337  0.00  0.00    +0.000 N 
ATOM     15  H   UNL     1      49.503   8.614  13.601  0.00  0.00    +0.000 HD
BRANCH   5  17
ATOM     16  C   UNL     1      49.674  10.329  12.204  0.00  0.00    +0.000 C 
ATOM     17  C   UNL     1      48.189  10.121  11.954  0.00  0.00    +0.000 C 
ENDBRANCH   5  17
ENDBRANCH   1  10
BRANCH   3  18
ATOM     18  C   UNL     1      47.192   3.290  17.193  0.00  0.00    +0.000 C 
BRANCH  18  19
ATOM     19  C   UNL     1      48.643   3.456  17.555  0.00  0.00    +0.000 A 
ATOM     20  C   UNL     1      49.593   2.524  17.130  0.00  0.00    +0.000 A 
ATOM     21  C   UNL     1      50.946   2.684  17.453  0.00  0.00    +0.000 A 
ATOM     22  C   UNL     1      51.396   3.775  18.219  0.00  0.00    +0.000 A 
ATOM     23  C   UNL     1      50.415   4.669  18.689  0.00  0.00    +0.000 A 
ATOM     24  C   UNL     1      49.064   4.518  18.358  0.00  0.00    +0.000 A 
BRANCH  22  25
ATOM     25  C   UNL     1      52.892   3.970  18.582  0.00  0.00    +0.000 C 
ATOM     26  C   UNL     1      53.082   4.690  19.944  0.00  0.00    +0.000 C 
ATOM     27  C   UNL     1      53.577   2.583  18.774  0.00  0.00    +0.000 C 
BRANCH  25  28
ATOM     28  C   UNL     1      53.619   4.776  17.483  0.00  0.00    +0.000 A 
ATOM     29  C   UNL     1      52.998   5.864  16.858  0.00  0.00    +0.000 A 
ATOM     30  C   UNL     1      53.662   6.541  15.837  0.00  0.00    +0.000 A 
ATOM     31  C   UNL     1      54.935   6.135  15.466  0.00  0.00    +0.000 A 
ATOM     32  C   UNL     1      55.500   5.073  16.146  0.00  0.00    +0.000 A 
ATOM     33  N   UNL     1      54.876   4.394  17.133  0.00  0.00    +0.000 NA
ENDBRANCH  25  28
ENDBRANCH  22  25
ENDBRANCH  18  19
ENDBRANCH   3  18
TORSDOF 6
ENDMDL
MODEL 7
REMARK VINA RESULT:    -6.484      2.589      8.194
REMARK INTER + INTRA:         -10.083
REMARK INTER:                  -8.671
REMARK INTRA:                  -1.412
REMARK UNBOUND:                -1.324
REMARK  Name = 
REMARK  9 active torsions:
REMARK  status: ('A' for Active; 'I' for Inactive)
REMARK    1  A    between atoms: C_1  and  C_2
REMARK    2  A    between atoms: C_2  and  C_3
REMARK    3  A    between atoms: C_8  and  C_9
REMARK    4  A    between atoms: N_11  and  C_12
REMARK    5  A    between atoms: C_12  and  C_13
REMARK    6  A    between atoms: C_16  and  C_17
REMARK    7  A    between atoms: C_17  and  C_18
REMARK    8  A    between atoms: C_17  and  C_19
REMARK    9  A    between atoms: C_17  and  C_20
REMARK                            x       y       z     vdW  Elec       q    Type
REMARK                         _______ _______ _______ _____ _____    ______ ____
ROOT
ATOM      1  C   UNL     1      47.761   8.414  13.765  0.00  0.00    +0.000 C 
ATOM      2  O   UNL     1      48.905   8.341  13.320  0.00  0.00    +0.000 OA
ATOM      3  N   UNL     1      47.498   8.950  14.998  0.00  0.00    +0.000 N 
ATOM      4  H   UNL     1      46.556   8.975  15.365  0.00  0.00    +0.000 HD
ENDROOT
BRANCH   1  10
ATOM      5  C   UNL     1      44.699   4.375  11.956  0.00  0.00    +0.000 A 
ATOM      6  N   UNL     1      44.240   5.519  11.549  0.00  0.00    +0.000 NA
ATOM      7  C   UNL     1      44.954   6.598  11.960  0.00  0.00    +0.000 A 
ATOM      8  S   UNL     1      44.505   8.166  11.478  0.00  0.00    +0.000 S 
ATOM      9  C   UNL     1      45.811   8.858  12.322  0.00  0.00    +0.000 A 
ATOM     10  C   UNL     1      46.605   7.931  12.992  0.00  0.00    +0.000 A 
ATOM     11  C   UNL     1      46.082   6.601  12.764  0.00  0.00    +0.000 A 
ATOM     12  C   UNL     1      46.537   5.300  13.222  0.00  0.00    +0.000 A 
ATOM     13  O   UNL     1      47.486   5.123  13.980  0.00  0.00    +0.000 OA
ATOM     14  N   UNL     1      45.811   4.237  12.747  0.00  0.00    +0.000 N 
ATOM     15  H   UNL     1      46.123   3.325  13.052  0.00  0.00    +0.000 HD
BRANCH   5  17
ATOM     16  C   UNL     1      44.271   2.881  10.035  0.00  0.00    +0.000 C 
ATOM     17  C   UNL     1      44.045   3.092  11.524  0.00  0.00    +0.000 C 
ENDBRANCH   5  17
ENDBRANCH   1  10
BRANCH   3  18
ATOM     18  C   UNL     1      48.528   9.457  15.870  0.00  0.00    +0.000 C 
BRANCH  18  19
ATOM     19  C   UNL     1      49.045   8.366  16.768  0.00  0.00    +0.000 A 
ATOM     20  C   UNL     1      50.245   7.714  16.474  0.00  0.00    +0.000 A 
ATOM     21  C   UNL     1      50.737   6.708  17.316  0.00  0.00    +0.000 A 
ATOM     22  C   UNL     1      50.042   6.314  18.475  0.00  0.00    +0.000 A 
ATOM     23  C   UNL     1      48.806   6.942  18.720  0.00  0.00    +0.000 A 
ATOM     24  C   UNL     1      48.318   7.954  17.886  0.00  0.00    +0.000 A 
BRANCH  22  25
ATOM     25  C   UNL     1      50.575   5.205  19.421  0.00  0.00    +0.000 C 
ATOM     26  C   UNL     1      51.820   5.664  20.228  0.00  0.00    +0.000 C 
ATOM     27  C   UNL     1      49.507   4.872  20.506  0.00  0.00    +0.000 C 
BRANCH  25  28
ATOM     28  C   UNL     1      50.938   3.935  18.621  0.00  0.00    +0.000 A 
ATOM     29  C   UNL     1      49.961   3.226  17.913  0.00  0.00    +0.000 A 
ATOM     30  C   UNL     1      50.311   2.056  17.241  0.00  0.00    +0.000 A 
ATOM     31  C   UNL     1      51.627   1.621  17.271  0.00  0.00    +0.000 A 
ATOM     32  C   UNL     1      52.546   2.386  17.965  0.00  0.00    +0.000 A 
ATOM     33  N   UNL     1      52.232   3.518  18.632  0.00  0.00    +0.000 NA
ENDBRANCH  25  28
ENDBRANCH  22  25
ENDBRANCH  18  19
ENDBRANCH   3  18
TORSDOF 6
ENDMDL
MODEL 8
REMARK VINA RESULT:    -6.156      4.754      5.994
REMARK INTER + INTRA:          -9.639
REMARK INTER:                  -8.425
REMARK INTRA:                  -1.214
REMARK UNBOUND:                -1.324
REMARK  Name = 
REMARK  9 active torsions:
REMARK  status: ('A' for Active; 'I' for Inactive)
REMARK    1  A    between atoms: C_1  and  C_2
REMARK    2  A    between atoms: C_2  and  C_3
REMARK    3  A    between atoms: C_8  and  C_9
REMARK    4  A    between atoms: N_11  and  C_12
REMARK    5  A    between atoms: C_12  and  C_13
REMARK    6  A    between atoms: C_16  and  C_17
REMARK    7  A    between atoms: C_17  and  C_18
REMARK    8  A    between atoms: C_17  and  C_19
REMARK    9  A    between atoms: C_17  and  C_20
REMARK                            x       y       z     vdW  Elec       q    Type
REMARK                         _______ _______ _______ _____ _____    ______ ____
ROOT
ATOM      1  C   UNL     1      50.709   9.006  12.207  0.00  0.00    +0.000 C 
ATOM      2  O   UNL     1      51.384   8.470  13.084  0.00  0.00    +0.000 OA
ATOM      3  N   UNL     1      49.346   9.095  12.298  0.00  0.00    +0.000 N 
ATOM      4  H   UNL     1      48.800   9.511  11.554  0.00  0.00    +0.000 HD
ENDROOT
BRANCH   1  10
ATOM      5  C   UNL     1      53.597   8.453   7.700  0.00  0.00    +0.000 A 
ATOM      6  N   UNL     1      53.235   9.689   7.866  0.00  0.00    +0.000 NA
ATOM      7  C   UNL     1      52.499   9.921   8.984  0.00  0.00    +0.000 A 
ATOM      8  S   UNL     1      51.981  11.495   9.365  0.00  0.00    +0.000 S 
ATOM      9  C   UNL     1      51.225  10.959  10.792  0.00  0.00    +0.000 A 
ATOM     10  C   UNL     1      51.334   9.588  11.007  0.00  0.00    +0.000 A 
ATOM     11  C   UNL     1      52.092   8.993   9.928  0.00  0.00    +0.000 A 
ATOM     12  C   UNL     1      52.493   7.619   9.681  0.00  0.00    +0.000 A 
ATOM     13  O   UNL     1      52.177   6.665  10.385  0.00  0.00    +0.000 OA
ATOM     14  N   UNL     1      53.271   7.439   8.564  0.00  0.00    +0.000 N 
ATOM     15  H   UNL     1      53.564   6.488   8.385  0.00  0.00    +0.000 HD
BRANCH   5  17
ATOM     16  C   UNL     1      54.203   6.613   6.165  0.00  0.00    +0.000 C 
ATOM     17  C   UNL     1      54.470   8.063   6.539  0.00  0.00    +0.000 C 
ENDBRANCH   5  17
ENDBRANCH   1  10
BRANCH   3  18
ATOM     18  C   UNL     1      48.595   8.566  13.409  0.00  0.00    +0.000 C 
BRANCH  18  19
ATOM     19  C   UNL     1      47.513   7.640  12.924  0.00  0.00    +0.000 A 
ATOM     20  C   UNL     1      46.435   8.132  12.185  0.00  0.00    +0.000 A 
ATOM     21  C   UNL     1      45.434   7.269  11.720  0.00  0.00    +0.000 A 
ATOM     22  C   UNL     1      45.473   5.887  11.984  0.00  0.00    +0.000 A 
ATOM     23  C   UNL     1      46.536   5.422  12.781  0.00  0.00    +0.000 A 
ATOM     24  C   UNL     1      47.542   6.280  13.238  0.00  0.00    +0.000 A 
BRANCH  22  25
ATOM     25  C   UNL     1      44.375   4.917  11.472  0.00  0.00    +0.000 C 
ATOM     26  C   UNL     1      43.946   3.887  12.551  0.00  0.00    +0.000 C 
ATOM     27  C   UNL     1      43.073   5.711  11.149  0.00  0.00    +0.000 C 
BRANCH  25  28
ATOM     28  C   UNL     1      44.861   4.157  10.218  0.00  0.00    +0.000 A 
ATOM     29  C   UNL     1      45.550   4.819   9.196  0.00  0.00    +0.000 A 
ATOM     30  C   UNL     1      45.933   4.115   8.056  0.00  0.00    +0.000 A 
ATOM     31  C   UNL     1      45.638   2.763   7.959  0.00  0.00    +0.000 A 
ATOM     32  C   UNL     1      44.981   2.167   9.019  0.00  0.00    +0.000 A 
ATOM     33  N   UNL     1      44.591   2.827  10.131  0.00  0.00    +0.000 NA
ENDBRANCH  25  28
ENDBRANCH  22  25
ENDBRANCH  18  19
ENDBRANCH   3  18
TORSDOF 6
ENDMDL
MODEL 9
REMARK VINA RESULT:    -5.809      3.659      9.709
REMARK INTER + INTRA:          -9.170
REMARK INTER:                  -8.318
REMARK INTRA:                  -0.852
REMARK UNBOUND:                -1.324
REMARK  Name = 
REMARK  9 active torsions:
REMARK  status: ('A' for Active; 'I' for Inactive)
REMARK    1  A    between atoms: C_1  and  C_2
REMARK    2  A    between atoms: C_2  and  C_3
REMARK    3  A    between atoms: C_8  and  C_9
REMARK    4  A    between atoms: N_11  and  C_12
REMARK    5  A    between atoms: C_12  and  C_13
REMARK    6  A    between atoms: C_16  and  C_17
REMARK    7  A    between atoms: C_17  and  C_18
REMARK    8  A    between atoms: C_17  and  C_19
REMARK    9  A    between atoms: C_17  and  C_20
REMARK                            x       y       z     vdW  Elec       q    Type
REMARK                         _______ _______ _______ _____ _____    ______ ____
ROOT
ATOM      1  C   UNL     1      46.306   6.194  12.750  0.00  0.00    +0.000 C 
ATOM      2  O   UNL     1      46.234   5.266  11.948  0.00  0.00    +0.000 OA
ATOM      3  N   UNL     1      46.670   5.995  14.055  0.00  0.00    +0.000 N 
ATOM      4  H   UNL     1      46.695   6.765  14.712  0.00  0.00    +0.000 HD
ENDROOT
BRANCH   1  10
ATOM      5  C   UNL     1      42.955   9.827  10.618  0.00  0.00    +0.000 A 
ATOM      6  N   UNL     1      44.067  10.387  10.990  0.00  0.00    +0.000 NA
ATOM      7  C   UNL     1      44.975   9.541  11.540  0.00  0.00    +0.000 A 
ATOM      8  S   UNL     1      46.496  10.113  12.041  0.00  0.00    +0.000 S 
ATOM      9  C   UNL     1      46.978   8.557  12.537  0.00  0.00    +0.000 A 
ATOM     10  C   UNL     1      46.005   7.579  12.349  0.00  0.00    +0.000 A 
ATOM     11  C   UNL     1      44.830   8.180  11.758  0.00  0.00    +0.000 A 
ATOM     12  C   UNL     1      43.557   7.606  11.358  0.00  0.00    +0.000 A 
ATOM     13  O   UNL     1      43.241   6.432  11.523  0.00  0.00    +0.000 OA
ATOM     14  N   UNL     1      42.689   8.490  10.767  0.00  0.00    +0.000 N 
ATOM     15  H   UNL     1      41.802   8.101  10.475  0.00  0.00    +0.000 HD
BRANCH   5  17
ATOM     16  C   UNL     1      40.569  10.466  10.676  0.00  0.00    +0.000 C 
ATOM     17  C   UNL     1      41.886  10.633   9.934  0.00  0.00    +0.000 C 
ENDBRANCH   5  17
ENDBRANCH   1  10
BRANCH   3  18
ATOM     18  C   UNL     1      46.987   4.696  14.594  0.00  0.00    +0.000 C 
BRANCH  18  19
ATOM     19  C   UNL     1      47.685   4.829  15.920  0.00  0.00    +0.000 A 
ATOM     20  C   UNL     1      47.453   3.905  16.941  0.00  0.00    +0.000 A 
ATOM     21  C   UNL     1      48.113   4.018  18.172  0.00  0.00    +0.000 A 
ATOM     22  C   UNL     1      49.020   5.063  18.426  0.00  0.00    +0.000 A 
ATOM     23  C   UNL     1      49.194   6.017  17.406  0.00  0.00    +0.000 A 
ATOM     24  C   UNL     1      48.544   5.901  16.172  0.00  0.00    +0.000 A 
BRANCH  22  25
ATOM     25  C   UNL     1      49.763   5.200  19.782  0.00  0.00    +0.000 C 
ATOM     26  C   UNL     1      49.951   6.682  20.206  0.00  0.00    +0.000 C 
ATOM     27  C   UNL     1      48.907   4.573  20.924  0.00  0.00    +0.000 C 
BRANCH  25  28
ATOM     28  C   UNL     1      51.147   4.518  19.717  0.00  0.00    +0.000 A 
ATOM     29  C   UNL     1      52.035   4.583  20.796  0.00  0.00    +0.000 A 
ATOM     30  C   UNL     1      53.295   3.999  20.688  0.00  0.00    +0.000 A 
ATOM     31  C   UNL     1      53.645   3.347  19.514  0.00  0.00    +0.000 A 
ATOM     32  C   UNL     1      52.708   3.295  18.499  0.00  0.00    +0.000 A 
ATOM     33  N   UNL     1      51.483   3.860  18.575  0.00  0.00    +0.000 NA
ENDBRANCH  25  28
ENDBRANCH  22  25
ENDBRANCH  18  19
ENDBRANCH   3  18
TORSDOF 6
ENDMDL
