MODEL 1
REMARK VINA RESULT:    -9.172      0.000      0.000
REMARK INTER + INTRA:         -11.948
REMARK INTER:                 -11.317
REMARK INTRA:                  -0.630
REMARK UNBOUND:                -0.630
REMARK  Name = 
REMARK  4 active torsions:
REMARK  status: ('A' for Active; 'I' for Inactive)
REMARK    1  A    between atoms: C_2  and  C_4
REMARK    2  A    between atoms: N_8  and  C_9
REMARK    3  A    between atoms: C_9  and  C_10
REMARK    4  A    between atoms: C_14  and  C_15
REMARK                            x       y       z     vdW  Elec       q    Type
REMARK                         _______ _______ _______ _____ _____    ______ ____
ROOT
ATOM      1  C   UNL     1      46.391   2.279   7.759  0.00  0.00    +0.000 A 
ATOM      2  C   UNL     1      45.550   1.780   8.746  0.00  0.00    +0.000 A 
ATOM      3  C   UNL     1      44.667   2.647   9.390  0.00  0.00    +0.000 A 
ATOM      4  C   UNL     1      44.659   4.001   9.061  0.00  0.00    +0.000 A 
ATOM      5  N   UNL     1      43.745   4.898   9.581  0.00  0.00    +0.000 N 
ATOM      6  N   UNL     1      45.488   4.499   8.125  0.00  0.00    +0.000 NA
ATOM      7  C   UNL     1      46.338   3.640   7.499  0.00  0.00    +0.000 A 
ATOM      8  H   UNL     1      44.019   5.825   9.258  0.00  0.00    +0.000 HD
ENDROOT
BRANCH   1  10
ATOM      9  N   UNL     1      48.427   2.035   6.453  0.00  0.00    +0.000 N 
ATOM     10  C   UNL     1      47.326   1.429   6.997  0.00  0.00    +0.000 C 
ATOM     11  O   UNL     1      47.146   0.224   6.885  0.00  0.00    +0.000 OA
ATOM     12  H   UNL     1      49.109   1.422   6.022  0.00  0.00    +0.000 HD
ATOM     13  H   UNL     1      48.739   2.951   6.735  0.00  0.00    +0.000 HD
ENDBRANCH   1  10
BRANCH   5  14
ATOM     14  C   UNL     1      43.380   4.843  10.986  0.00  0.00    +0.000 C 
BRANCH  14  15
ATOM     15  C   UNL     1      44.591   5.005  11.870  0.00  0.00    +0.000 A 
ATOM     16  C   UNL     1      44.862   4.060  12.850  0.00  0.00    +0.000 A 
ATOM     17  N   UNL     1      45.877   4.155  13.731  0.00  0.00    +0.000 NA
ATOM     18  C   UNL     1      46.668   5.254  13.638  0.00  0.00    +0.000 A 
ATOM     19  C   UNL     1      46.500   6.292  12.719  0.00  0.00    +0.000 A 
ATOM     20  C   UNL     1      45.418   6.141  11.834  0.00  0.00    +0.000 A 
BRANCH  19  21
ATOM     21  C   UNL     1      47.394   7.469  12.680  0.00  0.00    +0.000 A 
ATOM     22  C   UNL     1      48.434   7.587  11.744  0.00  0.00    +0.000 A 
ATOM     23  C   UNL     1      49.264   8.709  11.734  0.00  0.00    +0.000 A 
ATOM     24  C   UNL     1      49.040   9.701  12.671  0.00  0.00    +0.000 A 
ATOM     25  N   UNL     1      48.060   9.642  13.592  0.00  0.00    +0.000 NA
ATOM     26  C   UNL     1      47.267   8.540  13.570  0.00  0.00    +0.000 A 
ENDBRANCH  19  21
ENDBRANCH  14  15
ENDBRANCH   5  14
TORSDOF 4
ENDMDL
MODEL 2
REMARK VINA RESULT:    -8.934      1.634      3.202
REMARK INTER + INTRA:         -11.653
REMARK INTER:                 -10.936
REMARK INTRA:                  -0.718
REMARK UNBOUND:                -0.630
REMARK  Name = 
REMARK  4 active torsions:
REMARK  status: ('A' for Active; 'I' for Inactive)
REMARK    1  A    between atoms: C_2  and  C_4
REMARK    2  A    between atoms: N_8  and  C_9
REMARK    3  A    between atoms: C_9  and  C_10
REMARK    4  A    between atoms: C_14  and  C_15
REMARK                            x       y       z     vdW  Elec       q    Type
REMARK                         _______ _______ _______ _____ _____    ______ ____
ROOT
ATOM      1  C   UNL     1      46.381   2.267   7.719  0.00  0.00    +0.000 A 
ATOM      2  C   UNL     1      45.595   1.806   8.768  0.00  0.00    +0.000 A 
ATOM      3  C   UNL     1      44.734   2.693   9.415  0.00  0.00    +0.000 A 
ATOM      4  C   UNL     1      44.693   4.030   9.024  0.00  0.00    +0.000 A 
ATOM      5  N   UNL     1      43.794   4.942   9.546  0.00  0.00    +0.000 N 
ATOM      6  N   UNL     1      45.468   4.492   8.026  0.00  0.00    +0.000 NA
ATOM      7  C   UNL     1      46.298   3.614   7.399  0.00  0.00    +0.000 A 
ATOM      8  H   UNL     1      44.041   5.855   9.168  0.00  0.00    +0.000 HD
ENDROOT
BRANCH   1  10
ATOM      9  N   UNL     1      48.353   1.982   6.328  0.00  0.00    +0.000 N 
ATOM     10  C   UNL     1      47.288   1.391   6.953  0.00  0.00    +0.000 C 
ATOM     11  O   UNL     1      47.117   0.181   6.905  0.00  0.00    +0.000 OA
ATOM     12  H   UNL     1      49.021   1.357   5.892  0.00  0.00    +0.000 HD
ATOM     13  H   UNL     1      48.668   2.914   6.552  0.00  0.00    +0.000 HD
ENDBRANCH   1  10
BRANCH   5  14
ATOM     14  C   UNL     1      43.499   4.948  10.969  0.00  0.00    +0.000 C 
BRANCH  14  15
ATOM     15  C   UNL     1      44.625   5.570  11.755  0.00  0.00    +0.000 A 
ATOM     16  C   UNL     1      45.113   6.819  11.394  0.00  0.00    +0.000 A 
ATOM     17  N   UNL     1      46.161   7.422  11.990  0.00  0.00    +0.000 NA
ATOM     18  C   UNL     1      46.762   6.747  13.002  0.00  0.00    +0.000 A 
ATOM     19  C   UNL     1      46.393   5.478  13.455  0.00  0.00    +0.000 A 
ATOM     20  C   UNL     1      45.302   4.897  12.787  0.00  0.00    +0.000 A 
BRANCH  19  21
ATOM     21  C   UNL     1      47.100   4.794  14.558  0.00  0.00    +0.000 A 
ATOM     22  C   UNL     1      47.651   5.495  15.643  0.00  0.00    +0.000 A 
ATOM     23  C   UNL     1      48.315   4.821  16.668  0.00  0.00    +0.000 A 
ATOM     24  C   UNL     1      48.424   3.445  16.588  0.00  0.00    +0.000 A 
ATOM     25  N   UNL     1      47.917   2.720  15.573  0.00  0.00    +0.000 NA
ATOM     26  C   UNL     1      47.272   3.407  14.595  0.00  0.00    +0.000 A 
ENDBRANCH  19  21
ENDBRANCH  14  15
ENDBRANCH   5  14
TORSDOF 4
ENDMDL
MODEL 3
REMARK VINA RESULT:    -7.892      1.765      2.274
REMARK INTER + INTRA:         -10.367
REMARK INTER:                 -10.244
REMARK INTRA:                  -0.123
REMARK UNBOUND:                -0.630
REMARK  Name = 
REMARK  4 active torsions:
REMARK  status: ('A' for Active; 'I' for Inactive)
REMARK    1  A    between atoms: C_2  and  C_4
REMARK    2  A    between atoms: N_8  and  C_9
REMARK    3  A    between atoms: C_9  and  C_10
REMARK    4  A    between atoms: C_14  and  C_15
REMARK                            x       y       z     vdW  Elec       q    Type
REMARK                         _______ _______ _______ _____ _____    ______ ____
ROOT
ATOM      1  C   UNL     1      46.719   2.517   7.130  0.00  0.00    +0.000 A 
ATOM      2  C   UNL     1      46.256   3.742   7.592  0.00  0.00    +0.000 A 
ATOM      3  C   UNL     1      45.511   3.789   8.771  0.00  0.00    +0.000 A 
ATOM      4  C   UNL     1      45.216   2.610   9.453  0.00  0.00    +0.000 A 
ATOM      5  N   UNL     1      44.575   2.586  10.677  0.00  0.00    +0.000 N 
ATOM      6  N   UNL     1      45.638   1.415   9.000  0.00  0.00    +0.000 NA
ATOM      7  C   UNL     1      46.371   1.386   7.853  0.00  0.00    +0.000 A 
ATOM      8  H   UNL     1      44.397   1.609  10.902  0.00  0.00    +0.000 HD
ENDROOT
BRANCH   1  10
ATOM      9  N   UNL     1      47.382   3.316   4.933  0.00  0.00    +0.000 N 
ATOM     10  C   UNL     1      47.548   2.379   5.917  0.00  0.00    +0.000 C 
ATOM     11  O   UNL     1      48.376   1.485   5.807  0.00  0.00    +0.000 OA
ATOM     12  H   UNL     1      48.028   3.267   4.154  0.00  0.00    +0.000 HD
ATOM     13  H   UNL     1      46.911   4.194   5.090  0.00  0.00    +0.000 HD
ENDBRANCH   1  10
BRANCH   5  14
ATOM     14  C   UNL     1      43.450   3.469  10.933  0.00  0.00    +0.000 C 
BRANCH  14  15
ATOM     15  C   UNL     1      43.918   4.854  11.302  0.00  0.00    +0.000 A 
ATOM     16  C   UNL     1      43.085   5.944  11.092  0.00  0.00    +0.000 A 
ATOM     17  N   UNL     1      43.441   7.224  11.323  0.00  0.00    +0.000 NA
ATOM     18  C   UNL     1      44.698   7.435  11.786  0.00  0.00    +0.000 A 
ATOM     19  C   UNL     1      45.649   6.438  12.022  0.00  0.00    +0.000 A 
ATOM     20  C   UNL     1      45.222   5.127  11.751  0.00  0.00    +0.000 A 
BRANCH  19  21
ATOM     21  C   UNL     1      47.007   6.741  12.518  0.00  0.00    +0.000 A 
ATOM     22  C   UNL     1      47.887   7.586  11.824  0.00  0.00    +0.000 A 
ATOM     23  C   UNL     1      49.166   7.851  12.317  0.00  0.00    +0.000 A 
ATOM     24  C   UNL     1      49.548   7.256  13.504  0.00  0.00    +0.000 A 
ATOM     25  N   UNL     1      48.749   6.435  14.213  0.00  0.00    +0.000 NA
ATOM     26  C   UNL     1      47.510   6.205  13.708  0.00  0.00    +0.000 A 
ENDBRANCH  19  21
ENDBRANCH  14  15
ENDBRANCH   5  14
TORSDOF 4
ENDMDL
MODEL 4
REMARK VINA RESULT:    -7.885      3.050      7.234
REMARK INTER + INTRA:         -10.359
REMARK INTER:                  -9.903
REMARK INTRA:                  -0.456
REMARK UNBOUND:                -0.630
REMARK  Name = 
REMARK  4 active torsions:
REMARK  status: ('A' for Active; 'I' for Inactive)
REMARK    1  A    between atoms: C_2  and  C_4
REMARK    2  A    between atoms: N_8  and  C_9
REMARK    3  A    between atoms: C_9  and  C_10
REMARK    4  A    between atoms: C_14  and  C_15
REMARK                            x       y       z     vdW  Elec       q    Type
REMARK                         _______ _______ _______ _____ _____    ______ ____
ROOT
ATOM      1  C   UNL     1      47.819   5.205  15.424  0.00  0.00    +0.000 A 
ATOM      2  C   UNL     1      46.839   4.422  14.826  0.00  0.00    +0.000 A 
ATOM      3  C   UNL     1      46.258   4.851  13.632  0.00  0.00    +0.000 A 
ATOM      4  C   UNL     1      46.641   6.067  13.072  0.00  0.00    +0.000 A 
ATOM      5  N   UNL     1      46.187   6.509  11.843  0.00  0.00    +0.000 N 
ATOM      6  N   UNL     1      47.570   6.846  13.656  0.00  0.00    +0.000 NA
ATOM      7  C   UNL     1      48.135   6.411  14.816  0.00  0.00    +0.000 A 
ATOM      8  H   UNL     1      46.538   7.457  11.717  0.00  0.00    +0.000 HD
ENDROOT
BRANCH   1  10
ATOM      9  N   UNL     1      48.341   5.604  17.764  0.00  0.00    +0.000 N 
ATOM     10  C   UNL     1      48.516   4.810  16.662  0.00  0.00    +0.000 C 
ATOM     11  O   UNL     1      49.195   3.793  16.716  0.00  0.00    +0.000 OA
ATOM     12  H   UNL     1      48.742   5.264  18.630  0.00  0.00    +0.000 HD
ATOM     13  H   UNL     1      47.602   6.287  17.831  0.00  0.00    +0.000 HD
ENDBRANCH   1  10
BRANCH   5  14
ATOM     14  C   UNL     1      44.793   6.338  11.472  0.00  0.00    +0.000 C 
BRANCH  14  15
ATOM     15  C   UNL     1      44.565   4.997  10.819  0.00  0.00    +0.000 A 
ATOM     16  C   UNL     1      43.629   4.121  11.351  0.00  0.00    +0.000 A 
ATOM     17  N   UNL     1      43.406   2.877  10.882  0.00  0.00    +0.000 NA
ATOM     18  C   UNL     1      44.157   2.477   9.825  0.00  0.00    +0.000 A 
ATOM     19  C   UNL     1      45.148   3.243   9.206  0.00  0.00    +0.000 A 
ATOM     20  C   UNL     1      45.341   4.525   9.747  0.00  0.00    +0.000 A 
BRANCH  19  21
ATOM     21  C   UNL     1      45.939   2.740   8.063  0.00  0.00    +0.000 A 
ATOM     22  C   UNL     1      46.236   3.540   6.948  0.00  0.00    +0.000 A 
ATOM     23  C   UNL     1      46.984   3.036   5.883  0.00  0.00    +0.000 A 
ATOM     24  C   UNL     1      47.421   1.727   5.948  0.00  0.00    +0.000 A 
ATOM     25  N   UNL     1      47.166   0.912   6.990  0.00  0.00    +0.000 NA
ATOM     26  C   UNL     1      46.442   1.436   8.012  0.00  0.00    +0.000 A 
ENDBRANCH  19  21
ENDBRANCH  14  15
ENDBRANCH   5  14
TORSDOF 4
ENDMDL
MODEL 5
REMARK VINA RESULT:    -7.650      1.590      2.163
REMARK INTER + INTRA:         -10.070
REMARK INTER:                  -9.499
REMARK INTRA:                  -0.571
REMARK UNBOUND:                -0.630
REMARK  Name = 
REMARK  4 active torsions:
REMARK  status: ('A' for Active; 'I' for Inactive)
REMARK    1  A    between atoms: C_2  and  C_4
REMARK    2  A    between atoms: N_8  and  C_9
REMARK    3  A    between atoms: C_9  and  C_10
REMARK    4  A    between atoms: C_14  and  C_15
REMARK                            x       y       z     vdW  Elec       q    Type
REMARK                         _______ _______ _______ _____ _____    ______ ____
ROOT
ATOM      1  C   UNL     1      46.477   2.312   7.657  0.00  0.00    +0.000 A 
ATOM      2  C   UNL     1      45.807   1.908   8.805  0.00  0.00    +0.000 A 
ATOM      3  C   UNL     1      45.060   2.843   9.522  0.00  0.00    +0.000 A 
ATOM      4  C   UNL     1      45.018   4.170   9.099  0.00  0.00    +0.000 A 
ATOM      5  N   UNL     1      44.221   5.128   9.696  0.00  0.00    +0.000 N 
ATOM      6  N   UNL     1      45.685   4.577   8.003  0.00  0.00    +0.000 NA
ATOM      7  C   UNL     1      46.403   3.652   7.309  0.00  0.00    +0.000 A 
ATOM      8  H   UNL     1      44.452   6.021   9.264  0.00  0.00    +0.000 HD
ENDROOT
BRANCH   1  10
ATOM      9  N   UNL     1      48.281   1.911   6.078  0.00  0.00    +0.000 N 
ATOM     10  C   UNL     1      47.255   1.383   6.815  0.00  0.00    +0.000 C 
ATOM     11  O   UNL     1      47.020   0.183   6.802  0.00  0.00    +0.000 OA
ATOM     12  H   UNL     1      48.868   1.248   5.586  0.00  0.00    +0.000 HD
ATOM     13  H   UNL     1      48.664   2.827   6.256  0.00  0.00    +0.000 HD
ENDBRANCH   1  10
BRANCH   5  14
ATOM     14  C   UNL     1      44.097   5.183  11.142  0.00  0.00    +0.000 C 
BRANCH  14  15
ATOM     15  C   UNL     1      44.664   6.469  11.689  0.00  0.00    +0.000 A 
ATOM     16  C   UNL     1      44.130   7.685  11.286  0.00  0.00    +0.000 A 
ATOM     17  N   UNL     1      44.614   8.886  11.663  0.00  0.00    +0.000 NA
ATOM     18  C   UNL     1      45.693   8.879  12.486  0.00  0.00    +0.000 A 
ATOM     19  C   UNL     1      46.345   7.735  12.951  0.00  0.00    +0.000 A 
ATOM     20  C   UNL     1      45.801   6.515  12.514  0.00  0.00    +0.000 A 
BRANCH  19  21
ATOM     21  C   UNL     1      47.525   7.801  13.838  0.00  0.00    +0.000 A 
ATOM     22  C   UNL     1      48.176   6.648  14.307  0.00  0.00    +0.000 A 
ATOM     23  C   UNL     1      49.287   6.743  15.145  0.00  0.00    +0.000 A 
ATOM     24  C   UNL     1      49.729   8.000  15.511  0.00  0.00    +0.000 A 
ATOM     25  N   UNL     1      49.146   9.141  15.095  0.00  0.00    +0.000 NA
ATOM     26  C   UNL     1      48.072   9.012  14.274  0.00  0.00    +0.000 A 
ENDBRANCH  19  21
ENDBRANCH  14  15
ENDBRANCH   5  14
TORSDOF 4
ENDMDL
MODEL 6
REMARK VINA RESULT:    -7.068      2.551      2.984
REMARK INTER + INTRA:          -9.352
REMARK INTER:                  -9.005
REMARK INTRA:                  -0.346
REMARK UNBOUND:                -0.630
REMARK  Name = 
REMARK  4 active torsions:
REMARK  status: ('A' for Active; 'I' for Inactive)
REMARK    1  A    between atoms: C_2  and  C_4
REMARK    2  A    between atoms: N_8  and  C_9
REMARK    3  A    between atoms: C_9  and  C_10
REMARK    4  A    between atoms: C_14  and  C_15
REMARK                            x       y       z     vdW  Elec       q    Type
REMARK                         _______ _______ _______ _____ _____    ______ ____
ROOT
ATOM      1  C   UNL     1      46.548   2.815   7.175  0.00  0.00    +0.000 A 
ATOM      2  C   UNL     1      46.393   4.033   7.826  0.00  0.00    +0.000 A 
ATOM      3  C   UNL     1      45.693   4.076   9.032  0.00  0.00    +0.000 A 
ATOM      4  C   UNL     1      45.136   2.911   9.554  0.00  0.00    +0.000 A 
ATOM      5  N   UNL     1      44.520   2.856  10.790  0.00  0.00    +0.000 N 
ATOM      6  N   UNL     1      45.258   1.730   8.918  0.00  0.00    +0.000 NA
ATOM      7  C   UNL     1      45.950   1.702   7.746  0.00  0.00    +0.000 A 
ATOM      8  H   UNL     1      44.118   1.924  10.883  0.00  0.00    +0.000 HD
ENDROOT
BRANCH   1  10
ATOM      9  N   UNL     1      48.646   2.401   6.020  0.00  0.00    +0.000 N 
ATOM     10  C   UNL     1      47.307   2.669   5.918  0.00  0.00    +0.000 C 
ATOM     11  O   UNL     1      46.759   2.748   4.828  0.00  0.00    +0.000 OA
ATOM     12  H   UNL     1      49.131   2.203   5.153  0.00  0.00    +0.000 HD
ATOM     13  H   UNL     1      49.073   2.078   6.875  0.00  0.00    +0.000 HD
ENDBRANCH   1  10
BRANCH   5  14
ATOM     14  C   UNL     1      43.638   3.928  11.218  0.00  0.00    +0.000 C 
BRANCH  14  15
ATOM     15  C   UNL     1      44.426   5.111  11.723  0.00  0.00    +0.000 A 
ATOM     16  C   UNL     1      45.395   4.929  12.700  0.00  0.00    +0.000 A 
ATOM     17  N   UNL     1      46.099   5.932  13.263  0.00  0.00    +0.000 NA
ATOM     18  C   UNL     1      45.823   7.189  12.834  0.00  0.00    +0.000 A 
ATOM     19  C   UNL     1      44.861   7.521  11.877  0.00  0.00    +0.000 A 
ATOM     20  C   UNL     1      44.153   6.434  11.336  0.00  0.00    +0.000 A 
BRANCH  19  21
ATOM     21  C   UNL     1      44.603   8.916  11.463  0.00  0.00    +0.000 A 
ATOM     22  C   UNL     1      45.245  10.008  12.070  0.00  0.00    +0.000 A 
ATOM     23  C   UNL     1      44.979  11.315  11.659  0.00  0.00    +0.000 A 
ATOM     24  C   UNL     1      44.063  11.510  10.642  0.00  0.00    +0.000 A 
ATOM     25  N   UNL     1      43.416  10.504  10.024  0.00  0.00    +0.000 NA
ATOM     26  C   UNL     1      43.703   9.245  10.445  0.00  0.00    +0.000 A 
ENDBRANCH  19  21
ENDBRANCH  14  15
ENDBRANCH   5  14
TORSDOF 4
ENDMDL
MODEL 7
REMARK VINA RESULT:    -6.854      3.819      7.858
REMARK INTER + INTRA:          -9.087
REMARK INTER:                  -8.667
REMARK INTRA:                  -0.420
REMARK UNBOUND:                -0.630
REMARK  Name = 
REMARK  4 active torsions:
REMARK  status: ('A' for Active; 'I' for Inactive)
REMARK    1  A    between atoms: C_2  and  C_4
REMARK    2  A    between atoms: N_8  and  C_9
REMARK    3  A    between atoms: C_9  and  C_10
REMARK    4  A    between atoms: C_14  and  C_15
REMARK                            x       y       z     vdW  Elec       q    Type
REMARK                         _______ _______ _______ _____ _____    ______ ____
ROOT
ATOM      1  C   UNL     1      49.329   4.233  17.195  0.00  0.00    +0.000 A 
ATOM      2  C   UNL     1      49.015   5.450  16.602  0.00  0.00    +0.000 A 
ATOM      3  C   UNL     1      47.906   5.531  15.759  0.00  0.00    +0.000 A 
ATOM      4  C   UNL     1      47.147   4.392  15.500  0.00  0.00    +0.000 A 
ATOM      5  N   UNL     1      45.979   4.415  14.761  0.00  0.00    +0.000 N 
ATOM      6  N   UNL     1      47.457   3.203  16.049  0.00  0.00    +0.000 NA
ATOM      7  C   UNL     1      48.537   3.141  16.875  0.00  0.00    +0.000 A 
ATOM      8  H   UNL     1      45.681   3.449  14.640  0.00  0.00    +0.000 HD
ENDROOT
BRANCH   1  10
ATOM      9  N   UNL     1      50.227   4.351  19.451  0.00  0.00    +0.000 N 
ATOM     10  C   UNL     1      50.457   4.066  18.131  0.00  0.00    +0.000 C 
ATOM     11  O   UNL     1      51.545   3.653  17.753  0.00  0.00    +0.000 OA
ATOM     12  H   UNL     1      50.979   4.134  20.094  0.00  0.00    +0.000 HD
ATOM     13  H   UNL     1      49.298   4.441  19.835  0.00  0.00    +0.000 HD
ENDBRANCH   1  10
BRANCH   5  14
ATOM     14  C   UNL     1      45.890   5.219  13.554  0.00  0.00    +0.000 C 
BRANCH  14  15
ATOM     15  C   UNL     1      45.156   4.481  12.462  0.00  0.00    +0.000 A 
ATOM     16  C   UNL     1      43.891   3.965  12.707  0.00  0.00    +0.000 A 
ATOM     17  N   UNL     1      43.189   3.233  11.820  0.00  0.00    +0.000 NA
ATOM     18  C   UNL     1      43.777   2.995  10.620  0.00  0.00    +0.000 A 
ATOM     19  C   UNL     1      45.050   3.432  10.246  0.00  0.00    +0.000 A 
ATOM     20  C   UNL     1      45.736   4.180  11.218  0.00  0.00    +0.000 A 
BRANCH  19  21
ATOM     21  C   UNL     1      45.635   3.127   8.924  0.00  0.00    +0.000 A 
ATOM     22  C   UNL     1      45.996   1.823   8.547  0.00  0.00    +0.000 A 
ATOM     23  C   UNL     1      46.549   1.567   7.292  0.00  0.00    +0.000 A 
ATOM     24  C   UNL     1      46.739   2.630   6.428  0.00  0.00    +0.000 A 
ATOM     25  N   UNL     1      46.414   3.901   6.734  0.00  0.00    +0.000 NA
ATOM     26  C   UNL     1      45.872   4.113   7.961  0.00  0.00    +0.000 A 
ENDBRANCH  19  21
ENDBRANCH  14  15
ENDBRANCH   5  14
TORSDOF 4
ENDMDL
MODEL 8
REMARK VINA RESULT:    -6.461      5.720      7.619
REMARK INTER + INTRA:          -8.603
REMARK INTER:                  -8.043
REMARK INTRA:                  -0.559
REMARK UNBOUND:                -0.630
REMARK  Name = 
REMARK  4 active torsions:
REMARK  status: ('A' for Active; 'I' for Inactive)
REMARK    1  A    between atoms: C_2  and  C_4
REMARK    2  A    between atoms: N_8  and  C_9
REMARK    3  A    between atoms: C_9  and  C_10
REMARK    4  A    between atoms: C_14  and  C_15
REMARK                            x       y       z     vdW  Elec       q    Type
REMARK                         _______ _______ _______ _____ _____    ______ ____
ROOT
ATOM      1  C   UNL     1      45.462   5.012  12.054  0.00  0.00    +0.000 A 
ATOM      2  C   UNL     1      46.054   5.839  13.001  0.00  0.00    +0.000 A 
ATOM      3  C   UNL     1      46.717   5.266  14.087  0.00  0.00    +0.000 A 
ATOM      4  C   UNL     1      46.753   3.880  14.225  0.00  0.00    +0.000 A 
ATOM      5  N   UNL     1      47.475   3.239  15.214  0.00  0.00    +0.000 N 
ATOM      6  N   UNL     1      46.161   3.071  13.328  0.00  0.00    +0.000 NA
ATOM      7  C   UNL     1      45.525   3.644  12.269  0.00  0.00    +0.000 A 
ATOM      8  H   UNL     1      47.253   2.247  15.151  0.00  0.00    +0.000 HD
ENDROOT
BRANCH   1  10
ATOM      9  N   UNL     1      45.484   5.537   9.681  0.00  0.00    +0.000 N 
ATOM     10  C   UNL     1      44.778   5.530  10.854  0.00  0.00    +0.000 C 
ATOM     11  O   UNL     1      43.614   5.905  10.894  0.00  0.00    +0.000 OA
ATOM     12  H   UNL     1      44.969   5.798   8.849  0.00  0.00    +0.000 HD
ATOM     13  H   UNL     1      46.333   5.008   9.554  0.00  0.00    +0.000 HD
ENDBRANCH   1  10
BRANCH   5  14
ATOM     14  C   UNL     1      47.486   3.760  16.570  0.00  0.00    +0.000 C 
BRANCH  14  15
ATOM     15  C   UNL     1      48.885   4.122  17.003  0.00  0.00    +0.000 A 
ATOM     16  C   UNL     1      49.288   5.450  16.997  0.00  0.00    +0.000 A 
ATOM     17  N   UNL     1      50.535   5.863  17.298  0.00  0.00    +0.000 NA
ATOM     18  C   UNL     1      51.437   4.902  17.619  0.00  0.00    +0.000 A 
ATOM     19  C   UNL     1      51.178   3.530  17.644  0.00  0.00    +0.000 A 
ATOM     20  C   UNL     1      49.863   3.161  17.310  0.00  0.00    +0.000 A 
BRANCH  19  21
ATOM     21  C   UNL     1      52.213   2.534  17.994  0.00  0.00    +0.000 A 
ATOM     22  C   UNL     1      52.223   1.240  17.448  0.00  0.00    +0.000 A 
ATOM     23  C   UNL     1      53.212   0.321  17.800  0.00  0.00    +0.000 A 
ATOM     24  C   UNL     1      54.181   0.713  18.705  0.00  0.00    +0.000 A 
ATOM     25  N   UNL     1      54.222   1.939  19.262  0.00  0.00    +0.000 NA
ATOM     26  C   UNL     1      53.249   2.810  18.892  0.00  0.00    +0.000 A 
ENDBRANCH  19  21
ENDBRANCH  14  15
ENDBRANCH   5  14
TORSDOF 4
ENDMDL
MODEL 9
REMARK VINA RESULT:    -6.353      4.425      8.151
REMARK INTER + INTRA:          -8.468
REMARK INTER:                  -8.029
REMARK INTRA:                  -0.439
REMARK UNBOUND:                -0.630
REMARK  Name = 
REMARK  4 active torsions:
REMARK  status: ('A' for Active; 'I' for Inactive)
REMARK    1  A    between atoms: C_2  and  C_4
REMARK    2  A    between atoms: N_8  and  C_9
REMARK    3  A    between atoms: C_9  and  C_10
REMARK    4  A    between atoms: C_14  and  C_15
REMARK                            x       y       z     vdW  Elec       q    Type
REMARK                         _______ _______ _______ _____ _____    ______ ____
ROOT
ATOM      1  C   UNL     1      50.834   5.022  17.419  0.00  0.00    +0.000 A 
ATOM      2  C   UNL     1      51.182   6.194  16.759  0.00  0.00    +0.000 A 
ATOM      3  C   UNL     1      50.236   6.827  15.951  0.00  0.00    +0.000 A 
ATOM      4  C   UNL     1      48.971   6.265  15.792  0.00  0.00    +0.000 A 
ATOM      5  N   UNL     1      47.952   6.885  15.094  0.00  0.00    +0.000 N 
ATOM      6  N   UNL     1      48.633   5.116  16.407  0.00  0.00    +0.000 NA
ATOM      7  C   UNL     1      49.563   4.515  17.198  0.00  0.00    +0.000 A 
ATOM      8  H   UNL     1      47.177   6.225  15.046  0.00  0.00    +0.000 HD
ENDROOT
BRANCH   1  10
ATOM      9  N   UNL     1      51.367   4.165  19.630  0.00  0.00    +0.000 N 
ATOM     10  C   UNL     1      51.755   4.310  18.325  0.00  0.00    +0.000 C 
ATOM     11  O   UNL     1      52.808   3.836  17.922  0.00  0.00    +0.000 OA
ATOM     12  H   UNL     1      51.960   3.587  20.214  0.00  0.00    +0.000 HD
ATOM     13  H   UNL     1      50.416   4.309  19.935  0.00  0.00    +0.000 HD
ENDBRANCH   1  10
BRANCH   5  14
ATOM     14  C   UNL     1      48.230   7.565  13.840  0.00  0.00    +0.000 C 
BRANCH  14  15
ATOM     15  C   UNL     1      47.048   7.488  12.906  0.00  0.00    +0.000 A 
ATOM     16  C   UNL     1      46.136   8.532  12.859  0.00  0.00    +0.000 A 
ATOM     17  N   UNL     1      45.014   8.524  12.111  0.00  0.00    +0.000 NA
ATOM     18  C   UNL     1      44.782   7.412  11.369  0.00  0.00    +0.000 A 
ATOM     19  C   UNL     1      45.600   6.280  11.336  0.00  0.00    +0.000 A 
ATOM     20  C   UNL     1      46.747   6.345  12.145  0.00  0.00    +0.000 A 
BRANCH  19  21
ATOM     21  C   UNL     1      45.281   5.096  10.510  0.00  0.00    +0.000 A 
ATOM     22  C   UNL     1      45.646   5.006   9.157  0.00  0.00    +0.000 A 
ATOM     23  C   UNL     1      45.329   3.876   8.403  0.00  0.00    +0.000 A 
ATOM     24  C   UNL     1      44.641   2.847   9.018  0.00  0.00    +0.000 A 
ATOM     25  N   UNL     1      44.264   2.877  10.311  0.00  0.00    +0.000 NA
ATOM     26  C   UNL     1      44.595   3.988  11.017  0.00  0.00    +0.000 A 
ENDBRANCH  19  21
ENDBRANCH  14  15
ENDBRANCH   5  14
TORSDOF 4
ENDMDL
