MODEL 1
REMARK VINA RESULT:    -7.962      0.000      0.000
REMARK INTER + INTRA:         -11.047
REMARK INTER:                 -10.290
REMARK INTRA:                  -0.757
REMARK UNBOUND:                -0.757
REMARK  Name = 
REMARK  7 active torsions:
REMARK  status: ('A' for Active; 'I' for Inactive)
REMARK    1  A    between atoms: C_1  and  C_2
REMARK    2  A    between atoms: C_2  and  C_3
REMARK    3  A    between atoms: C_2  and  C_4
REMARK    4  A    between atoms: C_2  and  C_15
REMARK    5  A    between atoms: C_4  and  O_5
REMARK    6  A    between atoms: O_5  and  C_6
REMARK    7  A    between atoms: C_9  and  C_10
REMARK                            x       y       z     vdW  Elec       q    Type
REMARK                         _______ _______ _______ _____ _____    ______ ____
ROOT
ATOM      1  O   UNL     1      43.547   3.296  10.128  0.00  0.00    +0.000 OA
ENDROOT
BRANCH   1   2
ATOM      2  C   UNL     1      44.541   3.033   9.240  0.00  0.00    +0.000 A 
ATOM      3  C   UNL     1      45.207   1.833   9.109  0.00  0.00    +0.000 A 
ATOM      4  N   UNL     1      46.183   1.601   8.211  0.00  0.00    +0.000 NA
ATOM      5  C   UNL     1      46.473   2.638   7.395  0.00  0.00    +0.000 A 
ATOM      6  N   UNL     1      45.871   3.848   7.402  0.00  0.00    +0.000 NA
ATOM      7  C   UNL     1      44.906   4.006   8.331  0.00  0.00    +0.000 A 
BRANCH   5   8
ATOM      8  C   UNL     1      47.585   2.401   6.403  0.00  0.00    +0.000 C 
ATOM      9  N   UNL     1      47.567   3.209   5.288  0.00  0.00    +0.000 N 
ATOM     10  O   UNL     1      48.458   1.552   6.540  0.00  0.00    +0.000 OA
ATOM     11  H   UNL     1      46.840   3.895   5.173  0.00  0.00    +0.000 HD
ATOM     12  H   UNL     1      48.272   3.078   4.581  0.00  0.00    +0.000 HD
ENDBRANCH   5   8
ENDBRANCH   1   2
BRANCH   1  13
ATOM     13  C   UNL     1      43.957   3.315  11.502  0.00  0.00    +0.000 C 
BRANCH  13  15
ATOM     14  C   UNL     1      43.027   5.652  11.193  0.00  0.00    +0.000 C 
ATOM     15  C   UNL     1      43.870   4.743  12.114  0.00  0.00    +0.000 C 
ATOM     16  C   UNL     1      43.093   4.593  13.449  0.00  0.00    +0.000 C 
BRANCH  15  17
ATOM     17  C   UNL     1      45.272   5.354  12.307  0.00  0.00    +0.000 A 
ATOM     18  C   UNL     1      45.863   6.188  11.342  0.00  0.00    +0.000 A 
ATOM     19  C   UNL     1      47.132   6.739  11.534  0.00  0.00    +0.000 A 
ATOM     20  C   UNL     1      47.837   6.473  12.701  0.00  0.00    +0.000 A 
ATOM     21 CL   UNL     1      49.395   7.161  12.937  0.00  0.00    +0.000 Cl
ATOM     22  C   UNL     1      47.285   5.652  13.675  0.00  0.00    +0.000 A 
ATOM     23  C   UNL     1      46.022   5.089  13.473  0.00  0.00    +0.000 A 
ENDBRANCH  15  17
ENDBRANCH  13  15
ENDBRANCH   1  13
TORSDOF 5
ENDMDL
MODEL 2
REMARK VINA RESULT:    -7.257      1.362      2.085
REMARK INTER + INTRA:         -10.136
REMARK INTER:                  -9.717
REMARK INTRA:                  -0.418
REMARK UNBOUND:                -0.757
REMARK  Name = 
REMARK  7 active torsions:
REMARK  status: ('A' for Active; 'I' for Inactive)
REMARK    1  A    between atoms: C_1  and  C_2
REMARK    2  A    between atoms: C_2  and  C_3
REMARK    3  A    between atoms: C_2  and  C_4
REMARK    4  A    between atoms: C_2  and  C_15
REMARK    5  A    between atoms: C_4  and  O_5
REMARK    6  A    between atoms: O_5  and  C_6
REMARK    7  A    between atoms: C_9  and  C_10
REMARK                            x       y       z     vdW  Elec       q    Type
REMARK                         _______ _______ _______ _____ _____    ______ ____
ROOT
ATOM      1  O   UNL     1      43.727   3.141  10.291  0.00  0.00    +0.000 OA
ENDROOT
BRANCH   1   2
ATOM      2  C   UNL     1      44.618   3.055   9.270  0.00  0.00    +0.000 A 
ATOM      3  C   UNL     1      45.047   4.104   8.486  0.00  0.00    +0.000 A 
ATOM      4  N   UNL     1      45.941   3.988   7.485  0.00  0.00    +0.000 NA
ATOM      5  C   UNL     1      46.434   2.744   7.296  0.00  0.00    +0.000 A 
ATOM      6  N   UNL     1      46.118   1.646   8.017  0.00  0.00    +0.000 NA
ATOM      7  C   UNL     1      45.215   1.840   8.999  0.00  0.00    +0.000 A 
BRANCH   5   8
ATOM      8  C   UNL     1      47.414   2.593   6.159  0.00  0.00    +0.000 C 
ATOM      9  N   UNL     1      48.654   2.102   6.505  0.00  0.00    +0.000 N 
ATOM     10  O   UNL     1      47.166   2.885   4.995  0.00  0.00    +0.000 OA
ATOM     11  H   UNL     1      48.858   1.877   7.465  0.00  0.00    +0.000 HD
ATOM     12  H   UNL     1      49.355   2.004   5.790  0.00  0.00    +0.000 HD
ENDBRANCH   5   8
ENDBRANCH   1   2
BRANCH   1  13
ATOM     13  C   UNL     1      43.504   4.469  10.786  0.00  0.00    +0.000 C 
BRANCH  13  15
ATOM     14  C   UNL     1      43.023   4.761  13.256  0.00  0.00    +0.000 C 
ATOM     15  C   UNL     1      44.138   4.679  12.191  0.00  0.00    +0.000 C 
ATOM     16  C   UNL     1      44.964   3.399  12.487  0.00  0.00    +0.000 C 
BRANCH  15  17
ATOM     17  C   UNL     1      44.993   5.961  12.231  0.00  0.00    +0.000 A 
ATOM     18  C   UNL     1      46.260   5.995  12.837  0.00  0.00    +0.000 A 
ATOM     19  C   UNL     1      47.026   7.164  12.860  0.00  0.00    +0.000 A 
ATOM     20  C   UNL     1      46.543   8.323  12.269  0.00  0.00    +0.000 A 
ATOM     21 CL   UNL     1      47.493   9.757  12.292  0.00  0.00    +0.000 Cl
ATOM     22  C   UNL     1      45.295   8.327  11.663  0.00  0.00    +0.000 A 
ATOM     23  C   UNL     1      44.523   7.161  11.656  0.00  0.00    +0.000 A 
ENDBRANCH  15  17
ENDBRANCH  13  15
ENDBRANCH   1  13
TORSDOF 5
ENDMDL
MODEL 3
REMARK VINA RESULT:    -6.883      3.999      5.947
REMARK INTER + INTRA:          -9.653
REMARK INTER:                  -8.935
REMARK INTRA:                  -0.718
REMARK UNBOUND:                -0.757
REMARK  Name = 
REMARK  7 active torsions:
REMARK  status: ('A' for Active; 'I' for Inactive)
REMARK    1  A    between atoms: C_1  and  C_2
REMARK    2  A    between atoms: C_2  and  C_3
REMARK    3  A    between atoms: C_2  and  C_4
REMARK    4  A    between atoms: C_2  and  C_15
REMARK    5  A    between atoms: C_4  and  O_5
REMARK    6  A    between atoms: O_5  and  C_6
REMARK    7  A    between atoms: C_9  and  C_10
REMARK                            x       y       z     vdW  Elec       q    Type
REMARK                         _______ _______ _______ _____ _____    ______ ____
ROOT
ATOM      1  O   UNL     1      45.196   5.336  12.875  0.00  0.00    +0.000 OA
ENDROOT
BRANCH   1   2
ATOM      2  C   UNL     1      46.395   5.959  12.730  0.00  0.00    +0.000 A 
ATOM      3  C   UNL     1      46.684   6.943  11.809  0.00  0.00    +0.000 A 
ATOM      4  N   UNL     1      47.881   7.549  11.697  0.00  0.00    +0.000 NA
ATOM      5  C   UNL     1      48.817   7.144  12.583  0.00  0.00    +0.000 A 
ATOM      6  N   UNL     1      48.646   6.215  13.550  0.00  0.00    +0.000 NA
ATOM      7  C   UNL     1      47.422   5.651  13.599  0.00  0.00    +0.000 A 
BRANCH   5   8
ATOM      8  C   UNL     1      50.172   7.793  12.449  0.00  0.00    +0.000 C 
ATOM      9  N   UNL     1      50.941   7.349  11.396  0.00  0.00    +0.000 N 
ATOM     10  O   UNL     1      50.600   8.654  13.209  0.00  0.00    +0.000 OA
ATOM     11  H   UNL     1      50.591   6.631  10.783  0.00  0.00    +0.000 HD
ATOM     12  H   UNL     1      51.865   7.730  11.273  0.00  0.00    +0.000 HD
ENDBRANCH   5   8
ENDBRANCH   1   2
BRANCH   1  13
ATOM     13  C   UNL     1      45.181   3.960  12.474  0.00  0.00    +0.000 C 
BRANCH  13  15
ATOM     14  C   UNL     1      43.320   2.434  11.682  0.00  0.00    +0.000 C 
ATOM     15  C   UNL     1      44.145   3.695  11.344  0.00  0.00    +0.000 C 
ATOM     16  C   UNL     1      43.169   4.902  11.363  0.00  0.00    +0.000 C 
BRANCH  15  17
ATOM     17  C   UNL     1      44.841   3.513   9.981  0.00  0.00    +0.000 A 
ATOM     18  C   UNL     1      45.310   4.606   9.231  0.00  0.00    +0.000 A 
ATOM     19  C   UNL     1      45.945   4.426   7.999  0.00  0.00    +0.000 A 
ATOM     20  C   UNL     1      46.131   3.146   7.494  0.00  0.00    +0.000 A 
ATOM     21 CL   UNL     1      46.921   2.928   5.982  0.00  0.00    +0.000 Cl
ATOM     22  C   UNL     1      45.679   2.044   8.206  0.00  0.00    +0.000 A 
ATOM     23  C   UNL     1      45.030   2.228   9.431  0.00  0.00    +0.000 A 
ENDBRANCH  15  17
ENDBRANCH  13  15
ENDBRANCH   1  13
TORSDOF 5
ENDMDL
MODEL 4
REMARK VINA RESULT:    -6.748      4.787      6.882
REMARK INTER + INTRA:          -9.477
REMARK INTER:                  -8.957
REMARK INTRA:                  -0.520
REMARK UNBOUND:                -0.757
REMARK  Name = 
REMARK  7 active torsions:
REMARK  status: ('A' for Active; 'I' for Inactive)
REMARK    1  A    between atoms: C_1  and  C_2
REMARK    2  A    between atoms: C_2  and  C_3
REMARK    3  A    between atoms: C_2  and  C_4
REMARK    4  A    between atoms: C_2  and  C_15
REMARK    5  A    between atoms: C_4  and  O_5
REMARK    6  A    between atoms: O_5  and  C_6
REMARK    7  A    between atoms: C_9  and  C_10
REMARK                            x       y       z     vdW  Elec       q    Type
REMARK                         _______ _______ _______ _____ _____    ______ ____
ROOT
ATOM      1  O   UNL     1      45.610   4.117  13.468  0.00  0.00    +0.000 OA
ENDROOT
BRANCH   1   2
ATOM      2  C   UNL     1      46.614   4.639  14.220  0.00  0.00    +0.000 A 
ATOM      3  C   UNL     1      47.076   4.128  15.413  0.00  0.00    +0.000 A 
ATOM      4  N   UNL     1      48.082   4.664  16.130  0.00  0.00    +0.000 NA
ATOM      5  C   UNL     1      48.655   5.760  15.587  0.00  0.00    +0.000 A 
ATOM      6  N   UNL     1      48.315   6.336  14.413  0.00  0.00    +0.000 NA
ATOM      7  C   UNL     1      47.298   5.744  13.753  0.00  0.00    +0.000 A 
BRANCH   5   8
ATOM      8  C   UNL     1      49.763   6.389  16.395  0.00  0.00    +0.000 C 
ATOM      9  N   UNL     1      49.496   7.645  16.892  0.00  0.00    +0.000 N 
ATOM     10  O   UNL     1      50.845   5.855  16.609  0.00  0.00    +0.000 OA
ATOM     11  H   UNL     1      48.611   8.086  16.700  0.00  0.00    +0.000 HD
ATOM     12  H   UNL     1      50.210   8.123  17.417  0.00  0.00    +0.000 HD
ENDBRANCH   5   8
ENDBRANCH   1   2
BRANCH   1  13
ATOM     13  C   UNL     1      45.260   4.889  12.312  0.00  0.00    +0.000 C 
BRANCH  13  15
ATOM     14  C   UNL     1      43.712   2.891  12.135  0.00  0.00    +0.000 C 
ATOM     15  C   UNL     1      44.239   4.145  11.403  0.00  0.00    +0.000 C 
ATOM     16  C   UNL     1      43.039   5.111  11.222  0.00  0.00    +0.000 C 
BRANCH  15  17
ATOM     17  C   UNL     1      44.881   3.735  10.063  0.00  0.00    +0.000 A 
ATOM     18  C   UNL     1      45.409   4.682   9.168  0.00  0.00    +0.000 A 
ATOM     19  C   UNL     1      45.993   4.296   7.959  0.00  0.00    +0.000 A 
ATOM     20  C   UNL     1      46.069   2.951   7.622  0.00  0.00    +0.000 A 
ATOM     21 CL   UNL     1      46.797   2.479   6.137  0.00  0.00    +0.000 Cl
ATOM     22  C   UNL     1      45.557   1.988   8.480  0.00  0.00    +0.000 A 
ATOM     23  C   UNL     1      44.958   2.379   9.682  0.00  0.00    +0.000 A 
ENDBRANCH  15  17
ENDBRANCH  13  15
ENDBRANCH   1  13
TORSDOF 5
ENDMDL
MODEL 5
REMARK VINA RESULT:    -6.295      4.701      6.742
REMARK INTER + INTRA:          -8.892
REMARK INTER:                  -8.389
REMARK INTRA:                  -0.503
REMARK UNBOUND:                -0.757
REMARK  Name = 
REMARK  7 active torsions:
REMARK  status: ('A' for Active; 'I' for Inactive)
REMARK    1  A    between atoms: C_1  and  C_2
REMARK    2  A    between atoms: C_2  and  C_3
REMARK    3  A    between atoms: C_2  and  C_4
REMARK    4  A    between atoms: C_2  and  C_15
REMARK    5  A    between atoms: C_4  and  O_5
REMARK    6  A    between atoms: O_5  and  C_6
REMARK    7  A    between atoms: C_9  and  C_10
REMARK                            x       y       z     vdW  Elec       q    Type
REMARK                         _______ _______ _______ _____ _____    ______ ____
ROOT
ATOM      1  O   UNL     1      47.738   5.139  14.825  0.00  0.00    +0.000 OA
ENDROOT
BRANCH   1   2
ATOM      2  C   UNL     1      46.783   4.882  13.894  0.00  0.00    +0.000 A 
ATOM      3  C   UNL     1      46.075   5.828  13.185  0.00  0.00    +0.000 A 
ATOM      4  N   UNL     1      45.139   5.541  12.260  0.00  0.00    +0.000 NA
ATOM      5  C   UNL     1      44.937   4.224  12.036  0.00  0.00    +0.000 A 
ATOM      6  N   UNL     1      45.588   3.206  12.640  0.00  0.00    +0.000 NA
ATOM      7  C   UNL     1      46.508   3.572  13.556  0.00  0.00    +0.000 A 
BRANCH   5   8
ATOM      8  C   UNL     1      43.871   3.887  11.023  0.00  0.00    +0.000 C 
ATOM      9  N   UNL     1      43.786   4.739   9.945  0.00  0.00    +0.000 N 
ATOM     10  O   UNL     1      43.106   2.935  11.122  0.00  0.00    +0.000 OA
ATOM     11  H   UNL     1      44.407   5.529   9.875  0.00  0.00    +0.000 HD
ATOM     12  H   UNL     1      43.075   4.576   9.250  0.00  0.00    +0.000 HD
ENDBRANCH   5   8
ENDBRANCH   1   2
BRANCH   1  13
ATOM     13  C   UNL     1      47.618   4.381  16.036  0.00  0.00    +0.000 C 
BRANCH  13  15
ATOM     14  C   UNL     1      49.084   6.312  16.769  0.00  0.00    +0.000 C 
ATOM     15  C   UNL     1      48.571   4.906  17.147  0.00  0.00    +0.000 C 
ATOM     16  C   UNL     1      47.701   5.060  18.424  0.00  0.00    +0.000 C 
BRANCH  15  17
ATOM     17  C   UNL     1      49.766   3.953  17.353  0.00  0.00    +0.000 A 
ATOM     18  C   UNL     1      49.665   2.569  17.127  0.00  0.00    +0.000 A 
ATOM     19  C   UNL     1      50.758   1.719  17.311  0.00  0.00    +0.000 A 
ATOM     20  C   UNL     1      51.980   2.237  17.719  0.00  0.00    +0.000 A 
ATOM     21 CL   UNL     1      53.325   1.188  17.937  0.00  0.00    +0.000 Cl
ATOM     22  C   UNL     1      52.116   3.598  17.954  0.00  0.00    +0.000 A 
ATOM     23  C   UNL     1      51.016   4.444  17.785  0.00  0.00    +0.000 A 
ENDBRANCH  15  17
ENDBRANCH  13  15
ENDBRANCH   1  13
TORSDOF 5
ENDMDL
MODEL 6
REMARK VINA RESULT:    -5.344      4.605      6.882
REMARK INTER + INTRA:          -7.664
REMARK INTER:                  -7.138
REMARK INTRA:                  -0.526
REMARK UNBOUND:                -0.757
REMARK  Name = 
REMARK  7 active torsions:
REMARK  status: ('A' for Active; 'I' for Inactive)
REMARK    1  A    between atoms: C_1  and  C_2
REMARK    2  A    between atoms: C_2  and  C_3
REMARK    3  A    between atoms: C_2  and  C_4
REMARK    4  A    between atoms: C_2  and  C_15
REMARK    5  A    between atoms: C_4  and  O_5
REMARK    6  A    between atoms: O_5  and  C_6
REMARK    7  A    between atoms: C_9  and  C_10
REMARK                            x       y       z     vdW  Elec       q    Type
REMARK                         _______ _______ _______ _____ _____    ______ ____
ROOT
ATOM      1  O   UNL     1      48.313   5.719  14.213  0.00  0.00    +0.000 OA
ENDROOT
BRANCH   1   2
ATOM      2  C   UNL     1      47.186   5.188  13.672  0.00  0.00    +0.000 A 
ATOM      3  C   UNL     1      46.863   3.849  13.637  0.00  0.00    +0.000 A 
ATOM      4  N   UNL     1      45.731   3.354  13.102  0.00  0.00    +0.000 NA
ATOM      5  C   UNL     1      44.880   4.277  12.601  0.00  0.00    +0.000 A 
ATOM      6  N   UNL     1      45.067   5.615  12.605  0.00  0.00    +0.000 NA
ATOM      7  C   UNL     1      46.225   6.035  13.155  0.00  0.00    +0.000 A 
BRANCH   5   8
ATOM      8  C   UNL     1      43.621   3.735  11.972  0.00  0.00    +0.000 C 
ATOM      9  N   UNL     1      43.497   2.363  11.980  0.00  0.00    +0.000 N 
ATOM     10  O   UNL     1      42.748   4.433  11.469  0.00  0.00    +0.000 OA
ATOM     11  H   UNL     1      44.224   1.793  12.381  0.00  0.00    +0.000 HD
ATOM     12  H   UNL     1      42.688   1.945  11.550  0.00  0.00    +0.000 HD
ENDBRANCH   5   8
ENDBRANCH   1   2
BRANCH   1  13
ATOM     13  C   UNL     1      48.336   5.751  15.646  0.00  0.00    +0.000 C 
BRANCH  13  15
ATOM     14  C   UNL     1      50.557   6.200  16.779  0.00  0.00    +0.000 C 
ATOM     15  C   UNL     1      49.290   6.855  16.187  0.00  0.00    +0.000 C 
ATOM     16  C   UNL     1      49.734   7.684  14.952  0.00  0.00    +0.000 C 
BRANCH  15  17
ATOM     17  C   UNL     1      48.596   7.714  17.263  0.00  0.00    +0.000 A 
ATOM     18  C   UNL     1      48.139   7.167  18.475  0.00  0.00    +0.000 A 
ATOM     19  C   UNL     1      47.517   7.960  19.443  0.00  0.00    +0.000 A 
ATOM     20  C   UNL     1      47.345   9.320  19.222  0.00  0.00    +0.000 A 
ATOM     21 CL   UNL     1      46.587  10.293  20.420  0.00  0.00    +0.000 Cl
ATOM     22  C   UNL     1      47.782   9.893  18.037  0.00  0.00    +0.000 A 
ATOM     23  C   UNL     1      48.389   9.095  17.062  0.00  0.00    +0.000 A 
ENDBRANCH  15  17
ENDBRANCH  13  15
ENDBRANCH   1  13
TORSDOF 5
ENDMDL
MODEL 7
REMARK VINA RESULT:    -5.278      3.694      5.893
REMARK INTER + INTRA:          -7.578
REMARK INTER:                  -7.046
REMARK INTRA:                  -0.532
REMARK UNBOUND:                -0.757
REMARK  Name = 
REMARK  7 active torsions:
REMARK  status: ('A' for Active; 'I' for Inactive)
REMARK    1  A    between atoms: C_1  and  C_2
REMARK    2  A    between atoms: C_2  and  C_3
REMARK    3  A    between atoms: C_2  and  C_4
REMARK    4  A    between atoms: C_2  and  C_15
REMARK    5  A    between atoms: C_4  and  O_5
REMARK    6  A    between atoms: O_5  and  C_6
REMARK    7  A    between atoms: C_9  and  C_10
REMARK                            x       y       z     vdW  Elec       q    Type
REMARK                         _______ _______ _______ _____ _____    ______ ____
ROOT
ATOM      1  O   UNL     1      47.374   6.582  13.465  0.00  0.00    +0.000 OA
ENDROOT
BRANCH   1   2
ATOM      2  C   UNL     1      46.570   5.623  12.937  0.00  0.00    +0.000 A 
ATOM      3  C   UNL     1      46.280   4.407  13.516  0.00  0.00    +0.000 A 
ATOM      4  N   UNL     1      45.470   3.480  12.970  0.00  0.00    +0.000 NA
ATOM      5  C   UNL     1      44.914   3.826  11.788  0.00  0.00    +0.000 A 
ATOM      6  N   UNL     1      45.094   4.997  11.137  0.00  0.00    +0.000 NA
ATOM      7  C   UNL     1      45.921   5.873  11.744  0.00  0.00    +0.000 A 
BRANCH   5   8
ATOM      8  C   UNL     1      44.028   2.785  11.150  0.00  0.00    +0.000 C 
ATOM      9  N   UNL     1      44.500   2.243   9.975  0.00  0.00    +0.000 N 
ATOM     10  O   UNL     1      42.950   2.425  11.610  0.00  0.00    +0.000 OA
ATOM     11  H   UNL     1      45.379   2.553   9.594  0.00  0.00    +0.000 HD
ATOM     12  H   UNL     1      43.937   1.561   9.493  0.00  0.00    +0.000 HD
ENDBRANCH   5   8
ENDBRANCH   1   2
BRANCH   1  13
ATOM     13  C   UNL     1      48.692   6.639  12.904  0.00  0.00    +0.000 C 
BRANCH  13  15
ATOM     14  C   UNL     1      48.266   8.894  11.829  0.00  0.00    +0.000 C 
ATOM     15  C   UNL     1      49.203   8.102  12.767  0.00  0.00    +0.000 C 
ATOM     16  C   UNL     1      49.081   8.734  14.180  0.00  0.00    +0.000 C 
BRANCH  15  17
ATOM     17  C   UNL     1      50.644   8.141  12.220  0.00  0.00    +0.000 A 
ATOM     18  C   UNL     1      51.719   8.628  12.984  0.00  0.00    +0.000 A 
ATOM     19  C   UNL     1      53.021   8.651  12.476  0.00  0.00    +0.000 A 
ATOM     20  C   UNL     1      53.277   8.181  11.195  0.00  0.00    +0.000 A 
ATOM     21 CL   UNL     1      54.881   8.203  10.578  0.00  0.00    +0.000 Cl
ATOM     22  C   UNL     1      52.239   7.695  10.412  0.00  0.00    +0.000 A 
ATOM     23  C   UNL     1      50.934   7.688  10.916  0.00  0.00    +0.000 A 
ENDBRANCH  15  17
ENDBRANCH  13  15
ENDBRANCH   1  13
TORSDOF 5
ENDMDL
