MODEL 1
REMARK VINA RESULT:    -8.226      0.000      0.000
REMARK INTER + INTRA:         -13.561
REMARK INTER:                 -11.593
REMARK INTRA:                  -1.969
REMARK UNBOUND:                -1.969
REMARK  Name = 
REMARK  9 active torsions:
REMARK  status: ('A' for Active; 'I' for Inactive)
REMARK    1  A    between atoms: C_1  and  C_2
REMARK    2  A    between atoms: C_2  and  C_3
REMARK    3  A    between atoms: C_2  and  C_14
REMARK    4  A    between atoms: C_3  and  N_4
REMARK    5  A    between atoms: N_4  and  C_5
REMARK    6  A    between atoms: C_8  and  C_9
REMARK    7  A    between atoms: C_18  and  C_19
REMARK    8  A    between atoms: C_19  and  C_20
REMARK    9  A    between atoms: C_24  and  C_25
REMARK                            x       y       z     vdW  Elec       q    Type
REMARK                         _______ _______ _______ _____ _____    ______ ____
ROOT
ATOM      1  C   UNL     1      43.421   7.122  11.362  0.00  0.00    +0.000 C 
ATOM      2  C   UNL     1      43.561   5.747  12.027  0.00  0.00    +0.000 C 
ENDROOT
BRANCH   2   3
ATOM      3  C   UNL     1      44.941   5.634  12.667  0.00  0.00    +0.000 A 
ATOM      4  C   UNL     1      45.477   4.387  12.990  0.00  0.00    +0.000 A 
ATOM      5  C   UNL     1      46.742   4.299  13.572  0.00  0.00    +0.000 A 
ATOM      6  C   UNL     1      47.487   5.454  13.824  0.00  0.00    +0.000 A 
ATOM      7  C   UNL     1      46.987   6.728  13.504  0.00  0.00    +0.000 A 
ATOM      8  C   UNL     1      45.703   6.788  12.930  0.00  0.00    +0.000 A 
BRANCH   7   9
ATOM      9  C   UNL     1      47.862   7.992  13.606  0.00  0.00    +0.000 C 
ATOM     10  C   UNL     1      47.181   9.274  13.088  0.00  0.00    +0.000 C 
ATOM     11  C   UNL     1      48.224   8.165  15.082  0.00  0.00    +0.000 C 
ATOM     12  C   UNL     1      49.548   8.045  15.262  0.00  0.00    +0.000 C 
ATOM     13  C   UNL     1      50.187   7.875  13.984  0.00  0.00    +0.000 C 
ATOM     14  C   UNL     1      49.256   7.860  13.010  0.00  0.00    +0.000 C 
BRANCH  14  15
ATOM     15  C   UNL     1      49.517   7.811  11.555  0.00  0.00    +0.000 C 
ATOM     16  F   UNL     1      48.482   7.319  10.832  0.00  0.00    +0.000 F 
ATOM     17  F   UNL     1      49.777   9.051  11.063  0.00  0.00    +0.000 F 
ATOM     18  F   UNL     1      50.599   7.045  11.265  0.00  0.00    +0.000 F 
ENDBRANCH  14  15
ENDBRANCH   7   9
ENDBRANCH   2   3
BRANCH   2  19
ATOM     19  C   UNL     1      43.316   4.565  11.054  0.00  0.00    +0.000 C 
BRANCH  19  20
ATOM     20  N   UNL     1      43.758   4.879   9.690  0.00  0.00    +0.000 N 
ATOM     21  H   UNL     1      44.157   5.813   9.621  0.00  0.00    +0.000 HD
BRANCH  20  22
ATOM     22  C   UNL     1      44.558   3.952   9.005  0.00  0.00    +0.000 A 
ATOM     23  C   UNL     1      45.522   4.305   8.058  0.00  0.00    +0.000 A 
ATOM     24  C   UNL     1      46.365   3.337   7.506  0.00  0.00    +0.000 A 
ATOM     25  C   UNL     1      46.235   2.026   7.936  0.00  0.00    +0.000 A 
ATOM     26  N   UNL     1      45.325   1.624   8.864  0.00  0.00    +0.000 NA
ATOM     27  C   UNL     1      44.536   2.600   9.376  0.00  0.00    +0.000 A 
BRANCH  25  28
ATOM     28  C   UNL     1      47.156   0.976   7.407  0.00  0.00    +0.000 C 
ATOM     29  N   UNL     1      46.787  -0.317   7.678  0.00  0.00    +0.000 N 
ATOM     30  O   UNL     1      48.180   1.235   6.788  0.00  0.00    +0.000 OA
ATOM     31  H   UNL     1      45.952  -0.488   8.226  0.00  0.00    +0.000 HD
ATOM     32  H   UNL     1      47.386  -1.076   7.397  0.00  0.00    +0.000 HD
ENDBRANCH  25  28
ENDBRANCH  20  22
ENDBRANCH  19  20
ENDBRANCH   2  19
TORSDOF 7
ENDMDL
MODEL 2
REMARK VINA RESULT:    -8.055      1.744      2.694
REMARK INTER + INTRA:         -13.320
REMARK INTER:                 -11.586
REMARK INTRA:                  -1.734
REMARK UNBOUND:                -1.969
REMARK  Name = 
REMARK  9 active torsions:
REMARK  status: ('A' for Active; 'I' for Inactive)
REMARK    1  A    between atoms: C_1  and  C_2
REMARK    2  A    between atoms: C_2  and  C_3
REMARK    3  A    between atoms: C_2  and  C_14
REMARK    4  A    between atoms: C_3  and  N_4
REMARK    5  A    between atoms: N_4  and  C_5
REMARK    6  A    between atoms: C_8  and  C_9
REMARK    7  A    between atoms: C_18  and  C_19
REMARK    8  A    between atoms: C_19  and  C_20
REMARK    9  A    between atoms: C_24  and  C_25
REMARK                            x       y       z     vdW  Elec       q    Type
REMARK                         _______ _______ _______ _____ _____    ______ ____
ROOT
ATOM      1  C   UNL     1      45.778   4.212  13.080  0.00  0.00    +0.000 C 
ATOM      2  C   UNL     1      45.459   4.994  11.799  0.00  0.00    +0.000 C 
ENDROOT
BRANCH   2   3
ATOM      3  C   UNL     1      45.833   6.459  11.997  0.00  0.00    +0.000 A 
ATOM      4  C   UNL     1      44.857   7.410  12.301  0.00  0.00    +0.000 A 
ATOM      5  C   UNL     1      45.215   8.746  12.482  0.00  0.00    +0.000 A 
ATOM      6  C   UNL     1      46.551   9.143  12.373  0.00  0.00    +0.000 A 
ATOM      7  C   UNL     1      47.564   8.214  12.078  0.00  0.00    +0.000 A 
ATOM      8  C   UNL     1      47.173   6.876  11.888  0.00  0.00    +0.000 A 
BRANCH   7   9
ATOM      9  C   UNL     1      49.055   8.598  12.133  0.00  0.00    +0.000 C 
ATOM     10  C   UNL     1      50.002   7.535  11.543  0.00  0.00    +0.000 C 
ATOM     11  C   UNL     1      49.208   9.906  11.356  0.00  0.00    +0.000 C 
ATOM     12  C   UNL     1      49.611  10.896  12.168  0.00  0.00    +0.000 C 
ATOM     13  C   UNL     1      49.842  10.363  13.485  0.00  0.00    +0.000 C 
ATOM     14  C   UNL     1      49.555   9.047  13.499  0.00  0.00    +0.000 C 
BRANCH  14  15
ATOM     15  C   UNL     1      49.763   8.120  14.633  0.00  0.00    +0.000 C 
ATOM     16  F   UNL     1      50.959   7.485  14.606  0.00  0.00    +0.000 F 
ATOM     17  F   UNL     1      49.701   8.779  15.820  0.00  0.00    +0.000 F 
ATOM     18  F   UNL     1      48.807   7.158  14.675  0.00  0.00    +0.000 F 
ENDBRANCH  14  15
ENDBRANCH   7   9
ENDBRANCH   2   3
BRANCH   2  19
ATOM     19  C   UNL     1      43.979   4.868  11.354  0.00  0.00    +0.000 C 
BRANCH  19  20
ATOM     20  N   UNL     1      43.847   4.870   9.893  0.00  0.00    +0.000 N 
ATOM     21  H   UNL     1      43.907   5.808   9.502  0.00  0.00    +0.000 HD
BRANCH  20  22
ATOM     22  C   UNL     1      44.620   3.974   9.140  0.00  0.00    +0.000 A 
ATOM     23  C   UNL     1      45.603   4.368   8.229  0.00  0.00    +0.000 A 
ATOM     24  C   UNL     1      46.417   3.419   7.605  0.00  0.00    +0.000 A 
ATOM     25  C   UNL     1      46.238   2.083   7.928  0.00  0.00    +0.000 A 
ATOM     26  N   UNL     1      45.308   1.639   8.815  0.00  0.00    +0.000 NA
ATOM     27  C   UNL     1      44.548   2.597   9.399  0.00  0.00    +0.000 A 
BRANCH  25  28
ATOM     28  C   UNL     1      47.127   1.047   7.321  0.00  0.00    +0.000 C 
ATOM     29  N   UNL     1      46.839  -0.248   7.666  0.00  0.00    +0.000 N 
ATOM     30  O   UNL     1      48.062   1.321   6.578  0.00  0.00    +0.000 OA
ATOM     31  H   UNL     1      46.080  -0.430   8.313  0.00  0.00    +0.000 HD
ATOM     32  H   UNL     1      47.427  -0.996   7.336  0.00  0.00    +0.000 HD
ENDBRANCH  25  28
ENDBRANCH  20  22
ENDBRANCH  19  20
ENDBRANCH   2  19
TORSDOF 7
ENDMDL
MODEL 3
REMARK VINA RESULT:    -7.824      1.584      2.211
REMARK INTER + INTRA:         -12.995
REMARK INTER:                 -11.541
REMARK INTRA:                  -1.454
REMARK UNBOUND:                -1.969
REMARK  Name = 
REMARK  9 active torsions:
REMARK  status: ('A' for Active; 'I' for Inactive)
REMARK    1  A    between atoms: C_1  and  C_2
REMARK    2  A    between atoms: C_2  and  C_3
REMARK    3  A    between atoms: C_2  and  C_14
REMARK    4  A    between atoms: C_3  and  N_4
REMARK    5  A    between atoms: N_4  and  C_5
REMARK    6  A    between atoms: C_8  and  C_9
REMARK    7  A    between atoms: C_18  and  C_19
REMARK    8  A    between atoms: C_19  and  C_20
REMARK    9  A    between atoms: C_24  and  C_25
REMARK                            x       y       z     vdW  Elec       q    Type
REMARK                         _______ _______ _______ _____ _____    ______ ____
ROOT
ATOM      1  C   UNL     1      43.429   4.058  13.028  0.00  0.00    +0.000 C 
ATOM      2  C   UNL     1      44.695   4.385  12.225  0.00  0.00    +0.000 C 
ENDROOT
BRANCH   2   3
ATOM      3  C   UNL     1      45.797   4.830  13.181  0.00  0.00    +0.000 A 
ATOM      4  C   UNL     1      46.264   3.973  14.179  0.00  0.00    +0.000 A 
ATOM      5  C   UNL     1      47.275   4.394  15.044  0.00  0.00    +0.000 A 
ATOM      6  C   UNL     1      47.837   5.666  14.912  0.00  0.00    +0.000 A 
ATOM      7  C   UNL     1      47.401   6.555  13.914  0.00  0.00    +0.000 A 
ATOM      8  C   UNL     1      46.371   6.110  13.063  0.00  0.00    +0.000 A 
BRANCH   7   9
ATOM      9  C   UNL     1      48.128   7.884  13.639  0.00  0.00    +0.000 C 
ATOM     10  C   UNL     1      48.171   8.842  14.845  0.00  0.00    +0.000 C 
ATOM     11  C   UNL     1      49.555   7.533  13.214  0.00  0.00    +0.000 C 
ATOM     12  C   UNL     1      49.782   7.918  11.949  0.00  0.00    +0.000 C 
ATOM     13  C   UNL     1      48.623   8.608  11.449  0.00  0.00    +0.000 C 
ATOM     14  C   UNL     1      47.664   8.628  12.394  0.00  0.00    +0.000 C 
BRANCH  14  15
ATOM     15  C   UNL     1      46.366   9.333  12.306  0.00  0.00    +0.000 C 
ATOM     16  F   UNL     1      46.480  10.656  12.041  0.00  0.00    +0.000 F 
ATOM     17  F   UNL     1      45.590   8.807  11.322  0.00  0.00    +0.000 F 
ATOM     18  F   UNL     1      45.656   9.221  13.458  0.00  0.00    +0.000 F 
ENDBRANCH  14  15
ENDBRANCH   7   9
ENDBRANCH   2   3
BRANCH   2  19
ATOM     19  C   UNL     1      44.467   5.454  11.125  0.00  0.00    +0.000 C 
BRANCH  19  20
ATOM     20  N   UNL     1      43.876   4.874   9.914  0.00  0.00    +0.000 N 
ATOM     21  H   UNL     1      43.457   5.581   9.314  0.00  0.00    +0.000 HD
BRANCH  20  22
ATOM     22  C   UNL     1      44.634   3.972   9.153  0.00  0.00    +0.000 A 
ATOM     23  C   UNL     1      45.641   4.357   8.264  0.00  0.00    +0.000 A 
ATOM     24  C   UNL     1      46.437   3.398   7.632  0.00  0.00    +0.000 A 
ATOM     25  C   UNL     1      46.216   2.062   7.925  0.00  0.00    +0.000 A 
ATOM     26  N   UNL     1      45.262   1.626   8.790  0.00  0.00    +0.000 NA
ATOM     27  C   UNL     1      44.521   2.593   9.384  0.00  0.00    +0.000 A 
BRANCH  25  28
ATOM     28  C   UNL     1      47.085   1.014   7.308  0.00  0.00    +0.000 C 
ATOM     29  N   UNL     1      46.800  -0.275   7.678  0.00  0.00    +0.000 N 
ATOM     30  O   UNL     1      48.001   1.273   6.538  0.00  0.00    +0.000 OA
ATOM     31  H   UNL     1      46.058  -0.445   8.348  0.00  0.00    +0.000 HD
ATOM     32  H   UNL     1      47.376  -1.031   7.343  0.00  0.00    +0.000 HD
ENDBRANCH  25  28
ENDBRANCH  20  22
ENDBRANCH  19  20
ENDBRANCH   2  19
TORSDOF 7
ENDMDL
MODEL 4
REMARK VINA RESULT:    -7.522      1.386      2.328
REMARK INTER + INTRA:         -12.568
REMARK INTER:                 -11.102
REMARK INTRA:                  -1.467
REMARK UNBOUND:                -1.969
REMARK  Name = 
REMARK  9 active torsions:
REMARK  status: ('A' for Active; 'I' for Inactive)
REMARK    1  A    between atoms: C_1  and  C_2
REMARK    2  A    between atoms: C_2  and  C_3
REMARK    3  A    between atoms: C_2  and  C_14
REMARK    4  A    between atoms: C_3  and  N_4
REMARK    5  A    between atoms: N_4  and  C_5
REMARK    6  A    between atoms: C_8  and  C_9
REMARK    7  A    between atoms: C_18  and  C_19
REMARK    8  A    between atoms: C_19  and  C_20
REMARK    9  A    between atoms: C_24  and  C_25
REMARK                            x       y       z     vdW  Elec       q    Type
REMARK                         _______ _______ _______ _____ _____    ______ ____
ROOT
ATOM      1  C   UNL     1      45.809   4.474  13.184  0.00  0.00    +0.000 C 
ATOM      2  C   UNL     1      45.394   5.109  11.850  0.00  0.00    +0.000 C 
ENDROOT
BRANCH   2   3
ATOM      3  C   UNL     1      45.594   6.618  11.927  0.00  0.00    +0.000 A 
ATOM      4  C   UNL     1      44.586   7.494  11.519  0.00  0.00    +0.000 A 
ATOM      5  C   UNL     1      44.783   8.872  11.598  0.00  0.00    +0.000 A 
ATOM      6  C   UNL     1      45.982   9.389  12.096  0.00  0.00    +0.000 A 
ATOM      7  C   UNL     1      47.018   8.542  12.525  0.00  0.00    +0.000 A 
ATOM      8  C   UNL     1      46.797   7.155  12.423  0.00  0.00    +0.000 A 
BRANCH   7   9
ATOM      9  C   UNL     1      48.267   9.088  13.242  0.00  0.00    +0.000 C 
ATOM     10  C   UNL     1      48.507  10.595  13.030  0.00  0.00    +0.000 C 
ATOM     11  C   UNL     1      48.085   8.804  14.734  0.00  0.00    +0.000 C 
ATOM     12  C   UNL     1      49.025   7.954  15.173  0.00  0.00    +0.000 C 
ATOM     13  C   UNL     1      49.939   7.663  14.101  0.00  0.00    +0.000 C 
ATOM     14  C   UNL     1      49.550   8.310  12.985  0.00  0.00    +0.000 C 
BRANCH  14  15
ATOM     15  C   UNL     1      50.282   8.353  11.700  0.00  0.00    +0.000 C 
ATOM     16  F   UNL     1      50.373   9.594  11.166  0.00  0.00    +0.000 F 
ATOM     17  F   UNL     1      51.555   7.900  11.847  0.00  0.00    +0.000 F 
ATOM     18  F   UNL     1      49.697   7.563  10.764  0.00  0.00    +0.000 F 
ENDBRANCH  14  15
ENDBRANCH   7   9
ENDBRANCH   2   3
BRANCH   2  19
ATOM     19  C   UNL     1      43.937   4.776  11.437  0.00  0.00    +0.000 C 
BRANCH  19  20
ATOM     20  N   UNL     1      43.794   4.665   9.981  0.00  0.00    +0.000 N 
ATOM     21  H   UNL     1      43.559   5.556   9.548  0.00  0.00    +0.000 HD
BRANCH  20  22
ATOM     22  C   UNL     1      44.797   4.013   9.248  0.00  0.00    +0.000 A 
ATOM     23  C   UNL     1      44.939   2.625   9.186  0.00  0.00    +0.000 A 
ATOM     24  C   UNL     1      45.886   2.044   8.339  0.00  0.00    +0.000 A 
ATOM     25  C   UNL     1      46.663   2.876   7.549  0.00  0.00    +0.000 A 
ATOM     26  N   UNL     1      46.562   4.232   7.555  0.00  0.00    +0.000 NA
ATOM     27  C   UNL     1      45.625   4.748   8.387  0.00  0.00    +0.000 A 
BRANCH  25  28
ATOM     28  C   UNL     1      47.647   2.286   6.593  0.00  0.00    +0.000 C 
ATOM     29  N   UNL     1      47.745   2.924   5.384  0.00  0.00    +0.000 N 
ATOM     30  O   UNL     1      48.315   1.292   6.850  0.00  0.00    +0.000 OA
ATOM     31  H   UNL     1      47.147   3.721   5.196  0.00  0.00    +0.000 HD
ATOM     32  H   UNL     1      48.350   2.553   4.669  0.00  0.00    +0.000 HD
ENDBRANCH  25  28
ENDBRANCH  20  22
ENDBRANCH  19  20
ENDBRANCH   2  19
TORSDOF 7
ENDMDL
MODEL 5
REMARK VINA RESULT:    -7.168      3.098      4.152
REMARK INTER + INTRA:         -12.070
REMARK INTER:                 -10.808
REMARK INTRA:                  -1.262
REMARK UNBOUND:                -1.969
REMARK  Name = 
REMARK  9 active torsions:
REMARK  status: ('A' for Active; 'I' for Inactive)
REMARK    1  A    between atoms: C_1  and  C_2
REMARK    2  A    between atoms: C_2  and  C_3
REMARK    3  A    between atoms: C_2  and  C_14
REMARK    4  A    between atoms: C_3  and  N_4
REMARK    5  A    between atoms: N_4  and  C_5
REMARK    6  A    between atoms: C_8  and  C_9
REMARK    7  A    between atoms: C_18  and  C_19
REMARK    8  A    between atoms: C_19  and  C_20
REMARK    9  A    between atoms: C_24  and  C_25
REMARK                            x       y       z     vdW  Elec       q    Type
REMARK                         _______ _______ _______ _____ _____    ______ ____
ROOT
ATOM      1  C   UNL     1      45.425   3.274  12.965  0.00  0.00    +0.000 C 
ATOM      2  C   UNL     1      45.975   4.520  12.259  0.00  0.00    +0.000 C 
ENDROOT
BRANCH   2   3
ATOM      3  C   UNL     1      46.847   5.307  13.231  0.00  0.00    +0.000 A 
ATOM      4  C   UNL     1      47.376   6.548  12.871  0.00  0.00    +0.000 A 
ATOM      5  C   UNL     1      48.169   7.257  13.772  0.00  0.00    +0.000 A 
ATOM      6  C   UNL     1      48.432   6.741  15.044  0.00  0.00    +0.000 A 
ATOM      7  C   UNL     1      47.910   5.500  15.448  0.00  0.00    +0.000 A 
ATOM      8  C   UNL     1      47.123   4.800  14.514  0.00  0.00    +0.000 A 
BRANCH   7   9
ATOM      9  C   UNL     1      48.036   5.002  16.900  0.00  0.00    +0.000 C 
ATOM     10  C   UNL     1      47.788   6.089  17.964  0.00  0.00    +0.000 C 
ATOM     11  C   UNL     1      47.019   3.874  17.075  0.00  0.00    +0.000 C 
ATOM     12  C   UNL     1      47.638   2.711  17.328  0.00  0.00    +0.000 C 
ATOM     13  C   UNL     1      49.055   2.941  17.430  0.00  0.00    +0.000 C 
ATOM     14  C   UNL     1      49.319   4.244  17.213  0.00  0.00    +0.000 C 
BRANCH  14  15
ATOM     15  C   UNL     1      50.640   4.899  17.334  0.00  0.00    +0.000 C 
ATOM     16  F   UNL     1      50.841   5.892  16.435  0.00  0.00    +0.000 F 
ATOM     17  F   UNL     1      50.800   5.453  18.565  0.00  0.00    +0.000 F 
ATOM     18  F   UNL     1      51.655   4.012  17.175  0.00  0.00    +0.000 F 
ENDBRANCH  14  15
ENDBRANCH   7   9
ENDBRANCH   2   3
BRANCH   2  19
ATOM     19  C   UNL     1      44.868   5.429  11.665  0.00  0.00    +0.000 C 
BRANCH  19  20
ATOM     20  N   UNL     1      44.210   4.806  10.510  0.00  0.00    +0.000 N 
ATOM     21  H   UNL     1      43.597   5.455  10.021  0.00  0.00    +0.000 HD
BRANCH  20  22
ATOM     22  C   UNL     1      44.988   4.081   9.596  0.00  0.00    +0.000 A 
ATOM     23  C   UNL     1      44.948   2.691   9.470  0.00  0.00    +0.000 A 
ATOM     24  C   UNL     1      45.661   2.048   8.454  0.00  0.00    +0.000 A 
ATOM     25  C   UNL     1      46.389   2.824   7.566  0.00  0.00    +0.000 A 
ATOM     26  N   UNL     1      46.455   4.181   7.629  0.00  0.00    +0.000 NA
ATOM     27  C   UNL     1      45.742   4.759   8.626  0.00  0.00    +0.000 A 
BRANCH  25  28
ATOM     28  C   UNL     1      47.118   2.173   6.436  0.00  0.00    +0.000 C 
ATOM     29  N   UNL     1      47.283   2.951   5.320  0.00  0.00    +0.000 N 
ATOM     30  O   UNL     1      47.530   1.020   6.482  0.00  0.00    +0.000 OA
ATOM     31  H   UNL     1      46.894   3.887   5.307  0.00  0.00    +0.000 HD
ATOM     32  H   UNL     1      47.721   2.563   4.500  0.00  0.00    +0.000 HD
ENDBRANCH  25  28
ENDBRANCH  20  22
ENDBRANCH  19  20
ENDBRANCH   2  19
TORSDOF 7
ENDMDL
MODEL 6
REMARK VINA RESULT:    -6.885      4.697      7.860
REMARK INTER + INTRA:         -11.672
REMARK INTER:                  -9.870
REMARK INTRA:                  -1.801
REMARK UNBOUND:                -1.969
REMARK  Name = 
REMARK  9 active torsions:
REMARK  status: ('A' for Active; 'I' for Inactive)
REMARK    1  A    between atoms: C_1  and  C_2
REMARK    2  A    between atoms: C_2  and  C_3
REMARK    3  A    between atoms: C_2  and  C_14
REMARK    4  A    between atoms: C_3  and  N_4
REMARK    5  A    between atoms: N_4  and  C_5
REMARK    6  A    between atoms: C_8  and  C_9
REMARK    7  A    between atoms: C_18  and  C_19
REMARK    8  A    between atoms: C_19  and  C_20
REMARK    9  A    between atoms: C_24  and  C_25
REMARK                            x       y       z     vdW  Elec       q    Type
REMARK                         _______ _______ _______ _____ _____    ______ ____
ROOT
ATOM      1  C   UNL     1      50.208   7.811  11.336  0.00  0.00    +0.000 C 
ATOM      2  C   UNL     1      49.514   7.358  12.627  0.00  0.00    +0.000 C 
ENDROOT
BRANCH   2   3
ATOM      3  C   UNL     1      48.003   7.440  12.442  0.00  0.00    +0.000 A 
ATOM      4  C   UNL     1      47.379   8.665  12.198  0.00  0.00    +0.000 A 
ATOM      5  C   UNL     1      45.996   8.723  12.028  0.00  0.00    +0.000 A 
ATOM      6  C   UNL     1      45.225   7.559  12.088  0.00  0.00    +0.000 A 
ATOM      7  C   UNL     1      45.816   6.305  12.322  0.00  0.00    +0.000 A 
ATOM      8  C   UNL     1      47.212   6.277  12.503  0.00  0.00    +0.000 A 
BRANCH   7   9
ATOM      9  C   UNL     1      45.011   4.996  12.211  0.00  0.00    +0.000 C 
ATOM     10  C   UNL     1      45.801   3.735  12.608  0.00  0.00    +0.000 C 
ATOM     11  C   UNL     1      43.792   5.144  13.122  0.00  0.00    +0.000 C 
ATOM     12  C   UNL     1      42.658   5.118  12.405  0.00  0.00    +0.000 C 
ATOM     13  C   UNL     1      42.977   4.877  11.024  0.00  0.00    +0.000 C 
ATOM     14  C   UNL     1      44.312   4.780  10.876  0.00  0.00    +0.000 C 
BRANCH  14  15
ATOM     15  C   UNL     1      45.030   4.431   9.630  0.00  0.00    +0.000 C 
ATOM     16  F   UNL     1      45.609   3.208   9.659  0.00  0.00    +0.000 F 
ATOM     17  F   UNL     1      44.189   4.437   8.563  0.00  0.00    +0.000 F 
ATOM     18  F   UNL     1      46.013   5.325   9.352  0.00  0.00    +0.000 F 
ENDBRANCH  14  15
ENDBRANCH   7   9
ENDBRANCH   2   3
BRANCH   2  19
ATOM     19  C   UNL     1      49.952   8.165  13.877  0.00  0.00    +0.000 C 
BRANCH  19  20
ATOM     20  N   UNL     1      50.791   7.366  14.777  0.00  0.00    +0.000 N 
ATOM     21  H   UNL     1      51.606   7.882  15.102  0.00  0.00    +0.000 HD
BRANCH  20  22
ATOM     22  C   UNL     1      50.185   6.686  15.843  0.00  0.00    +0.000 A 
ATOM     23  C   UNL     1      48.826   6.366  15.892  0.00  0.00    +0.000 A 
ATOM     24  C   UNL     1      48.316   5.580  16.929  0.00  0.00    +0.000 A 
ATOM     25  C   UNL     1      49.194   5.110  17.893  0.00  0.00    +0.000 A 
ATOM     26  N   UNL     1      50.528   5.376  17.892  0.00  0.00    +0.000 NA
ATOM     27  C   UNL     1      50.976   6.135  16.863  0.00  0.00    +0.000 A 
BRANCH  25  28
ATOM     28  C   UNL     1      48.692   4.223  18.984  0.00  0.00    +0.000 C 
ATOM     29  N   UNL     1      47.852   3.216  18.582  0.00  0.00    +0.000 N 
ATOM     30  O   UNL     1      48.987   4.380  20.163  0.00  0.00    +0.000 OA
ATOM     31  H   UNL     1      47.602   3.143  17.602  0.00  0.00    +0.000 HD
ATOM     32  H   UNL     1      47.434   2.610  19.269  0.00  0.00    +0.000 HD
ENDBRANCH  25  28
ENDBRANCH  20  22
ENDBRANCH  19  20
ENDBRANCH   2  19
TORSDOF 7
ENDMDL
MODEL 7
REMARK VINA RESULT:    -6.692      4.284      6.327
REMARK INTER + INTRA:         -11.399
REMARK INTER:                  -9.701
REMARK INTRA:                  -1.698
REMARK UNBOUND:                -1.969
REMARK  Name = 
REMARK  9 active torsions:
REMARK  status: ('A' for Active; 'I' for Inactive)
REMARK    1  A    between atoms: C_1  and  C_2
REMARK    2  A    between atoms: C_2  and  C_3
REMARK    3  A    between atoms: C_2  and  C_14
REMARK    4  A    between atoms: C_3  and  N_4
REMARK    5  A    between atoms: N_4  and  C_5
REMARK    6  A    between atoms: C_8  and  C_9
REMARK    7  A    between atoms: C_18  and  C_19
REMARK    8  A    between atoms: C_19  and  C_20
REMARK    9  A    between atoms: C_24  and  C_25
REMARK                            x       y       z     vdW  Elec       q    Type
REMARK                         _______ _______ _______ _____ _____    ______ ____
ROOT
ATOM      1  C   UNL     1      48.598   9.574  15.450  0.00  0.00    +0.000 C 
ATOM      2  C   UNL     1      48.491   8.111  15.002  0.00  0.00    +0.000 C 
ENDROOT
BRANCH   2   3
ATOM      3  C   UNL     1      49.651   7.317  15.593  0.00  0.00    +0.000 A 
ATOM      4  C   UNL     1      50.972   7.713  15.372  0.00  0.00    +0.000 A 
ATOM      5  C   UNL     1      52.023   6.979  15.922  0.00  0.00    +0.000 A 
ATOM      6  C   UNL     1      51.765   5.852  16.706  0.00  0.00    +0.000 A 
ATOM      7  C   UNL     1      50.450   5.426  16.960  0.00  0.00    +0.000 A 
ATOM      8  C   UNL     1      49.409   6.178  16.383  0.00  0.00    +0.000 A 
BRANCH   7   9
ATOM      9  C   UNL     1      50.142   4.301  17.966  0.00  0.00    +0.000 C 
ATOM     10  C   UNL     1      50.785   2.946  17.613  0.00  0.00    +0.000 C 
ATOM     11  C   UNL     1      50.651   4.769  19.330  0.00  0.00    +0.000 C 
ATOM     12  C   UNL     1      49.634   4.909  20.194  0.00  0.00    +0.000 C 
ATOM     13  C   UNL     1      48.413   4.488  19.560  0.00  0.00    +0.000 C 
ATOM     14  C   UNL     1      48.666   4.112  18.291  0.00  0.00    +0.000 C 
BRANCH  14  15
ATOM     15  C   UNL     1      47.695   3.519  17.346  0.00  0.00    +0.000 C 
ATOM     16  F   UNL     1      47.038   2.444  17.843  0.00  0.00    +0.000 F 
ATOM     17  F   UNL     1      46.745   4.422  16.989  0.00  0.00    +0.000 F 
ATOM     18  F   UNL     1      48.297   3.116  16.198  0.00  0.00    +0.000 F 
ENDBRANCH  14  15
ENDBRANCH   7   9
ENDBRANCH   2   3
BRANCH   2  19
ATOM     19  C   UNL     1      48.447   7.941  13.461  0.00  0.00    +0.000 C 
BRANCH  19  20
ATOM     20  N   UNL     1      48.418   6.527  13.069  0.00  0.00    +0.000 N 
ATOM     21  H   UNL     1      48.968   5.942  13.694  0.00  0.00    +0.000 HD
BRANCH  20  22
ATOM     22  C   UNL     1      47.181   5.924  12.795  0.00  0.00    +0.000 A 
ATOM     23  C   UNL     1      46.447   6.148  11.628  0.00  0.00    +0.000 A 
ATOM     24  C   UNL     1      45.282   5.420  11.369  0.00  0.00    +0.000 A 
ATOM     25  C   UNL     1      44.888   4.459  12.285  0.00  0.00    +0.000 A 
ATOM     26  N   UNL     1      45.568   4.186  13.432  0.00  0.00    +0.000 NA
ATOM     27  C   UNL     1      46.694   4.913  13.635  0.00  0.00    +0.000 A 
BRANCH  25  28
ATOM     28  C   UNL     1      43.679   3.625  12.013  0.00  0.00    +0.000 C 
ATOM     29  N   UNL     1      43.706   2.363  12.546  0.00  0.00    +0.000 N 
ATOM     30  O   UNL     1      42.730   4.021  11.348  0.00  0.00    +0.000 OA
ATOM     31  H   UNL     1      44.526   2.059  13.059  0.00  0.00    +0.000 HD
ATOM     32  H   UNL     1      42.948   1.726  12.362  0.00  0.00    +0.000 HD
ENDBRANCH  25  28
ENDBRANCH  20  22
ENDBRANCH  19  20
ENDBRANCH   2  19
TORSDOF 7
ENDMDL
MODEL 8
REMARK VINA RESULT:    -6.582      2.354      2.903
REMARK INTER + INTRA:         -11.244
REMARK INTER:                 -10.196
REMARK INTRA:                  -1.048
REMARK UNBOUND:                -1.969
REMARK  Name = 
REMARK  9 active torsions:
REMARK  status: ('A' for Active; 'I' for Inactive)
REMARK    1  A    between atoms: C_1  and  C_2
REMARK    2  A    between atoms: C_2  and  C_3
REMARK    3  A    between atoms: C_2  and  C_14
REMARK    4  A    between atoms: C_3  and  N_4
REMARK    5  A    between atoms: N_4  and  C_5
REMARK    6  A    between atoms: C_8  and  C_9
REMARK    7  A    between atoms: C_18  and  C_19
REMARK    8  A    between atoms: C_19  and  C_20
REMARK    9  A    between atoms: C_24  and  C_25
REMARK                            x       y       z     vdW  Elec       q    Type
REMARK                         _______ _______ _______ _____ _____    ______ ____
ROOT
ATOM      1  C   UNL     1      45.475   6.829  10.968  0.00  0.00    +0.000 C 
ATOM      2  C   UNL     1      44.846   5.960  12.065  0.00  0.00    +0.000 C 
ENDROOT
BRANCH   2   3
ATOM      3  C   UNL     1      45.903   5.624  13.111  0.00  0.00    +0.000 A 
ATOM      4  C   UNL     1      46.056   4.316  13.576  0.00  0.00    +0.000 A 
ATOM      5  C   UNL     1      47.029   4.024  14.531  0.00  0.00    +0.000 A 
ATOM      6  C   UNL     1      47.866   5.030  15.021  0.00  0.00    +0.000 A 
ATOM      7  C   UNL     1      47.751   6.356  14.571  0.00  0.00    +0.000 A 
ATOM      8  C   UNL     1      46.751   6.626  13.617  0.00  0.00    +0.000 A 
BRANCH   7   9
ATOM      9  C   UNL     1      48.777   7.437  14.962  0.00  0.00    +0.000 C 
ATOM     10  C   UNL     1      50.085   7.388  14.149  0.00  0.00    +0.000 C 
ATOM     11  C   UNL     1      48.098   8.792  14.756  0.00  0.00    +0.000 C 
ATOM     12  C   UNL     1      47.970   9.440  15.924  0.00  0.00    +0.000 C 
ATOM     13  C   UNL     1      48.594   8.668  16.965  0.00  0.00    +0.000 C 
ATOM     14  C   UNL     1      49.086   7.525  16.450  0.00  0.00    +0.000 C 
BRANCH  14  15
ATOM     15  C   UNL     1      49.890   6.516  17.173  0.00  0.00    +0.000 C 
ATOM     16  F   UNL     1      49.146   5.602  17.840  0.00  0.00    +0.000 F 
ATOM     17  F   UNL     1      50.684   5.819  16.318  0.00  0.00    +0.000 F 
ATOM     18  F   UNL     1      50.715   7.092  18.084  0.00  0.00    +0.000 F 
ENDBRANCH  14  15
ENDBRANCH   7   9
ENDBRANCH   2   3
BRANCH   2  19
ATOM     19  C   UNL     1      44.189   4.665  11.522  0.00  0.00    +0.000 C 
BRANCH  19  20
ATOM     20  N   UNL     1      43.948   4.739  10.076  0.00  0.00    +0.000 N 
ATOM     21  H   UNL     1      43.910   5.699   9.741  0.00  0.00    +0.000 HD
BRANCH  20  22
ATOM     22  C   UNL     1      44.727   3.950   9.218  0.00  0.00    +0.000 A 
ATOM     23  C   UNL     1      45.600   4.470   8.259  0.00  0.00    +0.000 A 
ATOM     24  C   UNL     1      46.434   3.624   7.522  0.00  0.00    +0.000 A 
ATOM     25  C   UNL     1      46.388   2.264   7.782  0.00  0.00    +0.000 A 
ATOM     26  N   UNL     1      45.571   1.700   8.711  0.00  0.00    +0.000 NA
ATOM     27  C   UNL     1      44.786   2.560   9.404  0.00  0.00    +0.000 A 
BRANCH  25  28
ATOM     28  C   UNL     1      47.305   1.338   7.051  0.00  0.00    +0.000 C 
ATOM     29  N   UNL     1      48.436   1.918   6.537  0.00  0.00    +0.000 N 
ATOM     30  O   UNL     1      47.070   0.146   6.899  0.00  0.00    +0.000 OA
ATOM     31  H   UNL     1      48.577   2.916   6.652  0.00  0.00    +0.000 HD
ATOM     32  H   UNL     1      49.076   1.366   5.989  0.00  0.00    +0.000 HD
ENDBRANCH  25  28
ENDBRANCH  20  22
ENDBRANCH  19  20
ENDBRANCH   2  19
TORSDOF 7
ENDMDL
MODEL 9
REMARK VINA RESULT:    -6.578      4.096      6.401
REMARK INTER + INTRA:         -11.238
REMARK INTER:                  -9.131
REMARK INTRA:                  -2.108
REMARK UNBOUND:                -1.969
REMARK  Name = 
REMARK  9 active torsions:
REMARK  status: ('A' for Active; 'I' for Inactive)
REMARK    1  A    between atoms: C_1  and  C_2
REMARK    2  A    between atoms: C_2  and  C_3
REMARK    3  A    between atoms: C_2  and  C_14
REMARK    4  A    between atoms: C_3  and  N_4
REMARK    5  A    between atoms: N_4  and  C_5
REMARK    6  A    between atoms: C_8  and  C_9
REMARK    7  A    between atoms: C_18  and  C_19
REMARK    8  A    between atoms: C_19  and  C_20
REMARK    9  A    between atoms: C_24  and  C_25
REMARK                            x       y       z     vdW  Elec       q    Type
REMARK                         _______ _______ _______ _____ _____    ______ ____
ROOT
ATOM      1  C   UNL     1      50.517   7.762  14.635  0.00  0.00    +0.000 C 
ATOM      2  C   UNL     1      49.216   8.485  15.008  0.00  0.00    +0.000 C 
ENDROOT
BRANCH   2   3
ATOM      3  C   UNL     1      48.776   8.044  16.400  0.00  0.00    +0.000 A 
ATOM      4  C   UNL     1      48.240   8.964  17.303  0.00  0.00    +0.000 A 
ATOM      5  C   UNL     1      47.839   8.546  18.572  0.00  0.00    +0.000 A 
ATOM      6  C   UNL     1      47.957   7.205  18.946  0.00  0.00    +0.000 A 
ATOM      7  C   UNL     1      48.482   6.246  18.062  0.00  0.00    +0.000 A 
ATOM      8  C   UNL     1      48.891   6.698  16.793  0.00  0.00    +0.000 A 
BRANCH   7   9
ATOM      9  C   UNL     1      48.452   4.741  18.388  0.00  0.00    +0.000 C 
ATOM     10  C   UNL     1      48.637   4.415  19.882  0.00  0.00    +0.000 C 
ATOM     11  C   UNL     1      47.099   4.209  17.913  0.00  0.00    +0.000 C 
ATOM     12  C   UNL     1      47.261   3.311  16.928  0.00  0.00    +0.000 C 
ATOM     13  C   UNL     1      48.667   3.095  16.712  0.00  0.00    +0.000 C 
ATOM     14  C   UNL     1      49.380   3.879  17.543  0.00  0.00    +0.000 C 
BRANCH  14  15
ATOM     15  C   UNL     1      50.851   3.873  17.703  0.00  0.00    +0.000 C 
ATOM     16  F   UNL     1      51.486   4.801  16.948  0.00  0.00    +0.000 F 
ATOM     17  F   UNL     1      51.204   4.116  18.992  0.00  0.00    +0.000 F 
ATOM     18  F   UNL     1      51.385   2.668  17.377  0.00  0.00    +0.000 F 
ENDBRANCH  14  15
ENDBRANCH   7   9
ENDBRANCH   2   3
BRANCH   2  19
ATOM     19  C   UNL     1      48.074   8.264  13.983  0.00  0.00    +0.000 C 
BRANCH  19  20
ATOM     20  N   UNL     1      48.350   7.129  13.094  0.00  0.00    +0.000 N 
ATOM     21  H   UNL     1      49.219   6.656  13.332  0.00  0.00    +0.000 HD
BRANCH  20  22
ATOM     22  C   UNL     1      47.332   6.195  12.850  0.00  0.00    +0.000 A 
ATOM     23  C   UNL     1      46.903   5.250  13.785  0.00  0.00    +0.000 A 
ATOM     24  C   UNL     1      45.803   4.432  13.516  0.00  0.00    +0.000 A 
ATOM     25  C   UNL     1      45.138   4.596  12.312  0.00  0.00    +0.000 A 
ATOM     26  N   UNL     1      45.499   5.507  11.368  0.00  0.00    +0.000 NA
ATOM     27  C   UNL     1      46.567   6.281  11.678  0.00  0.00    +0.000 A 
BRANCH  25  28
ATOM     28  C   UNL     1      43.925   3.776  12.015  0.00  0.00    +0.000 C 
ATOM     29  N   UNL     1      43.922   2.517  12.558  0.00  0.00    +0.000 N 
ATOM     30  O   UNL     1      42.998   4.179  11.324  0.00  0.00    +0.000 OA
ATOM     31  H   UNL     1      44.725   2.207  13.093  0.00  0.00    +0.000 HD
ATOM     32  H   UNL     1      43.160   1.888  12.359  0.00  0.00    +0.000 HD
ENDBRANCH  25  28
ENDBRANCH  20  22
ENDBRANCH  19  20
ENDBRANCH   2  19
TORSDOF 7
ENDMDL
