MODEL 1
REMARK VINA RESULT:    -8.288      0.000      0.000
REMARK INTER + INTRA:         -12.385
REMARK INTER:                 -11.680
REMARK INTRA:                  -0.705
REMARK UNBOUND:                -0.705
REMARK  Name = 
REMARK  8 active torsions:
REMARK  status: ('A' for Active; 'I' for Inactive)
REMARK    1  A    between atoms: C_1  and  O_2
REMARK    2  A    between atoms: O_2  and  C_3
REMARK    3  A    between atoms: C_5  and  C_6
REMARK    4  A    between atoms: C_11  and  O_12
REMARK    5  A    between atoms: O_12  and  C_13
REMARK    6  A    between atoms: C_13  and  C_14
REMARK    7  A    between atoms: C_18  and  C_19
REMARK    8  A    between atoms: C_23  and  C_24
REMARK                            x       y       z     vdW  Elec       q    Type
REMARK                         _______ _______ _______ _____ _____    ______ ____
ROOT
ATOM      1  C   UNL     1      45.091   6.350  12.052  0.00  0.00    +0.000 A 
ATOM      2  C   UNL     1      45.272   7.662  11.607  0.00  0.00    +0.000 A 
ATOM      3  C   UNL     1      46.311   8.434  12.119  0.00  0.00    +0.000 A 
ATOM      4  C   UNL     1      47.169   7.908  13.089  0.00  0.00    +0.000 A 
ATOM      5  C   UNL     1      47.012   6.598  13.570  0.00  0.00    +0.000 A 
ATOM      6  C   UNL     1      45.973   5.827  13.015  0.00  0.00    +0.000 A 
ENDROOT
BRANCH   5   7
ATOM      7  C   UNL     1      47.842   6.066  14.671  0.00  0.00    +0.000 A 
ATOM      8  C   UNL     1      48.982   6.740  15.122  0.00  0.00    +0.000 A 
ATOM      9  N   UNL     1      49.764   6.344  16.157  0.00  0.00    +0.000 NA
ATOM     10  C   UNL     1      49.396   5.219  16.805  0.00  0.00    +0.000 A 
ATOM     11  C   UNL     1      48.288   4.464  16.460  0.00  0.00    +0.000 A 
ATOM     12  C   UNL     1      47.515   4.897  15.371  0.00  0.00    +0.000 A 
BRANCH  11  13
ATOM     13  C   UNL     1      47.925   3.239  17.240  0.00  0.00    +0.000 C 
ATOM     14  F   UNL     1      46.583   3.068  17.399  0.00  0.00    +0.000 F 
ATOM     15  F   UNL     1      48.376   2.097  16.649  0.00  0.00    +0.000 F 
ATOM     16  F   UNL     1      48.452   3.243  18.494  0.00  0.00    +0.000 F 
ENDBRANCH  11  13
ENDBRANCH   5   7
BRANCH   1  17
ATOM     17  C   UNL     1      43.863   5.556  11.660  0.00  0.00    +0.000 C 
BRANCH  17  18
ATOM     18  O   UNL     1      43.759   5.377  10.250  0.00  0.00    +0.000 OA
BRANCH  18  24
ATOM     19  C   UNL     1      44.239   2.928   9.997  0.00  0.00    +0.000 A 
ATOM     20  C   UNL     1      45.027   1.978   9.330  0.00  0.00    +0.000 A 
ATOM     21  C   UNL     1      45.990   2.356   8.382  0.00  0.00    +0.000 A 
ATOM     22  C   UNL     1      46.162   3.712   8.096  0.00  0.00    +0.000 A 
ATOM     23  C   UNL     1      45.382   4.667   8.758  0.00  0.00    +0.000 A 
ATOM     24  C   UNL     1      44.421   4.295   9.709  0.00  0.00    +0.000 A 
BRANCH  21  25
ATOM     25  C   UNL     1      46.768   1.262   7.731  0.00  0.00    +0.000 C 
ATOM     26  N   UNL     1      47.822   1.590   6.925  0.00  0.00    +0.000 N 
ATOM     27  O   UNL     1      46.482   0.084   7.906  0.00  0.00    +0.000 OA
ATOM     28  H   UNL     1      48.127   2.523   6.713  0.00  0.00    +0.000 HD
ATOM     29  H   UNL     1      48.322   0.819   6.501  0.00  0.00    +0.000 HD
ENDBRANCH  21  25
BRANCH  19  31
ATOM     30  C   UNL     1      43.582   2.488  12.257  0.00  0.00    +0.000 C 
ATOM     31  O   UNL     1      43.255   2.562  10.874  0.00  0.00    +0.000 OA
ENDBRANCH  19  31
ENDBRANCH  18  24
ENDBRANCH  17  18
ENDBRANCH   1  17
TORSDOF 7
ENDMDL
MODEL 2
REMARK VINA RESULT:    -8.067      1.432      1.746
REMARK INTER + INTRA:         -12.072
REMARK INTER:                 -11.112
REMARK INTRA:                  -0.960
REMARK UNBOUND:                -0.705
REMARK  Name = 
REMARK  8 active torsions:
REMARK  status: ('A' for Active; 'I' for Inactive)
REMARK    1  A    between atoms: C_1  and  O_2
REMARK    2  A    between atoms: O_2  and  C_3
REMARK    3  A    between atoms: C_5  and  C_6
REMARK    4  A    between atoms: C_11  and  O_12
REMARK    5  A    between atoms: O_12  and  C_13
REMARK    6  A    between atoms: C_13  and  C_14
REMARK    7  A    between atoms: C_18  and  C_19
REMARK    8  A    between atoms: C_23  and  C_24
REMARK                            x       y       z     vdW  Elec       q    Type
REMARK                         _______ _______ _______ _____ _____    ______ ____
ROOT
ATOM      1  C   UNL     1      45.174   5.882  12.118  0.00  0.00    +0.000 A 
ATOM      2  C   UNL     1      45.891   6.993  11.666  0.00  0.00    +0.000 A 
ATOM      3  C   UNL     1      47.125   7.303  12.233  0.00  0.00    +0.000 A 
ATOM      4  C   UNL     1      47.646   6.516  13.264  0.00  0.00    +0.000 A 
ATOM      5  C   UNL     1      46.949   5.399  13.753  0.00  0.00    +0.000 A 
ATOM      6  C   UNL     1      45.720   5.088  13.144  0.00  0.00    +0.000 A 
ENDROOT
BRANCH   5   7
ATOM      7  C   UNL     1      47.435   4.622  14.913  0.00  0.00    +0.000 A 
ATOM      8  C   UNL     1      47.574   3.232  14.860  0.00  0.00    +0.000 A 
ATOM      9  N   UNL     1      48.060   2.457  15.861  0.00  0.00    +0.000 NA
ATOM     10  C   UNL     1      48.451   3.088  16.987  0.00  0.00    +0.000 A 
ATOM     11  C   UNL     1      48.369   4.459  17.164  0.00  0.00    +0.000 A 
ATOM     12  C   UNL     1      47.843   5.224  16.111  0.00  0.00    +0.000 A 
BRANCH  11  13
ATOM     13  C   UNL     1      48.846   5.095  18.432  0.00  0.00    +0.000 C 
ATOM     14  F   UNL     1      47.841   5.580  19.214  0.00  0.00    +0.000 F 
ATOM     15  F   UNL     1      49.541   4.226  19.218  0.00  0.00    +0.000 F 
ATOM     16  F   UNL     1      49.683   6.145  18.207  0.00  0.00    +0.000 F 
ENDBRANCH  11  13
ENDBRANCH   5   7
BRANCH   1  17
ATOM     17  C   UNL     1      43.754   5.632  11.659  0.00  0.00    +0.000 C 
BRANCH  17  18
ATOM     18  O   UNL     1      43.664   5.438  10.250  0.00  0.00    +0.000 OA
BRANCH  18  24
ATOM     19  C   UNL     1      44.185   2.995  10.031  0.00  0.00    +0.000 A 
ATOM     20  C   UNL     1      44.990   2.049   9.378  0.00  0.00    +0.000 A 
ATOM     21  C   UNL     1      45.947   2.430   8.426  0.00  0.00    +0.000 A 
ATOM     22  C   UNL     1      46.096   3.785   8.121  0.00  0.00    +0.000 A 
ATOM     23  C   UNL     1      45.300   4.736   8.770  0.00  0.00    +0.000 A 
ATOM     24  C   UNL     1      44.344   4.360   9.725  0.00  0.00    +0.000 A 
BRANCH  21  25
ATOM     25  C   UNL     1      46.744   1.340   7.791  0.00  0.00    +0.000 C 
ATOM     26  N   UNL     1      47.757   1.675   6.936  0.00  0.00    +0.000 N 
ATOM     27  O   UNL     1      46.510   0.161   8.021  0.00  0.00    +0.000 OA
ATOM     28  H   UNL     1      48.019   2.610   6.678  0.00  0.00    +0.000 HD
ATOM     29  H   UNL     1      48.271   0.907   6.525  0.00  0.00    +0.000 HD
ENDBRANCH  21  25
BRANCH  19  31
ATOM     30  C   UNL     1      43.587   2.330  12.253  0.00  0.00    +0.000 C 
ATOM     31  O   UNL     1      43.207   2.624  10.914  0.00  0.00    +0.000 OA
ENDBRANCH  19  31
ENDBRANCH  18  24
ENDBRANCH  17  18
ENDBRANCH   1  17
TORSDOF 7
ENDMDL
MODEL 3
REMARK VINA RESULT:    -7.905      3.585      4.533
REMARK INTER + INTRA:         -11.844
REMARK INTER:                 -10.973
REMARK INTRA:                  -0.872
REMARK UNBOUND:                -0.705
REMARK  Name = 
REMARK  8 active torsions:
REMARK  status: ('A' for Active; 'I' for Inactive)
REMARK    1  A    between atoms: C_1  and  O_2
REMARK    2  A    between atoms: O_2  and  C_3
REMARK    3  A    between atoms: C_5  and  C_6
REMARK    4  A    between atoms: C_11  and  O_12
REMARK    5  A    between atoms: O_12  and  C_13
REMARK    6  A    between atoms: C_13  and  C_14
REMARK    7  A    between atoms: C_18  and  C_19
REMARK    8  A    between atoms: C_23  and  C_24
REMARK                            x       y       z     vdW  Elec       q    Type
REMARK                         _______ _______ _______ _____ _____    ______ ____
ROOT
ATOM      1  C   UNL     1      44.970   5.680  12.409  0.00  0.00    +0.000 A 
ATOM      2  C   UNL     1      45.420   4.696  13.294  0.00  0.00    +0.000 A 
ATOM      3  C   UNL     1      46.705   4.772  13.824  0.00  0.00    +0.000 A 
ATOM      4  C   UNL     1      47.556   5.822  13.464  0.00  0.00    +0.000 A 
ATOM      5  C   UNL     1      47.144   6.822  12.569  0.00  0.00    +0.000 A 
ATOM      6  C   UNL     1      45.830   6.740  12.071  0.00  0.00    +0.000 A 
ENDROOT
BRANCH   5   7
ATOM      7  C   UNL     1      48.067   7.875  12.097  0.00  0.00    +0.000 A 
ATOM      8  C   UNL     1      47.693   9.223  12.073  0.00  0.00    +0.000 A 
ATOM      9  N   UNL     1      48.497  10.250  11.704  0.00  0.00    +0.000 NA
ATOM     10  C   UNL     1      49.760   9.938  11.347  0.00  0.00    +0.000 A 
ATOM     11  C   UNL     1      50.255   8.645  11.332  0.00  0.00    +0.000 A 
ATOM     12  C   UNL     1      49.385   7.608  11.704  0.00  0.00    +0.000 A 
BRANCH  11  13
ATOM     13  C   UNL     1      51.676   8.375  10.948  0.00  0.00    +0.000 C 
ATOM     14  F   UNL     1      52.533   8.338  12.006  0.00  0.00    +0.000 F 
ATOM     15  F   UNL     1      51.822   7.179  10.312  0.00  0.00    +0.000 F 
ATOM     16  F   UNL     1      52.175   9.313  10.097  0.00  0.00    +0.000 F 
ENDBRANCH  11  13
ENDBRANCH   5   7
BRANCH   1  17
ATOM     17  C   UNL     1      43.658   5.523  11.671  0.00  0.00    +0.000 C 
BRANCH  17  18
ATOM     18  O   UNL     1      43.828   5.502  10.257  0.00  0.00    +0.000 OA
BRANCH  18  24
ATOM     19  C   UNL     1      44.197   3.037   9.976  0.00  0.00    +0.000 A 
ATOM     20  C   UNL     1      44.963   2.060   9.321  0.00  0.00    +0.000 A 
ATOM     21  C   UNL     1      45.979   2.407   8.417  0.00  0.00    +0.000 A 
ATOM     22  C   UNL     1      46.227   3.757   8.163  0.00  0.00    +0.000 A 
ATOM     23  C   UNL     1      45.470   4.739   8.814  0.00  0.00    +0.000 A 
ATOM     24  C   UNL     1      44.456   4.398   9.721  0.00  0.00    +0.000 A 
BRANCH  21  25
ATOM     25  C   UNL     1      46.727   1.287   7.775  0.00  0.00    +0.000 C 
ATOM     26  N   UNL     1      47.764   1.581   6.935  0.00  0.00    +0.000 N 
ATOM     27  O   UNL     1      46.432   0.118   7.988  0.00  0.00    +0.000 OA
ATOM     28  H   UNL     1      48.075   2.505   6.692  0.00  0.00    +0.000 HD
ATOM     29  H   UNL     1      48.244   0.794   6.519  0.00  0.00    +0.000 HD
ENDBRANCH  21  25
BRANCH  19  31
ATOM     30  C   UNL     1      43.477   2.121  12.068  0.00  0.00    +0.000 C 
ATOM     31  O   UNL     1      43.164   2.705  10.809  0.00  0.00    +0.000 OA
ENDBRANCH  19  31
ENDBRANCH  18  24
ENDBRANCH  17  18
ENDBRANCH   1  17
TORSDOF 7
ENDMDL
MODEL 4
REMARK VINA RESULT:    -7.712      4.616      8.451
REMARK INTER + INTRA:         -11.572
REMARK INTER:                 -10.488
REMARK INTRA:                  -1.084
REMARK UNBOUND:                -0.705
REMARK  Name = 
REMARK  8 active torsions:
REMARK  status: ('A' for Active; 'I' for Inactive)
REMARK    1  A    between atoms: C_1  and  O_2
REMARK    2  A    between atoms: O_2  and  C_3
REMARK    3  A    between atoms: C_5  and  C_6
REMARK    4  A    between atoms: C_11  and  O_12
REMARK    5  A    between atoms: O_12  and  C_13
REMARK    6  A    between atoms: C_13  and  C_14
REMARK    7  A    between atoms: C_18  and  C_19
REMARK    8  A    between atoms: C_23  and  C_24
REMARK                            x       y       z     vdW  Elec       q    Type
REMARK                         _______ _______ _______ _____ _____    ______ ____
ROOT
ATOM      1  C   UNL     1      47.348   7.592  13.311  0.00  0.00    +0.000 A 
ATOM      2  C   UNL     1      46.659   8.807  13.255  0.00  0.00    +0.000 A 
ATOM      3  C   UNL     1      45.454   8.893  12.561  0.00  0.00    +0.000 A 
ATOM      4  C   UNL     1      44.937   7.772  11.906  0.00  0.00    +0.000 A 
ATOM      5  C   UNL     1      45.606   6.538  11.929  0.00  0.00    +0.000 A 
ATOM      6  C   UNL     1      46.805   6.468  12.662  0.00  0.00    +0.000 A 
ENDROOT
BRANCH   5   7
ATOM      7  C   UNL     1      45.127   5.375  11.152  0.00  0.00    +0.000 A 
ATOM      8  C   UNL     1      43.995   4.650  11.540  0.00  0.00    +0.000 A 
ATOM      9  N   UNL     1      43.465   3.607  10.855  0.00  0.00    +0.000 NA
ATOM     10  C   UNL     1      44.076   3.259   9.703  0.00  0.00    +0.000 A 
ATOM     11  C   UNL     1      45.199   3.898   9.209  0.00  0.00    +0.000 A 
ATOM     12  C   UNL     1      45.729   4.962   9.957  0.00  0.00    +0.000 A 
BRANCH  11  13
ATOM     13  C   UNL     1      45.811   3.474   7.910  0.00  0.00    +0.000 C 
ATOM     14  F   UNL     1      46.487   2.295   7.981  0.00  0.00    +0.000 F 
ATOM     15  F   UNL     1      44.879   3.309   6.929  0.00  0.00    +0.000 F 
ATOM     16  F   UNL     1      46.700   4.386   7.429  0.00  0.00    +0.000 F 
ENDBRANCH  11  13
ENDBRANCH   5   7
BRANCH   1  17
ATOM     17  C   UNL     1      48.744   7.515  13.890  0.00  0.00    +0.000 C 
BRANCH  17  18
ATOM     18  O   UNL     1      48.993   6.276  14.547  0.00  0.00    +0.000 OA
BRANCH  18  24
ATOM     19  C   UNL     1      48.143   5.080  16.581  0.00  0.00    +0.000 A 
ATOM     20  C   UNL     1      47.839   5.211  17.945  0.00  0.00    +0.000 A 
ATOM     21  C   UNL     1      48.020   6.426  18.624  0.00  0.00    +0.000 A 
ATOM     22  C   UNL     1      48.518   7.525  17.923  0.00  0.00    +0.000 A 
ATOM     23  C   UNL     1      48.822   7.404  16.562  0.00  0.00    +0.000 A 
ATOM     24  C   UNL     1      48.639   6.194  15.878  0.00  0.00    +0.000 A 
BRANCH  21  25
ATOM     25  C   UNL     1      47.668   6.451  20.074  0.00  0.00    +0.000 C 
ATOM     26  N   UNL     1      47.528   5.265  20.740  0.00  0.00    +0.000 N 
ATOM     27  O   UNL     1      47.505   7.506  20.673  0.00  0.00    +0.000 OA
ATOM     28  H   UNL     1      47.632   4.352  20.335  0.00  0.00    +0.000 HD
ATOM     29  H   UNL     1      47.287   5.326  21.720  0.00  0.00    +0.000 HD
ENDBRANCH  21  25
BRANCH  19  31
ATOM     30  C   UNL     1      48.337   2.694  16.648  0.00  0.00    +0.000 C 
ATOM     31  O   UNL     1      48.028   3.882  15.929  0.00  0.00    +0.000 OA
ENDBRANCH  19  31
ENDBRANCH  18  24
ENDBRANCH  17  18
ENDBRANCH   1  17
TORSDOF 7
ENDMDL
MODEL 5
REMARK VINA RESULT:    -7.219      4.694      8.109
REMARK INTER + INTRA:         -10.878
REMARK INTER:                  -9.869
REMARK INTRA:                  -1.010
REMARK UNBOUND:                -0.705
REMARK  Name = 
REMARK  8 active torsions:
REMARK  status: ('A' for Active; 'I' for Inactive)
REMARK    1  A    between atoms: C_1  and  O_2
REMARK    2  A    between atoms: O_2  and  C_3
REMARK    3  A    between atoms: C_5  and  C_6
REMARK    4  A    between atoms: C_11  and  O_12
REMARK    5  A    between atoms: O_12  and  C_13
REMARK    6  A    between atoms: C_13  and  C_14
REMARK    7  A    between atoms: C_18  and  C_19
REMARK    8  A    between atoms: C_23  and  C_24
REMARK                            x       y       z     vdW  Elec       q    Type
REMARK                         _______ _______ _______ _____ _____    ______ ____
ROOT
ATOM      1  C   UNL     1      47.242   7.597  13.426  0.00  0.00    +0.000 A 
ATOM      2  C   UNL     1      46.621   8.836  13.250  0.00  0.00    +0.000 A 
ATOM      3  C   UNL     1      45.494   8.941  12.438  0.00  0.00    +0.000 A 
ATOM      4  C   UNL     1      44.987   7.814  11.785  0.00  0.00    +0.000 A 
ATOM      5  C   UNL     1      45.591   6.554  11.929  0.00  0.00    +0.000 A 
ATOM      6  C   UNL     1      46.710   6.468  12.778  0.00  0.00    +0.000 A 
ENDROOT
BRANCH   5   7
ATOM      7  C   UNL     1      45.132   5.377  11.161  0.00  0.00    +0.000 A 
ATOM      8  C   UNL     1      44.035   4.614  11.573  0.00  0.00    +0.000 A 
ATOM      9  N   UNL     1      43.523   3.555  10.899  0.00  0.00    +0.000 NA
ATOM     10  C   UNL     1      44.118   3.228   9.733  0.00  0.00    +0.000 A 
ATOM     11  C   UNL     1      45.208   3.905   9.213  0.00  0.00    +0.000 A 
ATOM     12  C   UNL     1      45.720   4.985   9.951  0.00  0.00    +0.000 A 
BRANCH  11  13
ATOM     13  C   UNL     1      45.803   3.503   7.900  0.00  0.00    +0.000 C 
ATOM     14  F   UNL     1      46.691   4.406   7.400  0.00  0.00    +0.000 F 
ATOM     15  F   UNL     1      46.479   2.323   7.978  0.00  0.00    +0.000 F 
ATOM     16  F   UNL     1      44.862   3.330   6.932  0.00  0.00    +0.000 F 
ENDBRANCH  11  13
ENDBRANCH   5   7
BRANCH   1  17
ATOM     17  C   UNL     1      48.571   7.487  14.141  0.00  0.00    +0.000 C 
BRANCH  17  18
ATOM     18  O   UNL     1      48.421   7.371  15.553  0.00  0.00    +0.000 OA
BRANCH  18  24
ATOM     19  C   UNL     1      48.703   5.121  16.624  0.00  0.00    +0.000 A 
ATOM     20  C   UNL     1      49.613   4.254  17.247  0.00  0.00    +0.000 A 
ATOM     21  C   UNL     1      50.958   4.612  17.434  0.00  0.00    +0.000 A 
ATOM     22  C   UNL     1      51.395   5.859  16.985  0.00  0.00    +0.000 A 
ATOM     23  C   UNL     1      50.493   6.732  16.365  0.00  0.00    +0.000 A 
ATOM     24  C   UNL     1      49.148   6.381  16.179  0.00  0.00    +0.000 A 
BRANCH  21  25
ATOM     25  C   UNL     1      51.839   3.611  18.104  0.00  0.00    +0.000 C 
ATOM     26  N   UNL     1      51.487   2.291  18.064  0.00  0.00    +0.000 N 
ATOM     27  O   UNL     1      52.864   3.948  18.682  0.00  0.00    +0.000 OA
ATOM     28  H   UNL     1      50.664   1.918  17.624  0.00  0.00    +0.000 HD
ATOM     29  H   UNL     1      52.110   1.645  18.532  0.00  0.00    +0.000 HD
ENDBRANCH  21  25
BRANCH  19  31
ATOM     30  C   UNL     1      47.156   3.838  15.322  0.00  0.00    +0.000 C 
ATOM     31  O   UNL     1      47.407   4.753  16.382  0.00  0.00    +0.000 OA
ENDBRANCH  19  31
ENDBRANCH  18  24
ENDBRANCH  17  18
ENDBRANCH   1  17
TORSDOF 7
ENDMDL
MODEL 6
REMARK VINA RESULT:    -7.039      4.849      8.462
REMARK INTER + INTRA:         -10.624
REMARK INTER:                  -9.573
REMARK INTRA:                  -1.051
REMARK UNBOUND:                -0.705
REMARK  Name = 
REMARK  8 active torsions:
REMARK  status: ('A' for Active; 'I' for Inactive)
REMARK    1  A    between atoms: C_1  and  O_2
REMARK    2  A    between atoms: O_2  and  C_3
REMARK    3  A    between atoms: C_5  and  C_6
REMARK    4  A    between atoms: C_11  and  O_12
REMARK    5  A    between atoms: O_12  and  C_13
REMARK    6  A    between atoms: C_13  and  C_14
REMARK    7  A    between atoms: C_18  and  C_19
REMARK    8  A    between atoms: C_23  and  C_24
REMARK                            x       y       z     vdW  Elec       q    Type
REMARK                         _______ _______ _______ _____ _____    ______ ____
ROOT
ATOM      1  C   UNL     1      47.639   7.446  13.672  0.00  0.00    +0.000 A 
ATOM      2  C   UNL     1      47.084   8.699  13.397  0.00  0.00    +0.000 A 
ATOM      3  C   UNL     1      45.857   8.790  12.744  0.00  0.00    +0.000 A 
ATOM      4  C   UNL     1      45.183   7.632  12.346  0.00  0.00    +0.000 A 
ATOM      5  C   UNL     1      45.714   6.355  12.593  0.00  0.00    +0.000 A 
ATOM      6  C   UNL     1      46.939   6.289  13.282  0.00  0.00    +0.000 A 
ENDROOT
BRANCH   5   7
ATOM      7  C   UNL     1      45.065   5.128  12.084  0.00  0.00    +0.000 A 
ATOM      8  C   UNL     1      44.120   4.430  12.841  0.00  0.00    +0.000 A 
ATOM      9  N   UNL     1      43.445   3.329  12.425  0.00  0.00    +0.000 NA
ATOM     10  C   UNL     1      43.705   2.891  11.176  0.00  0.00    +0.000 A 
ATOM     11  C   UNL     1      44.614   3.495  10.325  0.00  0.00    +0.000 A 
ATOM     12  C   UNL     1      45.305   4.622  10.800  0.00  0.00    +0.000 A 
BRANCH  11  13
ATOM     13  C   UNL     1      44.833   2.969   8.942  0.00  0.00    +0.000 C 
ATOM     14  F   UNL     1      44.217   3.700   7.972  0.00  0.00    +0.000 F 
ATOM     15  F   UNL     1      46.152   2.940   8.602  0.00  0.00    +0.000 F 
ATOM     16  F   UNL     1      44.382   1.694   8.790  0.00  0.00    +0.000 F 
ENDBRANCH  11  13
ENDBRANCH   5   7
BRANCH   1  17
ATOM     17  C   UNL     1      49.050   7.318  14.204  0.00  0.00    +0.000 C 
BRANCH  17  18
ATOM     18  O   UNL     1      49.212   7.950  15.471  0.00  0.00    +0.000 OA
BRANCH  18  24
ATOM     19  C   UNL     1      48.547   7.516  17.849  0.00  0.00    +0.000 A 
ATOM     20  C   UNL     1      48.479   6.547  18.862  0.00  0.00    +0.000 A 
ATOM     21  C   UNL     1      48.907   5.227  18.646  0.00  0.00    +0.000 A 
ATOM     22  C   UNL     1      49.408   4.875  17.391  0.00  0.00    +0.000 A 
ATOM     23  C   UNL     1      49.481   5.836  16.376  0.00  0.00    +0.000 A 
ATOM     24  C   UNL     1      49.058   7.156  16.588  0.00  0.00    +0.000 A 
BRANCH  21  25
ATOM     25  C   UNL     1      48.786   4.279  19.792  0.00  0.00    +0.000 C 
ATOM     26  N   UNL     1      48.346   3.008  19.553  0.00  0.00    +0.000 N 
ATOM     27  O   UNL     1      49.074   4.617  20.933  0.00  0.00    +0.000 OA
ATOM     28  H   UNL     1      48.078   2.641  18.656  0.00  0.00    +0.000 HD
ATOM     29  H   UNL     1      48.276   2.397  20.356  0.00  0.00    +0.000 HD
ENDBRANCH  21  25
BRANCH  19  31
ATOM     30  C   UNL     1      47.218   9.028  19.145  0.00  0.00    +0.000 C 
ATOM     31  O   UNL     1      48.072   8.786  18.034  0.00  0.00    +0.000 OA
ENDBRANCH  19  31
ENDBRANCH  18  24
ENDBRANCH  17  18
ENDBRANCH   1  17
TORSDOF 7
ENDMDL
MODEL 7
REMARK VINA RESULT:    -7.036      4.911      8.027
REMARK INTER + INTRA:         -10.619
REMARK INTER:                  -9.466
REMARK INTRA:                  -1.153
REMARK UNBOUND:                -0.705
REMARK  Name = 
REMARK  8 active torsions:
REMARK  status: ('A' for Active; 'I' for Inactive)
REMARK    1  A    between atoms: C_1  and  O_2
REMARK    2  A    between atoms: O_2  and  C_3
REMARK    3  A    between atoms: C_5  and  C_6
REMARK    4  A    between atoms: C_11  and  O_12
REMARK    5  A    between atoms: O_12  and  C_13
REMARK    6  A    between atoms: C_13  and  C_14
REMARK    7  A    between atoms: C_18  and  C_19
REMARK    8  A    between atoms: C_23  and  C_24
REMARK                            x       y       z     vdW  Elec       q    Type
REMARK                         _______ _______ _______ _____ _____    ______ ____
ROOT
ATOM      1  C   UNL     1      49.405   7.126  15.295  0.00  0.00    +0.000 A 
ATOM      2  C   UNL     1      49.957   8.066  14.420  0.00  0.00    +0.000 A 
ATOM      3  C   UNL     1      49.522   8.127  13.098  0.00  0.00    +0.000 A 
ATOM      4  C   UNL     1      48.546   7.241  12.635  0.00  0.00    +0.000 A 
ATOM      5  C   UNL     1      47.977   6.274  13.480  0.00  0.00    +0.000 A 
ATOM      6  C   UNL     1      48.410   6.253  14.819  0.00  0.00    +0.000 A 
ENDROOT
BRANCH   5   7
ATOM      7  C   UNL     1      47.024   5.262  12.978  0.00  0.00    +0.000 A 
ATOM      8  C   UNL     1      46.842   4.038  13.630  0.00  0.00    +0.000 A 
ATOM      9  N   UNL     1      45.953   3.082  13.262  0.00  0.00    +0.000 NA
ATOM     10  C   UNL     1      45.178   3.349  12.191  0.00  0.00    +0.000 A 
ATOM     11  C   UNL     1      45.257   4.523  11.462  0.00  0.00    +0.000 A 
ATOM     12  C   UNL     1      46.203   5.481  11.864  0.00  0.00    +0.000 A 
BRANCH  11  13
ATOM     13  C   UNL     1      44.348   4.763  10.298  0.00  0.00    +0.000 C 
ATOM     14  F   UNL     1      43.816   3.625   9.773  0.00  0.00    +0.000 F 
ATOM     15  F   UNL     1      43.285   5.551  10.625  0.00  0.00    +0.000 F 
ATOM     16  F   UNL     1      44.974   5.393   9.266  0.00  0.00    +0.000 F 
ENDBRANCH  11  13
ENDBRANCH   5   7
BRANCH   1  17
ATOM     17  C   UNL     1      49.989   6.908  16.674  0.00  0.00    +0.000 C 
BRANCH  17  18
ATOM     18  O   UNL     1      49.375   5.820  17.359  0.00  0.00    +0.000 OA
BRANCH  18  24
ATOM     19  C   UNL     1      49.689   3.342  17.140  0.00  0.00    +0.000 A 
ATOM     20  C   UNL     1      50.593   2.281  17.310  0.00  0.00    +0.000 A 
ATOM     21  C   UNL     1      51.898   2.496  17.781  0.00  0.00    +0.000 A 
ATOM     22  C   UNL     1      52.303   3.798  18.082  0.00  0.00    +0.000 A 
ATOM     23  C   UNL     1      51.407   4.861  17.917  0.00  0.00    +0.000 A 
ATOM     24  C   UNL     1      50.102   4.652  17.451  0.00  0.00    +0.000 A 
BRANCH  21  25
ATOM     25  C   UNL     1      52.774   1.297  17.920  0.00  0.00    +0.000 C 
ATOM     26  N   UNL     1      52.659   0.285  17.008  0.00  0.00    +0.000 N 
ATOM     27  O   UNL     1      53.590   1.204  18.829  0.00  0.00    +0.000 OA
ATOM     28  H   UNL     1      52.016   0.265  16.236  0.00  0.00    +0.000 HD
ATOM     29  H   UNL     1      53.270  -0.510  17.139  0.00  0.00    +0.000 HD
ENDBRANCH  21  25
BRANCH  19  31
ATOM     30  C   UNL     1      47.357   2.961  17.528  0.00  0.00    +0.000 C 
ATOM     31  O   UNL     1      48.438   3.146  16.622  0.00  0.00    +0.000 OA
ENDBRANCH  19  31
ENDBRANCH  18  24
ENDBRANCH  17  18
ENDBRANCH   1  17
TORSDOF 7
ENDMDL
MODEL 8
REMARK VINA RESULT:    -6.827      3.657      5.840
REMARK INTER + INTRA:         -10.325
REMARK INTER:                  -9.307
REMARK INTRA:                  -1.018
REMARK UNBOUND:                -0.705
REMARK  Name = 
REMARK  8 active torsions:
REMARK  status: ('A' for Active; 'I' for Inactive)
REMARK    1  A    between atoms: C_1  and  O_2
REMARK    2  A    between atoms: O_2  and  C_3
REMARK    3  A    between atoms: C_5  and  C_6
REMARK    4  A    between atoms: C_11  and  O_12
REMARK    5  A    between atoms: O_12  and  C_13
REMARK    6  A    between atoms: C_13  and  C_14
REMARK    7  A    between atoms: C_18  and  C_19
REMARK    8  A    between atoms: C_23  and  C_24
REMARK                            x       y       z     vdW  Elec       q    Type
REMARK                         _______ _______ _______ _____ _____    ______ ____
ROOT
ATOM      1  C   UNL     1      48.167   5.031  16.443  0.00  0.00    +0.000 A 
ATOM      2  C   UNL     1      47.142   4.177  16.859  0.00  0.00    +0.000 A 
ATOM      3  C   UNL     1      47.425   3.114  17.713  0.00  0.00    +0.000 A 
ATOM      4  C   UNL     1      48.734   2.887  18.147  0.00  0.00    +0.000 A 
ATOM      5  C   UNL     1      49.792   3.717  17.742  0.00  0.00    +0.000 A 
ATOM      6  C   UNL     1      49.476   4.802  16.903  0.00  0.00    +0.000 A 
ENDROOT
BRANCH   5   7
ATOM      7  C   UNL     1      51.195   3.426  18.105  0.00  0.00    +0.000 A 
ATOM      8  C   UNL     1      51.917   4.255  18.970  0.00  0.00    +0.000 A 
ATOM      9  N   UNL     1      53.186   4.030  19.390  0.00  0.00    +0.000 NA
ATOM     10  C   UNL     1      53.786   2.906  18.944  0.00  0.00    +0.000 A 
ATOM     11  C   UNL     1      53.180   2.002  18.089  0.00  0.00    +0.000 A 
ATOM     12  C   UNL     1      51.871   2.281  17.662  0.00  0.00    +0.000 A 
BRANCH  11  13
ATOM     13  C   UNL     1      53.897   0.762  17.654  0.00  0.00    +0.000 C 
ATOM     14  F   UNL     1      55.209   0.964  17.352  0.00  0.00    +0.000 F 
ATOM     15  F   UNL     1      53.882  -0.207  18.612  0.00  0.00    +0.000 F 
ATOM     16  F   UNL     1      53.341   0.199  16.546  0.00  0.00    +0.000 F 
ENDBRANCH  11  13
ENDBRANCH   5   7
BRANCH   1  17
ATOM     17  C   UNL     1      47.927   6.071  15.370  0.00  0.00    +0.000 C 
BRANCH  17  18
ATOM     18  O   UNL     1      48.242   5.590  14.066  0.00  0.00    +0.000 OA
BRANCH  18  24
ATOM     19  C   UNL     1      46.559   6.206  12.313  0.00  0.00    +0.000 A 
ATOM     20  C   UNL     1      45.481   5.739  11.544  0.00  0.00    +0.000 A 
ATOM     21  C   UNL     1      45.011   4.422  11.661  0.00  0.00    +0.000 A 
ATOM     22  C   UNL     1      45.636   3.558  12.562  0.00  0.00    +0.000 A 
ATOM     23  C   UNL     1      46.711   4.015  13.334  0.00  0.00    +0.000 A 
ATOM     24  C   UNL     1      47.182   5.331  13.223  0.00  0.00    +0.000 A 
BRANCH  21  25
ATOM     25  C   UNL     1      43.862   4.032  10.793  0.00  0.00    +0.000 C 
ATOM     26  N   UNL     1      43.763   4.579   9.543  0.00  0.00    +0.000 N 
ATOM     27  O   UNL     1      43.014   3.237  11.175  0.00  0.00    +0.000 OA
ATOM     28  H   UNL     1      44.402   5.244   9.145  0.00  0.00    +0.000 HD
ATOM     29  H   UNL     1      42.969   4.290   8.988  0.00  0.00    +0.000 HD
ENDBRANCH  21  25
BRANCH  19  31
ATOM     30  C   UNL     1      46.454   8.528  12.886  0.00  0.00    +0.000 C 
ATOM     31  O   UNL     1      47.062   7.469  12.157  0.00  0.00    +0.000 OA
ENDBRANCH  19  31
ENDBRANCH  18  24
ENDBRANCH  17  18
ENDBRANCH   1  17
TORSDOF 7
ENDMDL
MODEL 9
REMARK VINA RESULT:    -6.416      4.112      6.147
REMARK INTER + INTRA:          -9.746
REMARK INTER:                  -8.606
REMARK INTRA:                  -1.140
REMARK UNBOUND:                -0.705
REMARK  Name = 
REMARK  8 active torsions:
REMARK  status: ('A' for Active; 'I' for Inactive)
REMARK    1  A    between atoms: C_1  and  O_2
REMARK    2  A    between atoms: O_2  and  C_3
REMARK    3  A    between atoms: C_5  and  C_6
REMARK    4  A    between atoms: C_11  and  O_12
REMARK    5  A    between atoms: O_12  and  C_13
REMARK    6  A    between atoms: C_13  and  C_14
REMARK    7  A    between atoms: C_18  and  C_19
REMARK    8  A    between atoms: C_23  and  C_24
REMARK                            x       y       z     vdW  Elec       q    Type
REMARK                         _______ _______ _______ _____ _____    ______ ____
ROOT
ATOM      1  C   UNL     1      47.843   3.760  15.973  0.00  0.00    +0.000 A 
ATOM      2  C   UNL     1      48.584   2.700  16.503  0.00  0.00    +0.000 A 
ATOM      3  C   UNL     1      49.011   2.744  17.828  0.00  0.00    +0.000 A 
ATOM      4  C   UNL     1      48.716   3.851  18.629  0.00  0.00    +0.000 A 
ATOM      5  C   UNL     1      47.984   4.940  18.128  0.00  0.00    +0.000 A 
ATOM      6  C   UNL     1      47.537   4.859  16.796  0.00  0.00    +0.000 A 
ENDROOT
BRANCH   5   7
ATOM      7  C   UNL     1      47.757   6.162  18.928  0.00  0.00    +0.000 A 
ATOM      8  C   UNL     1      47.485   6.101  20.299  0.00  0.00    +0.000 A 
ATOM      9  N   UNL     1      47.317   7.176  21.109  0.00  0.00    +0.000 NA
ATOM     10  C   UNL     1      47.437   8.393  20.541  0.00  0.00    +0.000 A 
ATOM     11  C   UNL     1      47.708   8.589  19.198  0.00  0.00    +0.000 A 
ATOM     12  C   UNL     1      47.858   7.451  18.389  0.00  0.00    +0.000 A 
BRANCH  11  13
ATOM     13  C   UNL     1      47.853   9.970  18.640  0.00  0.00    +0.000 C 
ATOM     14  F   UNL     1      47.131  10.911  19.309  0.00  0.00    +0.000 F 
ATOM     15  F   UNL     1      49.144  10.406  18.667  0.00  0.00    +0.000 F 
ATOM     16  F   UNL     1      47.460  10.052  17.340  0.00  0.00    +0.000 F 
ENDBRANCH  11  13
ENDBRANCH   5   7
BRANCH   1  17
ATOM     17  C   UNL     1      47.532   3.829  14.493  0.00  0.00    +0.000 C 
BRANCH  17  18
ATOM     18  O   UNL     1      46.133   3.778  14.229  0.00  0.00    +0.000 OA
BRANCH  18  24
ATOM     19  C   UNL     1      44.319   4.925  12.932  0.00  0.00    +0.000 A 
ATOM     20  C   UNL     1      43.964   6.098  12.249  0.00  0.00    +0.000 A 
ATOM     21  C   UNL     1      44.848   7.184  12.145  0.00  0.00    +0.000 A 
ATOM     22  C   UNL     1      46.108   7.089  12.740  0.00  0.00    +0.000 A 
ATOM     23  C   UNL     1      46.471   5.921  13.421  0.00  0.00    +0.000 A 
ATOM     24  C   UNL     1      45.592   4.833  13.524  0.00  0.00    +0.000 A 
BRANCH  21  25
ATOM     25  C   UNL     1      44.365   8.383  11.400  0.00  0.00    +0.000 C 
ATOM     26  N   UNL     1      43.143   8.333  10.790  0.00  0.00    +0.000 N 
ATOM     27  O   UNL     1      45.037   9.403  11.329  0.00  0.00    +0.000 OA
ATOM     28  H   UNL     1      42.525   7.541  10.784  0.00  0.00    +0.000 HD
ATOM     29  H   UNL     1      42.854   9.166  10.294  0.00  0.00    +0.000 HD
ENDBRANCH  21  25
BRANCH  19  31
ATOM     30  C   UNL     1      43.331   2.932  12.044  0.00  0.00    +0.000 C 
ATOM     31  O   UNL     1      43.438   3.889  13.091  0.00  0.00    +0.000 OA
ENDBRANCH  19  31
ENDBRANCH  18  24
ENDBRANCH  17  18
ENDBRANCH   1  17
TORSDOF 7
ENDMDL
