MODEL 1
REMARK VINA RESULT:    -6.661      0.000      0.000
REMARK INTER + INTRA:          -8.117
REMARK INTER:                  -8.023
REMARK INTRA:                  -0.094
REMARK UNBOUND:                -0.094
REMARK  Name = 
REMARK  4 active torsions:
REMARK  status: ('A' for Active; 'I' for Inactive)
REMARK    1  A    between atoms: N_1  and  C_2
REMARK    2  A    between atoms: C_2  and  C_3
REMARK    3  A    between atoms: C_3  and  N_4
REMARK    4  A    between atoms: C_9  and  C_10
REMARK                            x       y       z     vdW  Elec       q    Type
REMARK                         _______ _______ _______ _____ _____    ______ ____
ROOT
ATOM      1  N   UNL     1      44.054   4.264  10.464  0.00  0.00    +0.000 N 
ATOM      2  C   UNL     1      43.441   3.041  10.970  0.00  0.00    +0.000 C 
ATOM      3  C   UNL     1      44.230   1.860  10.362  0.00  0.00    +0.000 C 
ATOM      4  C   UNL     1      45.053   2.545   9.318  0.00  0.00    +0.000 A 
ATOM      5  C   UNL     1      45.873   1.964   8.360  0.00  0.00    +0.000 A 
ATOM      6  C   UNL     1      46.602   2.806   7.510  0.00  0.00    +0.000 A 
ATOM      7  C   UNL     1      46.505   4.205   7.669  0.00  0.00    +0.000 A 
ATOM      8  C   UNL     1      45.677   4.765   8.651  0.00  0.00    +0.000 A 
ATOM      9  C   UNL     1      44.941   3.929   9.466  0.00  0.00    +0.000 A 
ENDROOT
BRANCH   6  10
ATOM     10  C   UNL     1      47.487   2.298   6.423  0.00  0.00    +0.000 C 
ATOM     11  N   UNL     1      47.726   3.099   5.341  0.00  0.00    +0.000 N 
ATOM     12  O   UNL     1      48.016   1.193   6.488  0.00  0.00    +0.000 OA
ATOM     13  H   UNL     1      47.365   4.029   5.213  0.00  0.00    +0.000 HD
ATOM     14  H   UNL     1      48.353   2.730   4.639  0.00  0.00    +0.000 HD
ENDBRANCH   6  10
BRANCH   1  15
ATOM     15  C   UNL     1      43.784   5.588  10.998  0.00  0.00    +0.000 C 
BRANCH  15  16
ATOM     16  C   UNL     1      42.475   5.649  11.812  0.00  0.00    +0.000 C 
BRANCH  16  17
ATOM     17  N   UNL     1      42.675   5.496  13.256  0.00  0.00    +0.000 NA
ATOM     18  H   UNL     1      41.842   5.096  13.679  0.00  0.00    +0.000 HD
ATOM     19  H   UNL     1      42.788   6.433  13.648  0.00  0.00    +0.000 HD
ENDBRANCH  16  17
ENDBRANCH  15  16
ENDBRANCH   1  15
TORSDOF 4
ENDMDL
MODEL 2
REMARK VINA RESULT:    -6.540      0.816      2.003
REMARK INTER + INTRA:          -7.972
REMARK INTER:                  -7.982
REMARK INTRA:                   0.010
REMARK UNBOUND:                -0.094
REMARK  Name = 
REMARK  4 active torsions:
REMARK  status: ('A' for Active; 'I' for Inactive)
REMARK    1  A    between atoms: N_1  and  C_2
REMARK    2  A    between atoms: C_2  and  C_3
REMARK    3  A    between atoms: C_3  and  N_4
REMARK    4  A    between atoms: C_9  and  C_10
REMARK                            x       y       z     vdW  Elec       q    Type
REMARK                         _______ _______ _______ _____ _____    ______ ____
ROOT
ATOM      1  N   UNL     1      44.320   4.115  10.785  0.00  0.00    +0.000 N 
ATOM      2  C   UNL     1      44.728   5.515  10.848  0.00  0.00    +0.000 C 
ATOM      3  C   UNL     1      45.503   5.814   9.546  0.00  0.00    +0.000 C 
ATOM      4  C   UNL     1      45.712   4.442   8.989  0.00  0.00    +0.000 A 
ATOM      5  C   UNL     1      46.465   4.075   7.883  0.00  0.00    +0.000 A 
ATOM      6  C   UNL     1      46.476   2.726   7.504  0.00  0.00    +0.000 A 
ATOM      7  C   UNL     1      45.705   1.795   8.232  0.00  0.00    +0.000 A 
ATOM      8  C   UNL     1      44.945   2.194   9.339  0.00  0.00    +0.000 A 
ATOM      9  C   UNL     1      44.963   3.520   9.723  0.00  0.00    +0.000 A 
ENDROOT
BRANCH   6  10
ATOM     10  C   UNL     1      47.274   2.209   6.356  0.00  0.00    +0.000 C 
ATOM     11  N   UNL     1      47.355   2.965   5.219  0.00  0.00    +0.000 N 
ATOM     12  O   UNL     1      47.870   1.139   6.415  0.00  0.00    +0.000 OA
ATOM     13  H   UNL     1      46.930   3.867   5.086  0.00  0.00    +0.000 HD
ATOM     14  H   UNL     1      47.929   2.594   4.472  0.00  0.00    +0.000 HD
ENDBRANCH   6  10
BRANCH   1  15
ATOM     15  C   UNL     1      43.348   3.512  11.680  0.00  0.00    +0.000 C 
BRANCH  15  16
ATOM     16  C   UNL     1      43.436   4.065  13.118  0.00  0.00    +0.000 C 
BRANCH  16  17
ATOM     17  N   UNL     1      42.612   5.257  13.339  0.00  0.00    +0.000 NA
ATOM     18  H   UNL     1      42.001   5.407  12.541  0.00  0.00    +0.000 HD
ATOM     19  H   UNL     1      43.244   6.059  13.384  0.00  0.00    +0.000 HD
ENDBRANCH  16  17
ENDBRANCH  15  16
ENDBRANCH   1  15
TORSDOF 4
ENDMDL
MODEL 3
REMARK VINA RESULT:    -6.538      2.674      5.837
REMARK INTER + INTRA:          -7.970
REMARK INTER:                  -7.818
REMARK INTRA:                  -0.152
REMARK UNBOUND:                -0.094
REMARK  Name = 
REMARK  4 active torsions:
REMARK  status: ('A' for Active; 'I' for Inactive)
REMARK    1  A    between atoms: N_1  and  C_2
REMARK    2  A    between atoms: C_2  and  C_3
REMARK    3  A    between atoms: C_3  and  N_4
REMARK    4  A    between atoms: C_9  and  C_10
REMARK                            x       y       z     vdW  Elec       q    Type
REMARK                         _______ _______ _______ _____ _____    ______ ____
ROOT
ATOM      1  N   UNL     1      46.196   3.009   8.055  0.00  0.00    +0.000 N 
ATOM      2  C   UNL     1      45.786   1.614   8.181  0.00  0.00    +0.000 C 
ATOM      3  C   UNL     1      44.573   1.589   9.137  0.00  0.00    +0.000 C 
ATOM      4  C   UNL     1      44.594   2.974   9.698  0.00  0.00    +0.000 A 
ATOM      5  C   UNL     1      43.804   3.497  10.713  0.00  0.00    +0.000 A 
ATOM      6  C   UNL     1      43.956   4.849  11.045  0.00  0.00    +0.000 A 
ATOM      7  C   UNL     1      44.875   5.641  10.325  0.00  0.00    +0.000 A 
ATOM      8  C   UNL     1      45.653   5.091   9.297  0.00  0.00    +0.000 A 
ATOM      9  C   UNL     1      45.518   3.751   8.996  0.00  0.00    +0.000 A 
ENDROOT
BRANCH   6  10
ATOM     10  C   UNL     1      43.188   5.511  12.138  0.00  0.00    +0.000 C 
ATOM     11  N   UNL     1      42.043   6.188  11.821  0.00  0.00    +0.000 N 
ATOM     12  O   UNL     1      43.548   5.444  13.309  0.00  0.00    +0.000 OA
ATOM     13  H   UNL     1      41.652   6.271  10.898  0.00  0.00    +0.000 HD
ATOM     14  H   UNL     1      41.536   6.600  12.594  0.00  0.00    +0.000 HD
ENDBRANCH   6  10
BRANCH   1  15
ATOM     15  C   UNL     1      47.124   3.495   7.048  0.00  0.00    +0.000 C 
BRANCH  15  16
ATOM     16  C   UNL     1      47.221   2.560   5.825  0.00  0.00    +0.000 C 
BRANCH  16  17
ATOM     17  N   UNL     1      48.503   1.856   5.725  0.00  0.00    +0.000 NA
ATOM     18  H   UNL     1      49.179   2.437   5.238  0.00  0.00    +0.000 HD
ATOM     19  H   UNL     1      48.350   1.028   5.146  0.00  0.00    +0.000 HD
ENDBRANCH  16  17
ENDBRANCH  15  16
ENDBRANCH   1  15
TORSDOF 4
ENDMDL
MODEL 4
REMARK VINA RESULT:    -5.401      4.446      5.413
REMARK INTER + INTRA:          -6.600
REMARK INTER:                  -6.446
REMARK INTRA:                  -0.154
REMARK UNBOUND:                -0.094
REMARK  Name = 
REMARK  4 active torsions:
REMARK  status: ('A' for Active; 'I' for Inactive)
REMARK    1  A    between atoms: N_1  and  C_2
REMARK    2  A    between atoms: C_2  and  C_3
REMARK    3  A    between atoms: C_3  and  N_4
REMARK    4  A    between atoms: C_9  and  C_10
REMARK                            x       y       z     vdW  Elec       q    Type
REMARK                         _______ _______ _______ _____ _____    ______ ____
ROOT
ATOM      1  N   UNL     1      47.860   6.384  13.835  0.00  0.00    +0.000 N 
ATOM      2  C   UNL     1      47.799   5.512  15.004  0.00  0.00    +0.000 C 
ATOM      3  C   UNL     1      46.970   4.274  14.595  0.00  0.00    +0.000 C 
ATOM      4  C   UNL     1      46.386   4.712  13.290  0.00  0.00    +0.000 A 
ATOM      5  C   UNL     1      45.446   4.052  12.510  0.00  0.00    +0.000 A 
ATOM      6  C   UNL     1      45.079   4.623  11.284  0.00  0.00    +0.000 A 
ATOM      7  C   UNL     1      45.690   5.825  10.869  0.00  0.00    +0.000 A 
ATOM      8  C   UNL     1      46.644   6.466  11.671  0.00  0.00    +0.000 A 
ATOM      9  C   UNL     1      46.979   5.911  12.889  0.00  0.00    +0.000 A 
ENDROOT
BRANCH   6  10
ATOM     10  C   UNL     1      44.057   4.023  10.380  0.00  0.00    +0.000 C 
ATOM     11  N   UNL     1      44.017   4.426   9.074  0.00  0.00    +0.000 N 
ATOM     12  O   UNL     1      43.270   3.169  10.775  0.00  0.00    +0.000 OA
ATOM     13  H   UNL     1      44.638   5.095   8.651  0.00  0.00    +0.000 HD
ATOM     14  H   UNL     1      43.328   3.976   8.486  0.00  0.00    +0.000 HD
ENDBRANCH   6  10
BRANCH   1  15
ATOM     15  C   UNL     1      48.761   7.518  13.715  0.00  0.00    +0.000 C 
BRANCH  15  16
ATOM     16  C   UNL     1      48.050   8.871  13.929  0.00  0.00    +0.000 C 
BRANCH  16  17
ATOM     17  N   UNL     1      47.495   9.036  15.276  0.00  0.00    +0.000 NA
ATOM     18  H   UNL     1      46.711   8.403  15.406  0.00  0.00    +0.000 HD
ATOM     19  H   UNL     1      47.124   9.986  15.337  0.00  0.00    +0.000 HD
ENDBRANCH  16  17
ENDBRANCH  15  16
ENDBRANCH   1  15
TORSDOF 4
ENDMDL
MODEL 5
REMARK VINA RESULT:    -5.353      3.628      5.926
REMARK INTER + INTRA:          -6.542
REMARK INTER:                  -6.395
REMARK INTRA:                  -0.147
REMARK UNBOUND:                -0.094
REMARK  Name = 
REMARK  4 active torsions:
REMARK  status: ('A' for Active; 'I' for Inactive)
REMARK    1  A    between atoms: N_1  and  C_2
REMARK    2  A    between atoms: C_2  and  C_3
REMARK    3  A    between atoms: C_3  and  N_4
REMARK    4  A    between atoms: C_9  and  C_10
REMARK                            x       y       z     vdW  Elec       q    Type
REMARK                         _______ _______ _______ _____ _____    ______ ____
ROOT
ATOM      1  N   UNL     1      44.302   3.588  10.444  0.00  0.00    +0.000 N 
ATOM      2  C   UNL     1      43.564   2.887  11.489  0.00  0.00    +0.000 C 
ATOM      3  C   UNL     1      43.411   3.874  12.668  0.00  0.00    +0.000 C 
ATOM      4  C   UNL     1      44.352   4.968  12.277  0.00  0.00    +0.000 A 
ATOM      5  C   UNL     1      44.728   6.078  13.021  0.00  0.00    +0.000 A 
ATOM      6  C   UNL     1      45.587   7.014  12.431  0.00  0.00    +0.000 A 
ATOM      7  C   UNL     1      46.016   6.820  11.101  0.00  0.00    +0.000 A 
ATOM      8  C   UNL     1      45.613   5.697  10.368  0.00  0.00    +0.000 A 
ATOM      9  C   UNL     1      44.790   4.764  10.966  0.00  0.00    +0.000 A 
ENDROOT
BRANCH   6  10
ATOM     10  C   UNL     1      46.085   8.224  13.145  0.00  0.00    +0.000 C 
ATOM     11  N   UNL     1      47.009   8.067  14.140  0.00  0.00    +0.000 N 
ATOM     12  O   UNL     1      45.702   9.351  12.847  0.00  0.00    +0.000 OA
ATOM     13  H   UNL     1      47.406   7.191  14.434  0.00  0.00    +0.000 HD
ATOM     14  H   UNL     1      47.343   8.913  14.582  0.00  0.00    +0.000 HD
ENDBRANCH   6  10
BRANCH   1  15
ATOM     15  C   UNL     1      44.425   3.110   9.077  0.00  0.00    +0.000 C 
BRANCH  15  16
ATOM     16  C   UNL     1      45.380   1.904   8.949  0.00  0.00    +0.000 C 
BRANCH  16  17
ATOM     17  N   UNL     1      46.404   2.075   7.915  0.00  0.00    +0.000 NA
ATOM     18  H   UNL     1      46.404   3.036   7.584  0.00  0.00    +0.000 HD
ATOM     19  H   UNL     1      46.137   1.488   7.123  0.00  0.00    +0.000 HD
ENDBRANCH  16  17
ENDBRANCH  15  16
ENDBRANCH   1  15
TORSDOF 4
ENDMDL
MODEL 6
REMARK VINA RESULT:    -5.182      4.661      5.949
REMARK INTER + INTRA:          -6.336
REMARK INTER:                  -6.187
REMARK INTRA:                  -0.149
REMARK UNBOUND:                -0.094
REMARK  Name = 
REMARK  4 active torsions:
REMARK  status: ('A' for Active; 'I' for Inactive)
REMARK    1  A    between atoms: N_1  and  C_2
REMARK    2  A    between atoms: C_2  and  C_3
REMARK    3  A    between atoms: C_3  and  N_4
REMARK    4  A    between atoms: C_9  and  C_10
REMARK                            x       y       z     vdW  Elec       q    Type
REMARK                         _______ _______ _______ _____ _____    ______ ____
ROOT
ATOM      1  N   UNL     1      47.949   6.298  13.899  0.00  0.00    +0.000 N 
ATOM      2  C   UNL     1      48.600   7.269  13.025  0.00  0.00    +0.000 C 
ATOM      3  C   UNL     1      47.706   7.415  11.775  0.00  0.00    +0.000 C 
ATOM      4  C   UNL     1      46.759   6.270  11.937  0.00  0.00    +0.000 A 
ATOM      5  C   UNL     1      45.797   5.822  11.042  0.00  0.00    +0.000 A 
ATOM      6  C   UNL     1      44.974   4.756  11.427  0.00  0.00    +0.000 A 
ATOM      7  C   UNL     1      45.124   4.193  12.712  0.00  0.00    +0.000 A 
ATOM      8  C   UNL     1      46.096   4.671  13.601  0.00  0.00    +0.000 A 
ATOM      9  C   UNL     1      46.922   5.703  13.203  0.00  0.00    +0.000 A 
ENDROOT
BRANCH   6  10
ATOM     10  C   UNL     1      43.932   4.170  10.537  0.00  0.00    +0.000 C 
ATOM     11  N   UNL     1      43.919   4.526   9.217  0.00  0.00    +0.000 N 
ATOM     12  O   UNL     1      43.105   3.367  10.956  0.00  0.00    +0.000 OA
ATOM     13  H   UNL     1      44.572   5.149   8.774  0.00  0.00    +0.000 HD
ATOM     14  H   UNL     1      43.214   4.085   8.640  0.00  0.00    +0.000 HD
ENDBRANCH   6  10
BRANCH   1  15
ATOM     15  C   UNL     1      48.323   6.076  15.285  0.00  0.00    +0.000 C 
BRANCH  15  16
ATOM     16  C   UNL     1      48.987   7.310  15.931  0.00  0.00    +0.000 C 
BRANCH  16  17
ATOM     17  N   UNL     1      48.221   7.871  17.047  0.00  0.00    +0.000 NA
ATOM     18  H   UNL     1      47.997   7.138  17.715  0.00  0.00    +0.000 HD
ATOM     19  H   UNL     1      47.334   8.208  16.668  0.00  0.00    +0.000 HD
ENDBRANCH  16  17
ENDBRANCH  15  16
ENDBRANCH   1  15
TORSDOF 4
ENDMDL
MODEL 7
REMARK VINA RESULT:    -5.123      4.209      5.730
REMARK INTER + INTRA:          -6.265
REMARK INTER:                  -6.111
REMARK INTRA:                  -0.154
REMARK UNBOUND:                -0.094
REMARK  Name = 
REMARK  4 active torsions:
REMARK  status: ('A' for Active; 'I' for Inactive)
REMARK    1  A    between atoms: N_1  and  C_2
REMARK    2  A    between atoms: C_2  and  C_3
REMARK    3  A    between atoms: C_3  and  N_4
REMARK    4  A    between atoms: C_9  and  C_10
REMARK                            x       y       z     vdW  Elec       q    Type
REMARK                         _______ _______ _______ _____ _____    ______ ____
ROOT
ATOM      1  N   UNL     1      46.751   7.422  13.038  0.00  0.00    +0.000 N 
ATOM      2  C   UNL     1      46.194   8.500  12.228  0.00  0.00    +0.000 C 
ATOM      3  C   UNL     1      44.966   7.919  11.493  0.00  0.00    +0.000 C 
ATOM      4  C   UNL     1      45.123   6.453  11.743  0.00  0.00    +0.000 A 
ATOM      5  C   UNL     1      44.373   5.411  11.215  0.00  0.00    +0.000 A 
ATOM      6  C   UNL     1      44.661   4.105  11.634  0.00  0.00    +0.000 A 
ATOM      7  C   UNL     1      45.673   3.892  12.593  0.00  0.00    +0.000 A 
ATOM      8  C   UNL     1      46.408   4.963  13.119  0.00  0.00    +0.000 A 
ATOM      9  C   UNL     1      46.138   6.243  12.679  0.00  0.00    +0.000 A 
ENDROOT
BRANCH   6  10
ATOM     10  C   UNL     1      43.946   2.906  11.110  0.00  0.00    +0.000 C 
ATOM     11  N   UNL     1      44.462   2.257  10.023  0.00  0.00    +0.000 N 
ATOM     12  O   UNL     1      42.926   2.482  11.642  0.00  0.00    +0.000 OA
ATOM     13  H   UNL     1      45.307   2.509   9.539  0.00  0.00    +0.000 HD
ATOM     14  H   UNL     1      43.964   1.432   9.714  0.00  0.00    +0.000 HD
ENDBRANCH   6  10
BRANCH   1  15
ATOM     15  C   UNL     1      47.746   7.620  14.079  0.00  0.00    +0.000 C 
BRANCH  15  16
ATOM     16  C   UNL     1      49.192   7.477  13.560  0.00  0.00    +0.000 C 
BRANCH  16  17
ATOM     17  N   UNL     1      50.130   6.973  14.567  0.00  0.00    +0.000 NA
ATOM     18  H   UNL     1      50.855   6.422  14.117  0.00  0.00    +0.000 HD
ATOM     19  H   UNL     1      49.609   6.339  15.176  0.00  0.00    +0.000 HD
ENDBRANCH  16  17
ENDBRANCH  15  16
ENDBRANCH   1  15
TORSDOF 4
ENDMDL
MODEL 8
REMARK VINA RESULT:    -5.121      4.990      6.263
REMARK INTER + INTRA:          -6.262
REMARK INTER:                  -6.102
REMARK INTRA:                  -0.160
REMARK UNBOUND:                -0.094
REMARK  Name = 
REMARK  4 active torsions:
REMARK  status: ('A' for Active; 'I' for Inactive)
REMARK    1  A    between atoms: N_1  and  C_2
REMARK    2  A    between atoms: C_2  and  C_3
REMARK    3  A    between atoms: C_3  and  N_4
REMARK    4  A    between atoms: C_9  and  C_10
REMARK                            x       y       z     vdW  Elec       q    Type
REMARK                         _______ _______ _______ _____ _____    ______ ____
ROOT
ATOM      1  N   UNL     1      47.702   5.105  15.454  0.00  0.00    +0.000 N 
ATOM      2  C   UNL     1      48.574   6.275  15.436  0.00  0.00    +0.000 C 
ATOM      3  C   UNL     1      48.180   7.109  14.197  0.00  0.00    +0.000 C 
ATOM      4  C   UNL     1      47.294   6.159  13.456  0.00  0.00    +0.000 A 
ATOM      5  C   UNL     1      46.740   6.317  12.193  0.00  0.00    +0.000 A 
ATOM      6  C   UNL     1      45.886   5.316  11.712  0.00  0.00    +0.000 A 
ATOM      7  C   UNL     1      45.595   4.202  12.527  0.00  0.00    +0.000 A 
ATOM      8  C   UNL     1      46.160   4.072  13.802  0.00  0.00    +0.000 A 
ATOM      9  C   UNL     1      47.022   5.049  14.258  0.00  0.00    +0.000 A 
ENDROOT
BRANCH   6  10
ATOM     10  C   UNL     1      45.261   5.360  10.359  0.00  0.00    +0.000 C 
ATOM     11  N   UNL     1      43.897   5.331  10.265  0.00  0.00    +0.000 N 
ATOM     12  O   UNL     1      45.937   5.441   9.339  0.00  0.00    +0.000 OA
ATOM     13  H   UNL     1      43.259   5.297  11.042  0.00  0.00    +0.000 HD
ATOM     14  H   UNL     1      43.510   5.391   9.332  0.00  0.00    +0.000 HD
ENDBRANCH   6  10
BRANCH   1  15
ATOM     15  C   UNL     1      47.566   4.211  16.590  0.00  0.00    +0.000 C 
BRANCH  15  16
ATOM     16  C   UNL     1      47.756   4.930  17.942  0.00  0.00    +0.000 C 
BRANCH  16  17
ATOM     17  N   UNL     1      46.497   5.338  18.572  0.00  0.00    +0.000 NA
ATOM     18  H   UNL     1      46.338   4.789  19.413  0.00  0.00    +0.000 HD
ATOM     19  H   UNL     1      45.744   5.108  17.921  0.00  0.00    +0.000 HD
ENDBRANCH  16  17
ENDBRANCH  15  16
ENDBRANCH   1  15
TORSDOF 4
ENDMDL
MODEL 9
REMARK VINA RESULT:    -5.065      4.660      6.281
REMARK INTER + INTRA:          -6.195
REMARK INTER:                  -6.045
REMARK INTRA:                  -0.150
REMARK UNBOUND:                -0.094
REMARK  Name = 
REMARK  4 active torsions:
REMARK  status: ('A' for Active; 'I' for Inactive)
REMARK    1  A    between atoms: N_1  and  C_2
REMARK    2  A    between atoms: C_2  and  C_3
REMARK    3  A    between atoms: C_3  and  N_4
REMARK    4  A    between atoms: C_9  and  C_10
REMARK                            x       y       z     vdW  Elec       q    Type
REMARK                         _______ _______ _______ _____ _____    ______ ____
ROOT
ATOM      1  N   UNL     1      44.245   5.035  12.463  0.00  0.00    +0.000 N 
ATOM      2  C   UNL     1      43.762   6.103  11.593  0.00  0.00    +0.000 C 
ATOM      3  C   UNL     1      44.938   7.085  11.396  0.00  0.00    +0.000 C 
ATOM      4  C   UNL     1      45.909   6.616  12.432  0.00  0.00    +0.000 A 
ATOM      5  C   UNL     1      47.109   7.204  12.807  0.00  0.00    +0.000 A 
ATOM      6  C   UNL     1      47.894   6.557  13.769  0.00  0.00    +0.000 A 
ATOM      7  C   UNL     1      47.462   5.324  14.303  0.00  0.00    +0.000 A 
ATOM      8  C   UNL     1      46.251   4.747  13.899  0.00  0.00    +0.000 A 
ATOM      9  C   UNL     1      45.469   5.405  12.972  0.00  0.00    +0.000 A 
ENDROOT
BRANCH   6  10
ATOM     10  C   UNL     1      49.183   7.110  14.274  0.00  0.00    +0.000 C 
ATOM     11  N   UNL     1      49.704   8.219  13.668  0.00  0.00    +0.000 N 
ATOM     12  O   UNL     1      49.772   6.606  15.225  0.00  0.00    +0.000 OA
ATOM     13  H   UNL     1      49.282   8.720  12.905  0.00  0.00    +0.000 HD
ATOM     14  H   UNL     1      50.566   8.581  14.057  0.00  0.00    +0.000 HD
ENDBRANCH   6  10
BRANCH   1  15
ATOM     15  C   UNL     1      43.540   3.783  12.678  0.00  0.00    +0.000 C 
BRANCH  15  16
ATOM     16  C   UNL     1      43.448   2.922  11.400  0.00  0.00    +0.000 C 
BRANCH  16  17
ATOM     17  N   UNL     1      43.020   1.543  11.651  0.00  0.00    +0.000 NA
ATOM     18  H   UNL     1      43.237   0.962  10.847  0.00  0.00    +0.000 HD
ATOM     19  H   UNL     1      42.002   1.553  11.744  0.00  0.00    +0.000 HD
ENDBRANCH  16  17
ENDBRANCH  15  16
ENDBRANCH   1  15
TORSDOF 4
ENDMDL
