MODEL 1
REMARK VINA RESULT:    -7.962      0.000      0.000
REMARK INTER + INTRA:         -11.769
REMARK INTER:                 -10.755
REMARK INTRA:                  -1.014
REMARK UNBOUND:                -1.014
REMARK  Name = 
REMARK  6 active torsions:
REMARK  status: ('A' for Active; 'I' for Inactive)
REMARK    1  A    between atoms: C_2  and  C_20
REMARK    2  A    between atoms: N_3  and  C_4
REMARK    3  A    between atoms: C_4  and  C_5
REMARK    4  A    between atoms: C_8  and  C_9
REMARK    5  A    between atoms: C_9  and  N_10
REMARK    6  A    between atoms: C_11  and  C_13
REMARK                            x       y       z     vdW  Elec       q    Type
REMARK                         _______ _______ _______ _____ _____    ______ ____
ROOT
ATOM      1  C   UNL     1      46.515   7.562  12.949  0.00  0.00    +0.000 A 
ATOM      2  C   UNL     1      46.661   6.182  12.752  0.00  0.00    +0.000 A 
ATOM      3  C   UNL     1      45.718   5.462  12.011  0.00  0.00    +0.000 A 
ATOM      4  C   UNL     1      44.620   6.111  11.431  0.00  0.00    +0.000 A 
ATOM      5  C   UNL     1      44.478   7.492  11.621  0.00  0.00    +0.000 A 
ATOM      6  C   UNL     1      45.422   8.212  12.362  0.00  0.00    +0.000 A 
ENDROOT
BRANCH   1   7
ATOM      7  C   UNL     1      47.543   8.337  13.735  0.00  0.00    +0.000 C 
BRANCH   7  10
ATOM      8  O   UNL     1      50.026   7.172  14.247  0.00  0.00    +0.000 OA
ATOM      9  C   UNL     1      49.177   7.155  15.133  0.00  0.00    +0.000 C 
ATOM     10  N   UNL     1      47.907   7.637  14.942  0.00  0.00    +0.000 N 
ATOM     11  H   UNL     1      47.310   7.791  15.747  0.00  0.00    +0.000 HD
BRANCH   9  12
ATOM     12  C   UNL     1      49.454   6.571  16.452  0.00  0.00    +0.000 A 
ATOM     13  C   UNL     1      50.275   7.238  17.351  0.00  0.00    +0.000 A 
ATOM     14  S   UNL     1      50.502   6.399  18.819  0.00  0.00    +0.000 S 
ATOM     15  C   UNL     1      49.469   5.141  18.325  0.00  0.00    +0.000 A 
ATOM     16  N   UNL     1      49.198   4.091  19.146  0.00  0.00    +0.000 NA
ATOM     17  C   UNL     1      48.369   3.229  18.656  0.00  0.00    +0.000 A 
ATOM     18  N   UNL     1      47.796   3.317  17.415  0.00  0.00    +0.000 N 
ATOM     19  C   UNL     1      48.066   4.338  16.539  0.00  0.00    +0.000 A 
ATOM     20  O   UNL     1      47.573   4.358  15.415  0.00  0.00    +0.000 OA
ATOM     21  C   UNL     1      48.977   5.346  17.048  0.00  0.00    +0.000 A 
ATOM     22  H   UNL     1      47.166   2.600  17.086  0.00  0.00    +0.000 HD
ENDBRANCH   9  12
ENDBRANCH   7  10
ENDBRANCH   1   7
BRANCH   4  23
ATOM     23  C   UNL     1      43.624   5.345  10.602  0.00  0.00    +0.000 C 
BRANCH  23  24
ATOM     24  N   UNL     1      44.208   4.747   9.428  0.00  0.00    +0.000 N 
ATOM     25  C   UNL     1      44.445   3.393   9.370  0.00  0.00    +0.000 C 
ATOM     26  O   UNL     1      44.231   2.635  10.314  0.00  0.00    +0.000 OA
ATOM     27  H   UNL     1      44.289   5.261   8.555  0.00  0.00    +0.000 HD
BRANCH  25  28
ATOM     28  C   UNL     1      45.082   2.900   8.067  0.00  0.00    +0.000 C 
ATOM     29  C   UNL     1      46.053   1.763   8.317  0.00  0.00    +0.000 C 
ATOM     30  C   UNL     1      46.895   1.757   7.055  0.00  0.00    +0.000 C 
ATOM     31  C   UNL     1      46.885   3.203   6.577  0.00  0.00    +0.000 C 
ATOM     32  N   UNL     1      45.947   3.931   7.441  0.00  0.00    +0.000 NA
ATOM     33  H   UNL     1      45.373   4.562   6.883  0.00  0.00    +0.000 HD
ENDBRANCH  25  28
ENDBRANCH  23  24
ENDBRANCH   4  23
TORSDOF 6
ENDMDL
MODEL 2
REMARK VINA RESULT:    -7.479      4.406      9.529
REMARK INTER + INTRA:         -11.116
REMARK INTER:                 -10.237
REMARK INTRA:                  -0.879
REMARK UNBOUND:                -1.014
REMARK  Name = 
REMARK  6 active torsions:
REMARK  status: ('A' for Active; 'I' for Inactive)
REMARK    1  A    between atoms: C_2  and  C_20
REMARK    2  A    between atoms: N_3  and  C_4
REMARK    3  A    between atoms: C_4  and  C_5
REMARK    4  A    between atoms: C_8  and  C_9
REMARK    5  A    between atoms: C_9  and  N_10
REMARK    6  A    between atoms: C_11  and  C_13
REMARK                            x       y       z     vdW  Elec       q    Type
REMARK                         _______ _______ _______ _____ _____    ______ ____
ROOT
ATOM      1  C   UNL     1      48.646   3.444  17.127  0.00  0.00    +0.000 A 
ATOM      2  C   UNL     1      49.249   4.651  17.506  0.00  0.00    +0.000 A 
ATOM      3  C   UNL     1      50.616   4.706  17.801  0.00  0.00    +0.000 A 
ATOM      4  C   UNL     1      51.414   3.559  17.700  0.00  0.00    +0.000 A 
ATOM      5  C   UNL     1      50.813   2.354  17.313  0.00  0.00    +0.000 A 
ATOM      6  C   UNL     1      49.446   2.299  17.018  0.00  0.00    +0.000 A 
ENDROOT
BRANCH   1   7
ATOM      7  C   UNL     1      47.176   3.392  16.795  0.00  0.00    +0.000 C 
BRANCH   7  10
ATOM      8  O   UNL     1      47.228   3.094  14.022  0.00  0.00    +0.000 OA
ATOM      9  C   UNL     1      46.816   4.151  14.490  0.00  0.00    +0.000 C 
ATOM     10  N   UNL     1      46.826   4.410  15.837  0.00  0.00    +0.000 N 
ATOM     11  H   UNL     1      46.296   5.198  16.193  0.00  0.00    +0.000 HD
BRANCH   9  12
ATOM     12  C   UNL     1      46.324   5.234  13.628  0.00  0.00    +0.000 A 
ATOM     13  C   UNL     1      47.105   6.360  13.409  0.00  0.00    +0.000 A 
ATOM     14  S   UNL     1      46.361   7.520  12.402  0.00  0.00    +0.000 S 
ATOM     15  C   UNL     1      44.991   6.534  12.184  0.00  0.00    +0.000 A 
ATOM     16  N   UNL     1      43.961   6.929  11.388  0.00  0.00    +0.000 NA
ATOM     17  C   UNL     1      43.005   6.067  11.283  0.00  0.00    +0.000 A 
ATOM     18  N   UNL     1      42.981   4.850  11.911  0.00  0.00    +0.000 N 
ATOM     19  C   UNL     1      43.980   4.424  12.750  0.00  0.00    +0.000 A 
ATOM     20  O   UNL     1      43.901   3.348  13.337  0.00  0.00    +0.000 OA
ATOM     21  C   UNL     1      45.090   5.348  12.888  0.00  0.00    +0.000 A 
ATOM     22  H   UNL     1      42.195   4.226  11.799  0.00  0.00    +0.000 HD
ENDBRANCH   9  12
ENDBRANCH   7  10
ENDBRANCH   1   7
BRANCH   4  23
ATOM     23  C   UNL     1      52.892   3.623  17.980  0.00  0.00    +0.000 C 
BRANCH  23  24
ATOM     24  N   UNL     1      53.564   2.369  17.756  0.00  0.00    +0.000 N 
ATOM     25  C   UNL     1      54.157   1.691  18.797  0.00  0.00    +0.000 C 
ATOM     26  O   UNL     1      54.200   2.131  19.944  0.00  0.00    +0.000 OA
ATOM     27  H   UNL     1      53.463   1.861  16.882  0.00  0.00    +0.000 HD
BRANCH  25  28
ATOM     28  C   UNL     1      54.846   0.379  18.409  0.00  0.00    +0.000 C 
ATOM     29  C   UNL     1      54.640   0.053  16.943  0.00  0.00    +0.000 C 
ATOM     30  C   UNL     1      54.948  -1.431  16.883  0.00  0.00    +0.000 C 
ATOM     31  C   UNL     1      54.577  -1.960  18.262  0.00  0.00    +0.000 C 
ATOM     32  N   UNL     1      54.240  -0.793  19.088  0.00  0.00    +0.000 NA
ATOM     33  H   UNL     1      54.645  -0.893  20.019  0.00  0.00    +0.000 HD
ENDBRANCH  25  28
ENDBRANCH  23  24
ENDBRANCH   4  23
TORSDOF 6
ENDMDL
MODEL 3
REMARK VINA RESULT:    -7.411      1.693      2.255
REMARK INTER + INTRA:         -11.025
REMARK INTER:                 -10.059
REMARK INTRA:                  -0.966
REMARK UNBOUND:                -1.014
REMARK  Name = 
REMARK  6 active torsions:
REMARK  status: ('A' for Active; 'I' for Inactive)
REMARK    1  A    between atoms: C_2  and  C_20
REMARK    2  A    between atoms: N_3  and  C_4
REMARK    3  A    between atoms: C_4  and  C_5
REMARK    4  A    between atoms: C_8  and  C_9
REMARK    5  A    between atoms: C_9  and  N_10
REMARK    6  A    between atoms: C_11  and  C_13
REMARK                            x       y       z     vdW  Elec       q    Type
REMARK                         _______ _______ _______ _____ _____    ______ ____
ROOT
ATOM      1  C   UNL     1      46.836   7.311  13.109  0.00  0.00    +0.000 A 
ATOM      2  C   UNL     1      45.996   8.036  12.254  0.00  0.00    +0.000 A 
ATOM      3  C   UNL     1      45.069   7.381  11.437  0.00  0.00    +0.000 A 
ATOM      4  C   UNL     1      44.943   5.987  11.476  0.00  0.00    +0.000 A 
ATOM      5  C   UNL     1      45.777   5.261  12.337  0.00  0.00    +0.000 A 
ATOM      6  C   UNL     1      46.705   5.916  13.155  0.00  0.00    +0.000 A 
ENDROOT
BRANCH   1   7
ATOM      7  C   UNL     1      47.824   8.022  13.999  0.00  0.00    +0.000 C 
BRANCH   7  10
ATOM      8  O   UNL     1      50.159   6.840  14.966  0.00  0.00    +0.000 OA
ATOM      9  C   UNL     1      49.167   6.854  15.688  0.00  0.00    +0.000 C 
ATOM     10  N   UNL     1      47.958   7.347  15.266  0.00  0.00    +0.000 N 
ATOM     11  H   UNL     1      47.231   7.527  15.950  0.00  0.00    +0.000 HD
BRANCH   9  12
ATOM     12  C   UNL     1      49.198   6.299  17.048  0.00  0.00    +0.000 A 
ATOM     13  C   UNL     1      49.777   5.060  17.281  0.00  0.00    +0.000 A 
ATOM     14  S   UNL     1      49.700   4.567  18.914  0.00  0.00    +0.000 S 
ATOM     15  C   UNL     1      48.935   6.016  19.373  0.00  0.00    +0.000 A 
ATOM     16  N   UNL     1      48.610   6.258  20.671  0.00  0.00    +0.000 NA
ATOM     17  C   UNL     1      48.069   7.412  20.881  0.00  0.00    +0.000 A 
ATOM     18  N   UNL     1      47.814   8.342  19.908  0.00  0.00    +0.000 N 
ATOM     19  C   UNL     1      48.093   8.128  18.581  0.00  0.00    +0.000 A 
ATOM     20  O   UNL     1      47.804   8.964  17.729  0.00  0.00    +0.000 OA
ATOM     21  C   UNL     1      48.721   6.853  18.292  0.00  0.00    +0.000 A 
ATOM     22  H   UNL     1      47.374   9.222  20.137  0.00  0.00    +0.000 HD
ENDBRANCH   9  12
ENDBRANCH   7  10
ENDBRANCH   1   7
BRANCH   4  23
ATOM     23  C   UNL     1      43.920   5.282  10.626  0.00  0.00    +0.000 C 
BRANCH  23  24
ATOM     24  N   UNL     1      44.486   4.674   9.449  0.00  0.00    +0.000 N 
ATOM     25  C   UNL     1      44.450   3.309   9.274  0.00  0.00    +0.000 C 
ATOM     26  O   UNL     1      43.994   2.538  10.116  0.00  0.00    +0.000 OA
ATOM     27  H   UNL     1      44.756   5.229   8.642  0.00  0.00    +0.000 HD
BRANCH  25  28
ATOM     28  C   UNL     1      45.101   2.802   7.984  0.00  0.00    +0.000 C 
ATOM     29  C   UNL     1      46.114   1.709   8.262  0.00  0.00    +0.000 C 
ATOM     30  C   UNL     1      46.953   1.697   6.999  0.00  0.00    +0.000 C 
ATOM     31  C   UNL     1      46.890   3.127   6.480  0.00  0.00    +0.000 C 
ATOM     32  N   UNL     1      45.928   3.846   7.326  0.00  0.00    +0.000 NA
ATOM     33  H   UNL     1      45.330   4.440   6.752  0.00  0.00    +0.000 HD
ENDBRANCH  25  28
ENDBRANCH  23  24
ENDBRANCH   4  23
TORSDOF 6
ENDMDL
MODEL 4
REMARK VINA RESULT:    -7.121      3.238      4.337
REMARK INTER + INTRA:         -10.632
REMARK INTER:                  -9.695
REMARK INTRA:                  -0.938
REMARK UNBOUND:                -1.014
REMARK  Name = 
REMARK  6 active torsions:
REMARK  status: ('A' for Active; 'I' for Inactive)
REMARK    1  A    between atoms: C_2  and  C_20
REMARK    2  A    between atoms: N_3  and  C_4
REMARK    3  A    between atoms: C_4  and  C_5
REMARK    4  A    between atoms: C_8  and  C_9
REMARK    5  A    between atoms: C_9  and  N_10
REMARK    6  A    between atoms: C_11  and  C_13
REMARK                            x       y       z     vdW  Elec       q    Type
REMARK                         _______ _______ _______ _____ _____    ______ ____
ROOT
ATOM      1  C   UNL     1      48.001   5.076  15.960  0.00  0.00    +0.000 A 
ATOM      2  C   UNL     1      48.522   6.300  15.521  0.00  0.00    +0.000 A 
ATOM      3  C   UNL     1      48.152   6.832  14.281  0.00  0.00    +0.000 A 
ATOM      4  C   UNL     1      47.232   6.162  13.464  0.00  0.00    +0.000 A 
ATOM      5  C   UNL     1      46.704   4.941  13.906  0.00  0.00    +0.000 A 
ATOM      6  C   UNL     1      47.076   4.409  15.147  0.00  0.00    +0.000 A 
ENDROOT
BRANCH   1   7
ATOM      7  C   UNL     1      48.392   4.514  17.304  0.00  0.00    +0.000 C 
BRANCH   7  10
ATOM      8  O   UNL     1      50.074   4.769  19.516  0.00  0.00    +0.000 OA
ATOM      9  C   UNL     1      50.526   4.268  18.490  0.00  0.00    +0.000 C 
ATOM     10  N   UNL     1      49.792   4.173  17.335  0.00  0.00    +0.000 N 
ATOM     11  H   UNL     1      50.126   3.577  16.585  0.00  0.00    +0.000 HD
BRANCH   9  12
ATOM     12  C   UNL     1      51.908   3.776  18.420  0.00  0.00    +0.000 A 
ATOM     13  C   UNL     1      52.953   4.563  18.884  0.00  0.00    +0.000 A 
ATOM     14  S   UNL     1      54.487   3.837  18.699  0.00  0.00    +0.000 S 
ATOM     15  C   UNL     1      53.802   2.426  18.041  0.00  0.00    +0.000 A 
ATOM     16  N   UNL     1      54.579   1.368  17.684  0.00  0.00    +0.000 NA
ATOM     17  C   UNL     1      53.924   0.350  17.233  0.00  0.00    +0.000 A 
ATOM     18  N   UNL     1      52.562   0.298  17.097  0.00  0.00    +0.000 N 
ATOM     19  C   UNL     1      51.741   1.352  17.410  0.00  0.00    +0.000 A 
ATOM     20  O   UNL     1      50.529   1.289  17.227  0.00  0.00    +0.000 OA
ATOM     21  C   UNL     1      52.425   2.516  17.941  0.00  0.00    +0.000 A 
ATOM     22  H   UNL     1      52.112  -0.524  16.723  0.00  0.00    +0.000 HD
ENDBRANCH   9  12
ENDBRANCH   7  10
ENDBRANCH   1   7
BRANCH   4  23
ATOM     23  C   UNL     1      46.802   6.750  12.147  0.00  0.00    +0.000 C 
BRANCH  23  24
ATOM     24  N   UNL     1      46.192   5.784  11.269  0.00  0.00    +0.000 N 
ATOM     25  C   UNL     1      44.833   5.784  11.055  0.00  0.00    +0.000 C 
ATOM     26  O   UNL     1      44.065   6.553  11.630  0.00  0.00    +0.000 OA
ATOM     27  H   UNL     1      46.750   5.204  10.648  0.00  0.00    +0.000 HD
BRANCH  25  28
ATOM     28  C   UNL     1      44.323   4.692  10.110  0.00  0.00    +0.000 C 
ATOM     29  C   UNL     1      44.770   3.313  10.557  0.00  0.00    +0.000 C 
ATOM     30  C   UNL     1      44.602   2.481   9.301  0.00  0.00    +0.000 C 
ATOM     31  C   UNL     1      44.810   3.463   8.156  0.00  0.00    +0.000 C 
ATOM     32  N   UNL     1      44.921   4.800   8.756  0.00  0.00    +0.000 NA
ATOM     33  H   UNL     1      44.393   5.477   8.205  0.00  0.00    +0.000 HD
ENDBRANCH  25  28
ENDBRANCH  23  24
ENDBRANCH   4  23
TORSDOF 6
ENDMDL
MODEL 5
REMARK VINA RESULT:    -7.097      1.917      2.312
REMARK INTER + INTRA:         -10.600
REMARK INTER:                  -9.582
REMARK INTRA:                  -1.018
REMARK UNBOUND:                -1.014
REMARK  Name = 
REMARK  6 active torsions:
REMARK  status: ('A' for Active; 'I' for Inactive)
REMARK    1  A    between atoms: C_2  and  C_20
REMARK    2  A    between atoms: N_3  and  C_4
REMARK    3  A    between atoms: C_4  and  C_5
REMARK    4  A    between atoms: C_8  and  C_9
REMARK    5  A    between atoms: C_9  and  N_10
REMARK    6  A    between atoms: C_11  and  C_13
REMARK                            x       y       z     vdW  Elec       q    Type
REMARK                         _______ _______ _______ _____ _____    ______ ____
ROOT
ATOM      1  C   UNL     1      47.059   6.396  13.643  0.00  0.00    +0.000 A 
ATOM      2  C   UNL     1      45.958   6.744  12.850  0.00  0.00    +0.000 A 
ATOM      3  C   UNL     1      45.152   5.756  12.271  0.00  0.00    +0.000 A 
ATOM      4  C   UNL     1      45.417   4.399  12.496  0.00  0.00    +0.000 A 
ATOM      5  C   UNL     1      46.513   4.051  13.296  0.00  0.00    +0.000 A 
ATOM      6  C   UNL     1      47.319   5.039  13.874  0.00  0.00    +0.000 A 
ENDROOT
BRANCH   1   7
ATOM      7  C   UNL     1      47.915   7.464  14.276  0.00  0.00    +0.000 C 
BRANCH   7  10
ATOM      8  O   UNL     1      49.610   8.669  16.136  0.00  0.00    +0.000 OA
ATOM      9  C   UNL     1      49.893   7.547  15.725  0.00  0.00    +0.000 C 
ATOM     10  N   UNL     1      49.157   6.913  14.756  0.00  0.00    +0.000 N 
ATOM     11  H   UNL     1      49.301   5.922  14.597  0.00  0.00    +0.000 HD
BRANCH   9  12
ATOM     12  C   UNL     1      51.073   6.824  16.217  0.00  0.00    +0.000 A 
ATOM     13  C   UNL     1      52.344   7.345  16.012  0.00  0.00    +0.000 A 
ATOM     14  S   UNL     1      53.592   6.357  16.629  0.00  0.00    +0.000 S 
ATOM     15  C   UNL     1      52.474   5.227  17.236  0.00  0.00    +0.000 A 
ATOM     16  N   UNL     1      52.889   4.126  17.919  0.00  0.00    +0.000 NA
ATOM     17  C   UNL     1      51.932   3.374  18.353  0.00  0.00    +0.000 A 
ATOM     18  N   UNL     1      50.599   3.619  18.157  0.00  0.00    +0.000 N 
ATOM     19  C   UNL     1      50.135   4.696  17.445  0.00  0.00    +0.000 A 
ATOM     20  O   UNL     1      48.934   4.856  17.245  0.00  0.00    +0.000 OA
ATOM     21  C   UNL     1      51.169   5.585  16.950  0.00  0.00    +0.000 A 
ATOM     22  H   UNL     1      49.900   2.981  18.511  0.00  0.00    +0.000 HD
ENDBRANCH   9  12
ENDBRANCH   7  10
ENDBRANCH   1   7
BRANCH   4  23
ATOM     23  C   UNL     1      44.529   3.335  11.907  0.00  0.00    +0.000 C 
BRANCH  23  24
ATOM     24  N   UNL     1      44.983   2.870  10.621  0.00  0.00    +0.000 N 
ATOM     25  C   UNL     1      44.579   3.493   9.463  0.00  0.00    +0.000 C 
ATOM     26  O   UNL     1      43.780   4.428   9.449  0.00  0.00    +0.000 OA
ATOM     27  H   UNL     1      45.745   2.202  10.536  0.00  0.00    +0.000 HD
BRANCH  25  28
ATOM     28  C   UNL     1      45.129   2.882   8.170  0.00  0.00    +0.000 C 
ATOM     29  C   UNL     1      46.063   1.723   8.454  0.00  0.00    +0.000 C 
ATOM     30  C   UNL     1      46.840   1.591   7.159  0.00  0.00    +0.000 C 
ATOM     31  C   UNL     1      46.867   2.999   6.579  0.00  0.00    +0.000 C 
ATOM     32  N   UNL     1      46.004   3.827   7.432  0.00  0.00    +0.000 NA
ATOM     33  H   UNL     1      45.430   4.444   6.858  0.00  0.00    +0.000 HD
ENDBRANCH  25  28
ENDBRANCH  23  24
ENDBRANCH   4  23
TORSDOF 6
ENDMDL
MODEL 6
REMARK VINA RESULT:    -7.040      1.845      2.579
REMARK INTER + INTRA:         -10.524
REMARK INTER:                  -9.547
REMARK INTRA:                  -0.977
REMARK UNBOUND:                -1.014
REMARK  Name = 
REMARK  6 active torsions:
REMARK  status: ('A' for Active; 'I' for Inactive)
REMARK    1  A    between atoms: C_2  and  C_20
REMARK    2  A    between atoms: N_3  and  C_4
REMARK    3  A    between atoms: C_4  and  C_5
REMARK    4  A    between atoms: C_8  and  C_9
REMARK    5  A    between atoms: C_9  and  N_10
REMARK    6  A    between atoms: C_11  and  C_13
REMARK                            x       y       z     vdW  Elec       q    Type
REMARK                         _______ _______ _______ _____ _____    ______ ____
ROOT
ATOM      1  C   UNL     1      46.562   7.801  12.913  0.00  0.00    +0.000 A 
ATOM      2  C   UNL     1      46.652   6.404  12.955  0.00  0.00    +0.000 A 
ATOM      3  C   UNL     1      45.695   5.606  12.319  0.00  0.00    +0.000 A 
ATOM      4  C   UNL     1      44.640   6.189  11.605  0.00  0.00    +0.000 A 
ATOM      5  C   UNL     1      44.554   7.587  11.556  0.00  0.00    +0.000 A 
ATOM      6  C   UNL     1      45.512   8.385  12.193  0.00  0.00    +0.000 A 
ENDROOT
BRANCH   1   7
ATOM      7  C   UNL     1      47.604   8.658  13.587  0.00  0.00    +0.000 C 
BRANCH   7  10
ATOM      8  O   UNL     1      48.153   8.994  16.302  0.00  0.00    +0.000 OA
ATOM      9  C   UNL     1      48.668   8.048  15.712  0.00  0.00    +0.000 C 
ATOM     10  N   UNL     1      48.512   7.852  14.364  0.00  0.00    +0.000 N 
ATOM     11  H   UNL     1      48.778   6.960  13.960  0.00  0.00    +0.000 HD
BRANCH   9  12
ATOM     12  C   UNL     1      49.529   7.084  16.410  0.00  0.00    +0.000 A 
ATOM     13  C   UNL     1      48.985   6.215  17.346  0.00  0.00    +0.000 A 
ATOM     14  S   UNL     1      50.137   5.185  18.071  0.00  0.00    +0.000 S 
ATOM     15  C   UNL     1      51.393   5.830  17.121  0.00  0.00    +0.000 A 
ATOM     16  N   UNL     1      52.665   5.359  17.224  0.00  0.00    +0.000 NA
ATOM     17  C   UNL     1      53.508   5.913  16.418  0.00  0.00    +0.000 A 
ATOM     18  N   UNL     1      53.196   6.904  15.525  0.00  0.00    +0.000 N 
ATOM     19  C   UNL     1      51.936   7.435  15.410  0.00  0.00    +0.000 A 
ATOM     20  O   UNL     1      51.704   8.358  14.635  0.00  0.00    +0.000 OA
ATOM     21  C   UNL     1      50.944   6.832  16.281  0.00  0.00    +0.000 A 
ATOM     22  H   UNL     1      53.908   7.307  14.932  0.00  0.00    +0.000 HD
ENDBRANCH   9  12
ENDBRANCH   7  10
ENDBRANCH   1   7
BRANCH   4  23
ATOM     23  C   UNL     1      43.631   5.333  10.887  0.00  0.00    +0.000 C 
BRANCH  23  24
ATOM     24  N   UNL     1      44.129   4.794   9.648  0.00  0.00    +0.000 N 
ATOM     25  C   UNL     1      44.585   3.497   9.575  0.00  0.00    +0.000 C 
ATOM     26  O   UNL     1      44.648   2.755  10.553  0.00  0.00    +0.000 OA
ATOM     27  H   UNL     1      43.989   5.276   8.764  0.00  0.00    +0.000 HD
BRANCH  25  28
ATOM     28  C   UNL     1      45.097   3.064   8.198  0.00  0.00    +0.000 C 
ATOM     29  C   UNL     1      46.064   1.901   8.303  0.00  0.00    +0.000 C 
ATOM     30  C   UNL     1      46.793   1.949   6.974  0.00  0.00    +0.000 C 
ATOM     31  C   UNL     1      46.770   3.418   6.573  0.00  0.00    +0.000 C 
ATOM     32  N   UNL     1      45.925   4.114   7.553  0.00  0.00    +0.000 NA
ATOM     33  H   UNL     1      45.317   4.782   7.080  0.00  0.00    +0.000 HD
ENDBRANCH  25  28
ENDBRANCH  23  24
ENDBRANCH   4  23
TORSDOF 6
ENDMDL
MODEL 7
REMARK VINA RESULT:    -6.835      1.889      2.410
REMARK INTER + INTRA:         -10.246
REMARK INTER:                  -9.206
REMARK INTRA:                  -1.040
REMARK UNBOUND:                -1.014
REMARK  Name = 
REMARK  6 active torsions:
REMARK  status: ('A' for Active; 'I' for Inactive)
REMARK    1  A    between atoms: C_2  and  C_20
REMARK    2  A    between atoms: N_3  and  C_4
REMARK    3  A    between atoms: C_4  and  C_5
REMARK    4  A    between atoms: C_8  and  C_9
REMARK    5  A    between atoms: C_9  and  N_10
REMARK    6  A    between atoms: C_11  and  C_13
REMARK                            x       y       z     vdW  Elec       q    Type
REMARK                         _______ _______ _______ _____ _____    ______ ____
ROOT
ATOM      1  C   UNL     1      49.098   8.333  12.603  0.00  0.00    +0.000 A 
ATOM      2  C   UNL     1      48.633   7.015  12.511  0.00  0.00    +0.000 A 
ATOM      3  C   UNL     1      47.290   6.748  12.226  0.00  0.00    +0.000 A 
ATOM      4  C   UNL     1      46.387   7.795  12.001  0.00  0.00    +0.000 A 
ATOM      5  C   UNL     1      46.852   9.114  12.084  0.00  0.00    +0.000 A 
ATOM      6  C   UNL     1      48.197   9.381  12.370  0.00  0.00    +0.000 A 
ENDROOT
BRANCH   1   7
ATOM      7  C   UNL     1      50.549   8.616  12.897  0.00  0.00    +0.000 C 
BRANCH   7  10
ATOM      8  O   UNL     1      50.511   9.029  15.656  0.00  0.00    +0.000 OA
ATOM      9  C   UNL     1      50.940   7.961  15.229  0.00  0.00    +0.000 C 
ATOM     10  N   UNL     1      51.064   7.704  13.887  0.00  0.00    +0.000 N 
ATOM     11  H   UNL     1      51.225   6.751  13.579  0.00  0.00    +0.000 HD
BRANCH   9  12
ATOM     12  C   UNL     1      51.394   6.898  16.135  0.00  0.00    +0.000 A 
ATOM     13  C   UNL     1      52.733   6.810  16.490  0.00  0.00    +0.000 A 
ATOM     14  S   UNL     1      53.078   5.500  17.529  0.00  0.00    +0.000 S 
ATOM     15  C   UNL     1      51.442   5.037  17.580  0.00  0.00    +0.000 A 
ATOM     16  N   UNL     1      51.034   3.980  18.332  0.00  0.00    +0.000 NA
ATOM     17  C   UNL     1      49.761   3.765  18.307  0.00  0.00    +0.000 A 
ATOM     18  N   UNL     1      48.859   4.505  17.589  0.00  0.00    +0.000 N 
ATOM     19  C   UNL     1      49.228   5.558  16.790  0.00  0.00    +0.000 A 
ATOM     20  O   UNL     1      48.398   6.167  16.120  0.00  0.00    +0.000 OA
ATOM     21  C   UNL     1      50.648   5.856  16.797  0.00  0.00    +0.000 A 
ATOM     22  H   UNL     1      47.876   4.275  17.601  0.00  0.00    +0.000 HD
ENDBRANCH   9  12
ENDBRANCH   7  10
ENDBRANCH   1   7
BRANCH   4  23
ATOM     23  C   UNL     1      44.949   7.510  11.655  0.00  0.00    +0.000 C 
BRANCH  23  24
ATOM     24  N   UNL     1      44.803   6.490  10.648  0.00  0.00    +0.000 N 
ATOM     25  C   UNL     1      44.210   5.285  10.946  0.00  0.00    +0.000 C 
ATOM     26  O   UNL     1      43.829   4.987  12.076  0.00  0.00    +0.000 OA
ATOM     27  H   UNL     1      44.956   6.690   9.663  0.00  0.00    +0.000 HD
BRANCH  25  28
ATOM     28  C   UNL     1      44.135   4.292   9.782  0.00  0.00    +0.000 C 
ATOM     29  C   UNL     1      44.706   2.941  10.163  0.00  0.00    +0.000 C 
ATOM     30  C   UNL     1      44.982   2.300   8.817  0.00  0.00    +0.000 C 
ATOM     31  C   UNL     1      45.268   3.469   7.884  0.00  0.00    +0.000 C 
ATOM     32  N   UNL     1      44.997   4.697   8.644  0.00  0.00    +0.000 NA
ATOM     33  H   UNL     1      44.498   5.368   8.061  0.00  0.00    +0.000 HD
ENDBRANCH  25  28
ENDBRANCH  23  24
ENDBRANCH   4  23
TORSDOF 6
ENDMDL
MODEL 8
REMARK VINA RESULT:    -6.736      3.883      5.585
REMARK INTER + INTRA:         -10.112
REMARK INTER:                  -9.302
REMARK INTRA:                  -0.811
REMARK UNBOUND:                -1.014
REMARK  Name = 
REMARK  6 active torsions:
REMARK  status: ('A' for Active; 'I' for Inactive)
REMARK    1  A    between atoms: C_2  and  C_20
REMARK    2  A    between atoms: N_3  and  C_4
REMARK    3  A    between atoms: C_4  and  C_5
REMARK    4  A    between atoms: C_8  and  C_9
REMARK    5  A    between atoms: C_9  and  N_10
REMARK    6  A    between atoms: C_11  and  C_13
REMARK                            x       y       z     vdW  Elec       q    Type
REMARK                         _______ _______ _______ _____ _____    ______ ____
ROOT
ATOM      1  C   UNL     1      46.136   5.798  13.505  0.00  0.00    +0.000 A 
ATOM      2  C   UNL     1      47.052   6.858  13.546  0.00  0.00    +0.000 A 
ATOM      3  C   UNL     1      46.752   8.087  12.947  0.00  0.00    +0.000 A 
ATOM      4  C   UNL     1      45.517   8.290  12.317  0.00  0.00    +0.000 A 
ATOM      5  C   UNL     1      44.597   7.234  12.284  0.00  0.00    +0.000 A 
ATOM      6  C   UNL     1      44.898   6.004  12.882  0.00  0.00    +0.000 A 
ENDROOT
BRANCH   1   7
ATOM      7  C   UNL     1      46.458   4.481  14.164  0.00  0.00    +0.000 C 
BRANCH   7  10
ATOM      8  O   UNL     1      46.438   3.737  16.853  0.00  0.00    +0.000 OA
ATOM      9  C   UNL     1      47.484   4.159  16.369  0.00  0.00    +0.000 C 
ATOM     10  N   UNL     1      47.563   4.616  15.078  0.00  0.00    +0.000 N 
ATOM     11  H   UNL     1      48.476   4.760  14.660  0.00  0.00    +0.000 HD
BRANCH   9  12
ATOM     12  C   UNL     1      48.718   4.245  17.162  0.00  0.00    +0.000 A 
ATOM     13  C   UNL     1      48.944   5.341  17.983  0.00  0.00    +0.000 A 
ATOM     14  S   UNL     1      50.438   5.279  18.806  0.00  0.00    +0.000 S 
ATOM     15  C   UNL     1      50.809   3.761  18.134  0.00  0.00    +0.000 A 
ATOM     16  N   UNL     1      51.961   3.113  18.455  0.00  0.00    +0.000 NA
ATOM     17  C   UNL     1      52.096   1.954  17.900  0.00  0.00    +0.000 A 
ATOM     18  N   UNL     1      51.188   1.390  17.044  0.00  0.00    +0.000 N 
ATOM     19  C   UNL     1      50.030   2.020  16.664  0.00  0.00    +0.000 A 
ATOM     20  O   UNL     1      49.264   1.506  15.854  0.00  0.00    +0.000 OA
ATOM     21  C   UNL     1      49.819   3.319  17.275  0.00  0.00    +0.000 A 
ATOM     22  H   UNL     1      51.361   0.484  16.632  0.00  0.00    +0.000 HD
ENDBRANCH   9  12
ENDBRANCH   7  10
ENDBRANCH   1   7
BRANCH   4  23
ATOM     23  C   UNL     1      45.176   9.623  11.706  0.00  0.00    +0.000 C 
BRANCH  23  24
ATOM     24  N   UNL     1      43.761   9.894  11.698  0.00  0.00    +0.000 N 
ATOM     25  C   UNL     1      43.107  10.190  10.523  0.00  0.00    +0.000 C 
ATOM     26  O   UNL     1      43.685  10.296   9.443  0.00  0.00    +0.000 OA
ATOM     27  H   UNL     1      43.177   9.697  12.506  0.00  0.00    +0.000 HD
BRANCH  25  28
ATOM     28  C   UNL     1      41.608  10.470  10.667  0.00  0.00    +0.000 C 
ATOM     29  C   UNL     1      41.335  11.515  11.730  0.00  0.00    +0.000 C 
ATOM     30  C   UNL     1      39.869  11.295  12.049  0.00  0.00    +0.000 C 
ATOM     31  C   UNL     1      39.631   9.816  11.775  0.00  0.00    +0.000 C 
ATOM     32  N   UNL     1      40.865   9.290  11.177  0.00  0.00    +0.000 NA
ATOM     33  H   UNL     1      40.641   8.668  10.400  0.00  0.00    +0.000 HD
ENDBRANCH  25  28
ENDBRANCH  23  24
ENDBRANCH   4  23
TORSDOF 6
ENDMDL
MODEL 9
REMARK VINA RESULT:    -6.374      2.747      3.633
REMARK INTER + INTRA:          -9.623
REMARK INTER:                  -8.607
REMARK INTRA:                  -1.017
REMARK UNBOUND:                -1.014
REMARK  Name = 
REMARK  6 active torsions:
REMARK  status: ('A' for Active; 'I' for Inactive)
REMARK    1  A    between atoms: C_2  and  C_20
REMARK    2  A    between atoms: N_3  and  C_4
REMARK    3  A    between atoms: C_4  and  C_5
REMARK    4  A    between atoms: C_8  and  C_9
REMARK    5  A    between atoms: C_9  and  N_10
REMARK    6  A    between atoms: C_11  and  C_13
REMARK                            x       y       z     vdW  Elec       q    Type
REMARK                         _______ _______ _______ _____ _____    ______ ____
ROOT
ATOM      1  C   UNL     1      49.113   8.334  12.675  0.00  0.00    +0.000 A 
ATOM      2  C   UNL     1      48.654   7.014  12.564  0.00  0.00    +0.000 A 
ATOM      3  C   UNL     1      47.314   6.746  12.267  0.00  0.00    +0.000 A 
ATOM      4  C   UNL     1      46.408   7.792  12.047  0.00  0.00    +0.000 A 
ATOM      5  C   UNL     1      46.869   9.112  12.149  0.00  0.00    +0.000 A 
ATOM      6  C   UNL     1      48.210   9.380  12.447  0.00  0.00    +0.000 A 
ENDROOT
BRANCH   1   7
ATOM      7  C   UNL     1      50.562   8.618  12.981  0.00  0.00    +0.000 C 
BRANCH   7  10
ATOM      8  O   UNL     1      50.443   8.952  15.749  0.00  0.00    +0.000 OA
ATOM      9  C   UNL     1      50.911   7.908  15.303  0.00  0.00    +0.000 C 
ATOM     10  N   UNL     1      51.075   7.692  13.959  0.00  0.00    +0.000 N 
ATOM     11  H   UNL     1      51.268   6.753  13.629  0.00  0.00    +0.000 HD
BRANCH   9  12
ATOM     12  C   UNL     1      51.370   6.831  16.191  0.00  0.00    +0.000 A 
ATOM     13  C   UNL     1      50.467   6.178  17.019  0.00  0.00    +0.000 A 
ATOM     14  S   UNL     1      51.184   4.976  17.995  0.00  0.00    +0.000 S 
ATOM     15  C   UNL     1      52.716   5.251  17.307  0.00  0.00    +0.000 A 
ATOM     16  N   UNL     1      53.797   4.518  17.684  0.00  0.00    +0.000 NA
ATOM     17  C   UNL     1      54.887   4.809  17.054  0.00  0.00    +0.000 A 
ATOM     18  N   UNL     1      54.995   5.774  16.088  0.00  0.00    +0.000 N 
ATOM     19  C   UNL     1      53.940   6.562  15.700  0.00  0.00    +0.000 A 
ATOM     20  O   UNL     1      54.085   7.452  14.868  0.00  0.00    +0.000 OA
ATOM     21  C   UNL     1      52.685   6.263  16.364  0.00  0.00    +0.000 A 
ATOM     22  H   UNL     1      55.881   5.962  15.643  0.00  0.00    +0.000 HD
ENDBRANCH   9  12
ENDBRANCH   7  10
ENDBRANCH   1   7
BRANCH   4  23
ATOM     23  C   UNL     1      44.975   7.506  11.688  0.00  0.00    +0.000 C 
BRANCH  23  24
ATOM     24  N   UNL     1      44.838   6.497  10.669  0.00  0.00    +0.000 N 
ATOM     25  C   UNL     1      44.213   5.302  10.939  0.00  0.00    +0.000 C 
ATOM     26  O   UNL     1      43.792   5.003  12.055  0.00  0.00    +0.000 OA
ATOM     27  H   UNL     1      45.026   6.701   9.691  0.00  0.00    +0.000 HD
BRANCH  25  28
ATOM     28  C   UNL     1      44.153   4.319   9.766  0.00  0.00    +0.000 C 
ATOM     29  C   UNL     1      44.692   2.955  10.152  0.00  0.00    +0.000 C 
ATOM     30  C   UNL     1      44.995   2.321   8.808  0.00  0.00    +0.000 C 
ATOM     31  C   UNL     1      45.325   3.492   7.893  0.00  0.00    +0.000 C 
ATOM     32  N   UNL     1      45.054   4.718   8.655  0.00  0.00    +0.000 NA
ATOM     33  H   UNL     1      44.582   5.402   8.064  0.00  0.00    +0.000 HD
ENDBRANCH  25  28
ENDBRANCH  23  24
ENDBRANCH   4  23
TORSDOF 6
ENDMDL
