MODEL 1
REMARK VINA RESULT:    -7.893      0.000      0.000
REMARK INTER + INTRA:         -12.590
REMARK INTER:                 -11.124
REMARK INTRA:                  -1.467
REMARK UNBOUND:                -1.467
REMARK  Name = 
REMARK  8 active torsions:
REMARK  status: ('A' for Active; 'I' for Inactive)
REMARK    1  A    between atoms: C_1  and  C_2
REMARK    2  A    between atoms: C_2  and  C_3
REMARK    3  A    between atoms: C_3  and  N_4
REMARK    4  A    between atoms: C_3  and  C_17
REMARK    5  A    between atoms: C_5  and  C_7
REMARK    6  A    between atoms: C_20  and  O_21
REMARK    7  A    between atoms: O_21  and  C_22
REMARK    8  A    between atoms: C_22  and  C_23
REMARK                            x       y       z     vdW  Elec       q    Type
REMARK                         _______ _______ _______ _____ _____    ______ ____
ROOT
ATOM      1  C   UNL     1      47.226   7.372  13.232  0.00  0.00    +0.000 C 
ENDROOT
BRANCH   1   2
ATOM      2  C   UNL     1      46.361   6.275  12.634  0.00  0.00    +0.000 A 
ATOM      3  C   UNL     1      45.808   6.431  11.355  0.00  0.00    +0.000 A 
ATOM      4  C   UNL     1      45.212   5.344  10.710  0.00  0.00    +0.000 A 
ATOM      5  C   UNL     1      45.160   4.100  11.338  0.00  0.00    +0.000 A 
ATOM      6  C   UNL     1      45.596   3.973  12.656  0.00  0.00    +0.000 A 
ATOM      7  C   UNL     1      46.199   5.050  13.297  0.00  0.00    +0.000 A 
BRANCH   5   8
ATOM      8  O   UNL     1      44.695   3.058  10.579  0.00  0.00    +0.000 OA
BRANCH   8   9
ATOM      9  C   UNL     1      44.500   3.392   9.196  0.00  0.00    +0.000 C 
BRANCH   9  10
ATOM     10  C   UNL     1      45.523   2.737   8.300  0.00  0.00    +0.000 A 
ATOM     11  C   UNL     1      46.234   3.473   7.355  0.00  0.00    +0.000 A 
ATOM     12  C   UNL     1      47.221   2.836   6.610  0.00  0.00    +0.000 A 
ATOM     13  C   UNL     1      47.483   1.491   6.835  0.00  0.00    +0.000 A 
ATOM     14  C   UNL     1      46.746   0.834   7.804  0.00  0.00    +0.000 A 
ATOM     15  N   UNL     1      45.782   1.425   8.541  0.00  0.00    +0.000 NA
ENDBRANCH   9  10
ENDBRANCH   8   9
ENDBRANCH   5   8
ENDBRANCH   1   2
BRANCH   1  16
ATOM     16  N   UNL     1      48.170   6.795  14.170  0.00  0.00    +0.000 N 
ATOM     17  C   UNL     1      48.694   7.495  15.223  0.00  0.00    +0.000 C 
ATOM     18  O   UNL     1      48.315   8.624  15.518  0.00  0.00    +0.000 OA
ATOM     19  H   UNL     1      48.612   5.927  13.890  0.00  0.00    +0.000 HD
BRANCH  17  20
ATOM     20  C   UNL     1      49.723   6.805  16.011  0.00  0.00    +0.000 A 
ATOM     21  C   UNL     1      50.980   7.373  16.152  0.00  0.00    +0.000 A 
ATOM     22  S   UNL     1      52.064   6.419  17.058  0.00  0.00    +0.000 S 
ATOM     23  C   UNL     1      50.903   5.192  17.259  0.00  0.00    +0.000 A 
ATOM     24  N   UNL     1      51.213   4.037  17.904  0.00  0.00    +0.000 NA
ATOM     25  C   UNL     1      50.250   3.178  17.953  0.00  0.00    +0.000 A 
ATOM     26  N   UNL     1      48.996   3.381  17.436  0.00  0.00    +0.000 N 
ATOM     27  C   UNL     1      48.619   4.557  16.832  0.00  0.00    +0.000 A 
ATOM     28  O   UNL     1      47.457   4.749  16.485  0.00  0.00    +0.000 OA
ATOM     29  C   UNL     1      49.686   5.531  16.692  0.00  0.00    +0.000 A 
ATOM     30  H   UNL     1      48.277   2.683  17.548  0.00  0.00    +0.000 HD
ENDBRANCH  17  20
ENDBRANCH   1  16
BRANCH   1  32
ATOM     31  C   UNL     1      49.278   7.485  11.695  0.00  0.00    +0.000 C 
ATOM     32  C   UNL     1      47.971   8.148  12.120  0.00  0.00    +0.000 C 
ENDBRANCH   1  32
TORSDOF 7
ENDMDL
MODEL 2
REMARK VINA RESULT:    -7.561      1.508      2.119
REMARK INTER + INTRA:         -12.121
REMARK INTER:                 -10.990
REMARK INTRA:                  -1.131
REMARK UNBOUND:                -1.467
REMARK  Name = 
REMARK  8 active torsions:
REMARK  status: ('A' for Active; 'I' for Inactive)
REMARK    1  A    between atoms: C_1  and  C_2
REMARK    2  A    between atoms: C_2  and  C_3
REMARK    3  A    between atoms: C_3  and  N_4
REMARK    4  A    between atoms: C_3  and  C_17
REMARK    5  A    between atoms: C_5  and  C_7
REMARK    6  A    between atoms: C_20  and  O_21
REMARK    7  A    between atoms: O_21  and  C_22
REMARK    8  A    between atoms: C_22  and  C_23
REMARK                            x       y       z     vdW  Elec       q    Type
REMARK                         _______ _______ _______ _____ _____    ______ ____
ROOT
ATOM      1  C   UNL     1      47.534   6.737  13.404  0.00  0.00    +0.000 C 
ENDROOT
BRANCH   1   2
ATOM      2  C   UNL     1      46.501   5.921  12.645  0.00  0.00    +0.000 A 
ATOM      3  C   UNL     1      46.034   6.358  11.397  0.00  0.00    +0.000 A 
ATOM      4  C   UNL     1      45.268   5.507  10.596  0.00  0.00    +0.000 A 
ATOM      5  C   UNL     1      44.961   4.220  11.035  0.00  0.00    +0.000 A 
ATOM      6  C   UNL     1      45.318   3.827  12.325  0.00  0.00    +0.000 A 
ATOM      7  C   UNL     1      46.088   4.668  13.122  0.00  0.00    +0.000 A 
BRANCH   5   8
ATOM      8  O   UNL     1      44.337   3.404  10.129  0.00  0.00    +0.000 OA
BRANCH   8   9
ATOM      9  C   UNL     1      44.490   3.831   8.767  0.00  0.00    +0.000 C 
BRANCH   9  10
ATOM     10  C   UNL     1      45.558   3.050   8.039  0.00  0.00    +0.000 A 
ATOM     11  C   UNL     1      45.895   1.754   8.422  0.00  0.00    +0.000 A 
ATOM     12  C   UNL     1      46.829   1.050   7.669  0.00  0.00    +0.000 A 
ATOM     13  C   UNL     1      47.390   1.649   6.548  0.00  0.00    +0.000 A 
ATOM     14  C   UNL     1      46.990   2.932   6.223  0.00  0.00    +0.000 A 
ATOM     15  N   UNL     1      46.088   3.640   6.935  0.00  0.00    +0.000 NA
ENDBRANCH   9  10
ENDBRANCH   8   9
ENDBRANCH   5   8
ENDBRANCH   1   2
BRANCH   1  16
ATOM     16  N   UNL     1      47.926   6.031  14.609  0.00  0.00    +0.000 N 
ATOM     17  C   UNL     1      48.522   6.653  15.674  0.00  0.00    +0.000 C 
ATOM     18  O   UNL     1      48.660   7.871  15.734  0.00  0.00    +0.000 OA
ATOM     19  H   UNL     1      47.961   5.020  14.551  0.00  0.00    +0.000 HD
BRANCH  17  20
ATOM     20  C   UNL     1      48.961   5.780  16.770  0.00  0.00    +0.000 A 
ATOM     21  C   UNL     1      48.024   5.051  17.488  0.00  0.00    +0.000 A 
ATOM     22  S   UNL     1      48.699   4.128  18.752  0.00  0.00    +0.000 S 
ATOM     23  C   UNL     1      50.264   4.703  18.411  0.00  0.00    +0.000 A 
ATOM     24  N   UNL     1      51.323   4.342  19.182  0.00  0.00    +0.000 NA
ATOM     25  C   UNL     1      52.445   4.879  18.833  0.00  0.00    +0.000 A 
ATOM     26  N   UNL     1      52.606   5.726  17.767  0.00  0.00    +0.000 N 
ATOM     27  C   UNL     1      51.576   6.068  16.922  0.00  0.00    +0.000 A 
ATOM     28  O   UNL     1      51.778   6.734  15.911  0.00  0.00    +0.000 OA
ATOM     29  C   UNL     1      50.280   5.543  17.311  0.00  0.00    +0.000 A 
ATOM     30  H   UNL     1      53.520   6.076  17.525  0.00  0.00    +0.000 HD
ENDBRANCH  17  20
ENDBRANCH   1  16
BRANCH   1  32
ATOM     31  C   UNL     1      48.939   8.498  12.176  0.00  0.00    +0.000 C 
ATOM     32  C   UNL     1      48.768   7.020  12.515  0.00  0.00    +0.000 C 
ENDBRANCH   1  32
TORSDOF 7
ENDMDL
MODEL 3
REMARK VINA RESULT:    -7.452      2.564      3.530
REMARK INTER + INTRA:         -11.968
REMARK INTER:                 -10.759
REMARK INTRA:                  -1.209
REMARK UNBOUND:                -1.467
REMARK  Name = 
REMARK  8 active torsions:
REMARK  status: ('A' for Active; 'I' for Inactive)
REMARK    1  A    between atoms: C_1  and  C_2
REMARK    2  A    between atoms: C_2  and  C_3
REMARK    3  A    between atoms: C_3  and  N_4
REMARK    4  A    between atoms: C_3  and  C_17
REMARK    5  A    between atoms: C_5  and  C_7
REMARK    6  A    between atoms: C_20  and  O_21
REMARK    7  A    between atoms: O_21  and  C_22
REMARK    8  A    between atoms: C_22  and  C_23
REMARK                            x       y       z     vdW  Elec       q    Type
REMARK                         _______ _______ _______ _____ _____    ______ ____
ROOT
ATOM      1  C   UNL     1      47.585   4.877  14.753  0.00  0.00    +0.000 C 
ENDROOT
BRANCH   1   2
ATOM      2  C   UNL     1      46.608   4.749  13.597  0.00  0.00    +0.000 A 
ATOM      3  C   UNL     1      46.400   5.828  12.726  0.00  0.00    +0.000 A 
ATOM      4  C   UNL     1      45.689   5.646  11.538  0.00  0.00    +0.000 A 
ATOM      5  C   UNL     1      45.178   4.390  11.213  0.00  0.00    +0.000 A 
ATOM      6  C   UNL     1      45.276   3.346  12.133  0.00  0.00    +0.000 A 
ATOM      7  C   UNL     1      45.992   3.522  13.313  0.00  0.00    +0.000 A 
BRANCH   5   8
ATOM      8  O   UNL     1      44.627   4.264   9.965  0.00  0.00    +0.000 OA
BRANCH   8   9
ATOM      9  C   UNL     1      44.499   2.904   9.525  0.00  0.00    +0.000 C 
BRANCH   9  10
ATOM     10  C   UNL     1      45.475   2.565   8.424  0.00  0.00    +0.000 A 
ATOM     11  C   UNL     1      45.896   3.526   7.509  0.00  0.00    +0.000 A 
ATOM     12  C   UNL     1      46.857   3.180   6.564  0.00  0.00    +0.000 A 
ATOM     13  C   UNL     1      47.382   1.895   6.566  0.00  0.00    +0.000 A 
ATOM     14  C   UNL     1      46.926   1.003   7.519  0.00  0.00    +0.000 A 
ATOM     15  N   UNL     1      45.994   1.308   8.446  0.00  0.00    +0.000 NA
ENDBRANCH   9  10
ENDBRANCH   8   9
ENDBRANCH   5   8
ENDBRANCH   1   2
BRANCH   1  16
ATOM     16  N   UNL     1      47.750   6.275  15.103  0.00  0.00    +0.000 N 
ATOM     17  C   UNL     1      48.868   6.758  15.727  0.00  0.00    +0.000 C 
ATOM     18  O   UNL     1      49.861   6.066  15.930  0.00  0.00    +0.000 OA
ATOM     19  H   UNL     1      46.914   6.848  15.083  0.00  0.00    +0.000 HD
BRANCH  17  20
ATOM     20  C   UNL     1      48.832   8.174  16.115  0.00  0.00    +0.000 A 
ATOM     21  C   UNL     1      49.271   9.144  15.224  0.00  0.00    +0.000 A 
ATOM     22  S   UNL     1      49.204  10.728  15.852  0.00  0.00    +0.000 S 
ATOM     23  C   UNL     1      48.626  10.169  17.351  0.00  0.00    +0.000 A 
ATOM     24  N   UNL     1      48.414  11.029  18.382  0.00  0.00    +0.000 NA
ATOM     25  C   UNL     1      48.010  10.466  19.472  0.00  0.00    +0.000 A 
ATOM     26  N   UNL     1      47.776   9.123  19.617  0.00  0.00    +0.000 N 
ATOM     27  C   UNL     1      47.915   8.226  18.585  0.00  0.00    +0.000 A 
ATOM     28  O   UNL     1      47.585   7.051  18.716  0.00  0.00    +0.000 OA
ATOM     29  C   UNL     1      48.431   8.798  17.355  0.00  0.00    +0.000 A 
ATOM     30  H   UNL     1      47.419   8.756  20.486  0.00  0.00    +0.000 HD
ENDBRANCH  17  20
ENDBRANCH   1  16
BRANCH   1  32
ATOM     31  C   UNL     1      48.091   3.003  16.433  0.00  0.00    +0.000 C 
ATOM     32  C   UNL     1      47.095   4.065  15.976  0.00  0.00    +0.000 C 
ENDBRANCH   1  32
TORSDOF 7
ENDMDL
MODEL 4
REMARK VINA RESULT:    -7.189      1.900      2.039
REMARK INTER + INTRA:         -11.598
REMARK INTER:                 -10.312
REMARK INTRA:                  -1.286
REMARK UNBOUND:                -1.467
REMARK  Name = 
REMARK  8 active torsions:
REMARK  status: ('A' for Active; 'I' for Inactive)
REMARK    1  A    between atoms: C_1  and  C_2
REMARK    2  A    between atoms: C_2  and  C_3
REMARK    3  A    between atoms: C_3  and  N_4
REMARK    4  A    between atoms: C_3  and  C_17
REMARK    5  A    between atoms: C_5  and  C_7
REMARK    6  A    between atoms: C_20  and  O_21
REMARK    7  A    between atoms: O_21  and  C_22
REMARK    8  A    between atoms: C_22  and  C_23
REMARK                            x       y       z     vdW  Elec       q    Type
REMARK                         _______ _______ _______ _____ _____    ______ ____
ROOT
ATOM      1  C   UNL     1      47.929   7.823  13.624  0.00  0.00    +0.000 C 
ENDROOT
BRANCH   1   2
ATOM      2  C   UNL     1      46.767   7.100  12.965  0.00  0.00    +0.000 A 
ATOM      3  C   UNL     1      45.824   7.817  12.213  0.00  0.00    +0.000 A 
ATOM      4  C   UNL     1      44.895   7.139  11.420  0.00  0.00    +0.000 A 
ATOM      5  C   UNL     1      44.898   5.746  11.374  0.00  0.00    +0.000 A 
ATOM      6  C   UNL     1      45.750   5.029  12.214  0.00  0.00    +0.000 A 
ATOM      7  C   UNL     1      46.683   5.700  12.998  0.00  0.00    +0.000 A 
BRANCH   5   8
ATOM      8  O   UNL     1      44.056   5.168  10.460  0.00  0.00    +0.000 OA
BRANCH   8   9
ATOM      9  C   UNL     1      44.163   3.738  10.400  0.00  0.00    +0.000 C 
BRANCH   9  10
ATOM     10  C   UNL     1      44.991   3.275   9.225  0.00  0.00    +0.000 A 
ATOM     11  C   UNL     1      45.455   4.174   8.268  0.00  0.00    +0.000 A 
ATOM     12  C   UNL     1      46.280   3.706   7.250  0.00  0.00    +0.000 A 
ATOM     13  C   UNL     1      46.633   2.363   7.221  0.00  0.00    +0.000 A 
ATOM     14  C   UNL     1      46.146   1.538   8.219  0.00  0.00    +0.000 A 
ATOM     15  N   UNL     1      45.343   1.962   9.217  0.00  0.00    +0.000 NA
ENDBRANCH   9  10
ENDBRANCH   8   9
ENDBRANCH   5   8
ENDBRANCH   1   2
BRANCH   1  16
ATOM     16  N   UNL     1      47.875   7.629  15.060  0.00  0.00    +0.000 N 
ATOM     17  C   UNL     1      48.583   8.401  15.942  0.00  0.00    +0.000 C 
ATOM     18  O   UNL     1      49.222   9.388  15.589  0.00  0.00    +0.000 OA
ATOM     19  H   UNL     1      47.480   6.753  15.384  0.00  0.00    +0.000 HD
BRANCH  17  20
ATOM     20  C   UNL     1      48.509   8.004  17.354  0.00  0.00    +0.000 A 
ATOM     21  C   UNL     1      48.239   8.958  18.324  0.00  0.00    +0.000 A 
ATOM     22  S   UNL     1      48.236   8.336  19.912  0.00  0.00    +0.000 S 
ATOM     23  C   UNL     1      48.638   6.777  19.361  0.00  0.00    +0.000 A 
ATOM     24  N   UNL     1      48.852   5.761  20.237  0.00  0.00    +0.000 NA
ATOM     25  C   UNL     1      49.186   4.642  19.686  0.00  0.00    +0.000 A 
ATOM     26  N   UNL     1      49.300   4.441  18.335  0.00  0.00    +0.000 N 
ATOM     27  C   UNL     1      49.031   5.422  17.409  0.00  0.00    +0.000 A 
ATOM     28  O   UNL     1      49.029   5.177  16.206  0.00  0.00    +0.000 OA
ATOM     29  C   UNL     1      48.717   6.718  17.980  0.00  0.00    +0.000 A 
ATOM     30  H   UNL     1      49.523   3.528  17.969  0.00  0.00    +0.000 HD
ENDBRANCH  17  20
ENDBRANCH   1  16
BRANCH   1  32
ATOM     31  C   UNL     1      49.507   7.716  11.602  0.00  0.00    +0.000 C 
ATOM     32  C   UNL     1      49.278   7.319  13.058  0.00  0.00    +0.000 C 
ENDBRANCH   1  32
TORSDOF 7
ENDMDL
MODEL 5
REMARK VINA RESULT:    -7.085      2.163      4.042
REMARK INTER + INTRA:         -11.451
REMARK INTER:                 -10.197
REMARK INTRA:                  -1.253
REMARK UNBOUND:                -1.467
REMARK  Name = 
REMARK  8 active torsions:
REMARK  status: ('A' for Active; 'I' for Inactive)
REMARK    1  A    between atoms: C_1  and  C_2
REMARK    2  A    between atoms: C_2  and  C_3
REMARK    3  A    between atoms: C_3  and  N_4
REMARK    4  A    between atoms: C_3  and  C_17
REMARK    5  A    between atoms: C_5  and  C_7
REMARK    6  A    between atoms: C_20  and  O_21
REMARK    7  A    between atoms: O_21  and  C_22
REMARK    8  A    between atoms: C_22  and  C_23
REMARK                            x       y       z     vdW  Elec       q    Type
REMARK                         _______ _______ _______ _____ _____    ______ ____
ROOT
ATOM      1  C   UNL     1      47.524   4.715  14.866  0.00  0.00    +0.000 C 
ENDROOT
BRANCH   1   2
ATOM      2  C   UNL     1      46.552   4.657  13.700  0.00  0.00    +0.000 A 
ATOM      3  C   UNL     1      46.307   5.802  12.929  0.00  0.00    +0.000 A 
ATOM      4  C   UNL     1      45.602   5.702  11.727  0.00  0.00    +0.000 A 
ATOM      5  C   UNL     1      45.136   4.463  11.289  0.00  0.00    +0.000 A 
ATOM      6  C   UNL     1      45.270   3.345  12.112  0.00  0.00    +0.000 A 
ATOM      7  C   UNL     1      45.980   3.440  13.306  0.00  0.00    +0.000 A 
BRANCH   5   8
ATOM      8  O   UNL     1      44.589   4.430  10.033  0.00  0.00    +0.000 OA
BRANCH   8   9
ATOM      9  C   UNL     1      44.474   3.107   9.488  0.00  0.00    +0.000 C 
BRANCH   9  10
ATOM     10  C   UNL     1      45.538   2.819   8.457  0.00  0.00    +0.000 A 
ATOM     11  C   UNL     1      46.082   1.545   8.313  0.00  0.00    +0.000 A 
ATOM     12  C   UNL     1      47.001   1.316   7.295  0.00  0.00    +0.000 A 
ATOM     13  C   UNL     1      47.343   2.355   6.439  0.00  0.00    +0.000 A 
ATOM     14  C   UNL     1      46.746   3.587   6.635  0.00  0.00    +0.000 A 
ATOM     15  N   UNL     1      45.853   3.840   7.615  0.00  0.00    +0.000 NA
ENDBRANCH   9  10
ENDBRANCH   8   9
ENDBRANCH   5   8
ENDBRANCH   1   2
BRANCH   1  16
ATOM     16  N   UNL     1      47.858   6.097  15.158  0.00  0.00    +0.000 N 
ATOM     17  C   UNL     1      48.961   6.458  15.883  0.00  0.00    +0.000 C 
ATOM     18  O   UNL     1      49.811   5.647  16.239  0.00  0.00    +0.000 OA
ATOM     19  H   UNL     1      47.125   6.780  15.008  0.00  0.00    +0.000 HD
BRANCH  17  20
ATOM     20  C   UNL     1      49.096   7.888  16.188  0.00  0.00    +0.000 A 
ATOM     21  C   UNL     1      49.145   8.309  17.509  0.00  0.00    +0.000 A 
ATOM     22  S   UNL     1      49.255  10.002  17.683  0.00  0.00    +0.000 S 
ATOM     23  C   UNL     1      49.199  10.234  15.998  0.00  0.00    +0.000 A 
ATOM     24  N   UNL     1      49.191  11.485  15.466  0.00  0.00    +0.000 NA
ATOM     25  C   UNL     1      49.110  11.516  14.177  0.00  0.00    +0.000 A 
ATOM     26  N   UNL     1      49.060  10.408  13.372  0.00  0.00    +0.000 N 
ATOM     27  C   UNL     1      49.130   9.125  13.861  0.00  0.00    +0.000 A 
ATOM     28  O   UNL     1      49.201   8.160  13.106  0.00  0.00    +0.000 OA
ATOM     29  C   UNL     1      49.155   9.034  15.309  0.00  0.00    +0.000 A 
ATOM     30  H   UNL     1      49.041  10.505  12.368  0.00  0.00    +0.000 HD
ENDBRANCH  17  20
ENDBRANCH   1  16
BRANCH   1  32
ATOM     31  C   UNL     1      47.881   3.042  16.780  0.00  0.00    +0.000 C 
ATOM     32  C   UNL     1      46.923   4.027  16.115  0.00  0.00    +0.000 C 
ENDBRANCH   1  32
TORSDOF 7
ENDMDL
MODEL 6
REMARK VINA RESULT:    -6.981      2.046      2.509
REMARK INTER + INTRA:         -11.305
REMARK INTER:                 -11.199
REMARK INTRA:                  -0.106
REMARK UNBOUND:                -1.467
REMARK  Name = 
REMARK  8 active torsions:
REMARK  status: ('A' for Active; 'I' for Inactive)
REMARK    1  A    between atoms: C_1  and  C_2
REMARK    2  A    between atoms: C_2  and  C_3
REMARK    3  A    between atoms: C_3  and  N_4
REMARK    4  A    between atoms: C_3  and  C_17
REMARK    5  A    between atoms: C_5  and  C_7
REMARK    6  A    between atoms: C_20  and  O_21
REMARK    7  A    between atoms: O_21  and  C_22
REMARK    8  A    between atoms: C_22  and  C_23
REMARK                            x       y       z     vdW  Elec       q    Type
REMARK                         _______ _______ _______ _____ _____    ______ ____
ROOT
ATOM      1  C   UNL     1      47.352   7.319  13.259  0.00  0.00    +0.000 C 
ENDROOT
BRANCH   1   2
ATOM      2  C   UNL     1      46.477   6.220  12.680  0.00  0.00    +0.000 A 
ATOM      3  C   UNL     1      45.934   6.354  11.394  0.00  0.00    +0.000 A 
ATOM      4  C   UNL     1      45.328   5.261  10.769  0.00  0.00    +0.000 A 
ATOM      5  C   UNL     1      45.257   4.032  11.423  0.00  0.00    +0.000 A 
ATOM      6  C   UNL     1      45.683   3.929  12.747  0.00  0.00    +0.000 A 
ATOM      7  C   UNL     1      46.296   5.012  13.368  0.00  0.00    +0.000 A 
BRANCH   5   8
ATOM      8  O   UNL     1      44.784   2.979  10.684  0.00  0.00    +0.000 OA
BRANCH   8   9
ATOM      9  C   UNL     1      44.452   3.327   9.332  0.00  0.00    +0.000 C 
BRANCH   9  10
ATOM     10  C   UNL     1      45.418   2.733   8.336  0.00  0.00    +0.000 A 
ATOM     11  C   UNL     1      45.943   3.494   7.294  0.00  0.00    +0.000 A 
ATOM     12  C   UNL     1      46.890   2.919   6.452  0.00  0.00    +0.000 A 
ATOM     13  C   UNL     1      47.298   1.612   6.678  0.00  0.00    +0.000 A 
ATOM     14  C   UNL     1      46.744   0.928   7.744  0.00  0.00    +0.000 A 
ATOM     15  N   UNL     1      45.822   1.457   8.576  0.00  0.00    +0.000 NA
ENDBRANCH   9  10
ENDBRANCH   8   9
ENDBRANCH   5   8
ENDBRANCH   1   2
BRANCH   1  16
ATOM     16  N   UNL     1      47.559   7.085  14.676  0.00  0.00    +0.000 N 
ATOM     17  C   UNL     1      48.779   6.759  15.204  0.00  0.00    +0.000 C 
ATOM     18  O   UNL     1      49.808   6.755  14.536  0.00  0.00    +0.000 OA
ATOM     19  H   UNL     1      46.727   6.940  15.236  0.00  0.00    +0.000 HD
BRANCH  17  20
ATOM     20  C   UNL     1      48.799   6.442  16.638  0.00  0.00    +0.000 A 
ATOM     21  C   UNL     1      49.153   5.167  17.057  0.00  0.00    +0.000 A 
ATOM     22  S   UNL     1      49.079   4.958  18.747  0.00  0.00    +0.000 S 
ATOM     23  C   UNL     1      48.529   6.552  18.976  0.00  0.00    +0.000 A 
ATOM     24  N   UNL     1      48.207   7.009  20.215  0.00  0.00    +0.000 NA
ATOM     25  C   UNL     1      47.771   8.224  20.240  0.00  0.00    +0.000 A 
ATOM     26  N   UNL     1      47.650   9.032  19.139  0.00  0.00    +0.000 N 
ATOM     27  C   UNL     1      48.024   8.635  17.876  0.00  0.00    +0.000 A 
ATOM     28  O   UNL     1      48.013   9.421  16.934  0.00  0.00    +0.000 OA
ATOM     29  C   UNL     1      48.459   7.253  17.785  0.00  0.00    +0.000 A 
ATOM     30  H   UNL     1      47.342   9.987  19.236  0.00  0.00    +0.000 HD
ENDBRANCH  17  20
ENDBRANCH   1  16
BRANCH   1  32
ATOM     31  C   UNL     1      48.878   8.661  11.692  0.00  0.00    +0.000 C 
ATOM     32  C   UNL     1      48.707   7.388  12.516  0.00  0.00    +0.000 C 
ENDBRANCH   1  32
TORSDOF 7
ENDMDL
MODEL 7
REMARK VINA RESULT:    -6.916      3.307      3.800
REMARK INTER + INTRA:         -11.212
REMARK INTER:                  -9.803
REMARK INTRA:                  -1.409
REMARK UNBOUND:                -1.467
REMARK  Name = 
REMARK  8 active torsions:
REMARK  status: ('A' for Active; 'I' for Inactive)
REMARK    1  A    between atoms: C_1  and  C_2
REMARK    2  A    between atoms: C_2  and  C_3
REMARK    3  A    between atoms: C_3  and  N_4
REMARK    4  A    between atoms: C_3  and  C_17
REMARK    5  A    between atoms: C_5  and  C_7
REMARK    6  A    between atoms: C_20  and  O_21
REMARK    7  A    between atoms: O_21  and  C_22
REMARK    8  A    between atoms: C_22  and  C_23
REMARK                            x       y       z     vdW  Elec       q    Type
REMARK                         _______ _______ _______ _____ _____    ______ ____
ROOT
ATOM      1  C   UNL     1      45.944   8.600  13.110  0.00  0.00    +0.000 C 
ENDROOT
BRANCH   1   2
ATOM      2  C   UNL     1      45.548   7.215  12.627  0.00  0.00    +0.000 A 
ATOM      3  C   UNL     1      44.585   7.069  11.618  0.00  0.00    +0.000 A 
ATOM      4  C   UNL     1      44.387   5.826  11.011  0.00  0.00    +0.000 A 
ATOM      5  C   UNL     1      45.144   4.725  11.408  0.00  0.00    +0.000 A 
ATOM      6  C   UNL     1      46.012   4.838  12.493  0.00  0.00    +0.000 A 
ATOM      7  C   UNL     1      46.219   6.076  13.093  0.00  0.00    +0.000 A 
BRANCH   5   8
ATOM      8  O   UNL     1      44.992   3.585  10.661  0.00  0.00    +0.000 OA
BRANCH   8   9
ATOM      9  C   UNL     1      44.631   3.835   9.294  0.00  0.00    +0.000 C 
BRANCH   9  10
ATOM     10  C   UNL     1      45.484   3.053   8.325  0.00  0.00    +0.000 A 
ATOM     11  C   UNL     1      46.079   3.667   7.226  0.00  0.00    +0.000 A 
ATOM     12  C   UNL     1      46.920   2.918   6.409  0.00  0.00    +0.000 A 
ATOM     13  C   UNL     1      47.158   1.585   6.717  0.00  0.00    +0.000 A 
ATOM     14  C   UNL     1      46.544   1.052   7.837  0.00  0.00    +0.000 A 
ATOM     15  N   UNL     1      45.723   1.753   8.646  0.00  0.00    +0.000 NA
ENDBRANCH   9  10
ENDBRANCH   8   9
ENDBRANCH   5   8
ENDBRANCH   1   2
BRANCH   1  16
ATOM     16  N   UNL     1      47.380   8.770  12.987  0.00  0.00    +0.000 N 
ATOM     17  C   UNL     1      48.190   9.049  14.055  0.00  0.00    +0.000 C 
ATOM     18  O   UNL     1      47.777   9.060  15.210  0.00  0.00    +0.000 OA
ATOM     19  H   UNL     1      47.740   8.908  12.050  0.00  0.00    +0.000 HD
BRANCH  17  20
ATOM     20  C   UNL     1      49.603   9.305  13.746  0.00  0.00    +0.000 A 
ATOM     21  C   UNL     1      50.279  10.320  14.407  0.00  0.00    +0.000 A 
ATOM     22  S   UNL     1      51.895  10.510  13.895  0.00  0.00    +0.000 S 
ATOM     23  C   UNL     1      51.734   9.270  12.742  0.00  0.00    +0.000 A 
ATOM     24  N   UNL     1      52.757   8.959  11.903  0.00  0.00    +0.000 NA
ATOM     25  C   UNL     1      52.487   8.023  11.055  0.00  0.00    +0.000 A 
ATOM     26  N   UNL     1      51.293   7.353  10.987  0.00  0.00    +0.000 N 
ATOM     27  C   UNL     1      50.253   7.588  11.855  0.00  0.00    +0.000 A 
ATOM     28  O   UNL     1      49.243   6.891  11.842  0.00  0.00    +0.000 OA
ATOM     29  C   UNL     1      50.483   8.678  12.786  0.00  0.00    +0.000 A 
ATOM     30  H   UNL     1      51.165   6.602  10.326  0.00  0.00    +0.000 HD
ENDBRANCH  17  20
ENDBRANCH   1  16
BRANCH   1  32
ATOM     31  C   UNL     1      46.135  10.642  11.567  0.00  0.00    +0.000 C 
ATOM     32  C   UNL     1      45.197   9.694  12.310  0.00  0.00    +0.000 C 
ENDBRANCH   1  32
TORSDOF 7
ENDMDL
MODEL 8
REMARK VINA RESULT:    -6.015      2.931      8.942
REMARK INTER + INTRA:          -9.944
REMARK INTER:                  -8.950
REMARK INTRA:                  -0.994
REMARK UNBOUND:                -1.467
REMARK  Name = 
REMARK  8 active torsions:
REMARK  status: ('A' for Active; 'I' for Inactive)
REMARK    1  A    between atoms: C_1  and  C_2
REMARK    2  A    between atoms: C_2  and  C_3
REMARK    3  A    between atoms: C_3  and  N_4
REMARK    4  A    between atoms: C_3  and  C_17
REMARK    5  A    between atoms: C_5  and  C_7
REMARK    6  A    between atoms: C_20  and  O_21
REMARK    7  A    between atoms: O_21  and  C_22
REMARK    8  A    between atoms: C_22  and  C_23
REMARK                            x       y       z     vdW  Elec       q    Type
REMARK                         _______ _______ _______ _____ _____    ______ ____
ROOT
ATOM      1  C   UNL     1      44.582   5.014  11.761  0.00  0.00    +0.000 C 
ENDROOT
BRANCH   1   2
ATOM      2  C   UNL     1      45.682   5.585  12.639  0.00  0.00    +0.000 A 
ATOM      3  C   UNL     1      46.183   4.840  13.717  0.00  0.00    +0.000 A 
ATOM      4  C   UNL     1      47.341   5.255  14.379  0.00  0.00    +0.000 A 
ATOM      5  C   UNL     1      48.003   6.413  13.975  0.00  0.00    +0.000 A 
ATOM      6  C   UNL     1      47.440   7.221  12.987  0.00  0.00    +0.000 A 
ATOM      7  C   UNL     1      46.292   6.806  12.319  0.00  0.00    +0.000 A 
BRANCH   5   8
ATOM      8  O   UNL     1      49.208   6.664  14.578  0.00  0.00    +0.000 OA
BRANCH   8   9
ATOM      9  C   UNL     1      49.152   6.640  16.012  0.00  0.00    +0.000 C 
BRANCH   9  10
ATOM     10  C   UNL     1      50.226   5.765  16.611  0.00  0.00    +0.000 A 
ATOM     11  C   UNL     1      51.524   6.235  16.793  0.00  0.00    +0.000 A 
ATOM     12  C   UNL     1      52.455   5.414  17.422  0.00  0.00    +0.000 A 
ATOM     13  C   UNL     1      52.066   4.158  17.866  0.00  0.00    +0.000 A 
ATOM     14  C   UNL     1      50.753   3.771  17.665  0.00  0.00    +0.000 A 
ATOM     15  N   UNL     1      49.829   4.543  17.056  0.00  0.00    +0.000 NA
ENDBRANCH   9  10
ENDBRANCH   8   9
ENDBRANCH   5   8
ENDBRANCH   1   2
BRANCH   1  16
ATOM     16  N   UNL     1      45.143   4.037  10.846  0.00  0.00    +0.000 N 
ATOM     17  C   UNL     1      44.655   3.835   9.583  0.00  0.00    +0.000 C 
ATOM     18  O   UNL     1      43.784   4.545   9.091  0.00  0.00    +0.000 OA
ATOM     19  H   UNL     1      45.760   3.342  11.250  0.00  0.00    +0.000 HD
BRANCH  17  20
ATOM     20  C   UNL     1      45.259   2.731   8.825  0.00  0.00    +0.000 A 
ATOM     21  C   UNL     1      44.821   1.431   9.035  0.00  0.00    +0.000 A 
ATOM     22  S   UNL     1      45.659   0.271   8.108  0.00  0.00    +0.000 S 
ATOM     23  C   UNL     1      46.665   1.461   7.426  0.00  0.00    +0.000 A 
ATOM     24  N   UNL     1      47.669   1.122   6.574  0.00  0.00    +0.000 NA
ATOM     25  C   UNL     1      48.377   2.119   6.160  0.00  0.00    +0.000 A 
ATOM     26  N   UNL     1      48.157   3.429   6.503  0.00  0.00    +0.000 N 
ATOM     27  C   UNL     1      47.116   3.825   7.309  0.00  0.00    +0.000 A 
ATOM     28  O   UNL     1      46.877   5.013   7.500  0.00  0.00    +0.000 OA
ATOM     29  C   UNL     1      46.329   2.734   7.855  0.00  0.00    +0.000 A 
ATOM     30  H   UNL     1      48.723   4.163   6.107  0.00  0.00    +0.000 HD
ENDBRANCH  17  20
ENDBRANCH   1  16
BRANCH   1  32
ATOM     31  C   UNL     1      43.415   2.852  12.503  0.00  0.00    +0.000 C 
ATOM     32  C   UNL     1      43.470   4.373  12.624  0.00  0.00    +0.000 C 
ENDBRANCH   1  32
TORSDOF 7
ENDMDL
MODEL 9
REMARK VINA RESULT:    -5.873      2.987      8.747
REMARK INTER + INTRA:          -9.742
REMARK INTER:                  -8.246
REMARK INTRA:                  -1.497
REMARK UNBOUND:                -1.467
REMARK  Name = 
REMARK  8 active torsions:
REMARK  status: ('A' for Active; 'I' for Inactive)
REMARK    1  A    between atoms: C_1  and  C_2
REMARK    2  A    between atoms: C_2  and  C_3
REMARK    3  A    between atoms: C_3  and  N_4
REMARK    4  A    between atoms: C_3  and  C_17
REMARK    5  A    between atoms: C_5  and  C_7
REMARK    6  A    between atoms: C_20  and  O_21
REMARK    7  A    between atoms: O_21  and  C_22
REMARK    8  A    between atoms: C_22  and  C_23
REMARK                            x       y       z     vdW  Elec       q    Type
REMARK                         _______ _______ _______ _____ _____    ______ ____
ROOT
ATOM      1  C   UNL     1      44.827   5.870  11.694  0.00  0.00    +0.000 C 
ENDROOT
BRANCH   1   2
ATOM      2  C   UNL     1      46.006   6.777  12.000  0.00  0.00    +0.000 A 
ATOM      3  C   UNL     1      45.829   7.926  12.785  0.00  0.00    +0.000 A 
ATOM      4  C   UNL     1      46.937   8.631  13.260  0.00  0.00    +0.000 A 
ATOM      5  C   UNL     1      48.226   8.198  12.953  0.00  0.00    +0.000 A 
ATOM      6  C   UNL     1      48.405   7.131  12.073  0.00  0.00    +0.000 A 
ATOM      7  C   UNL     1      47.304   6.421  11.606  0.00  0.00    +0.000 A 
BRANCH   5   8
ATOM      8  O   UNL     1      49.252   8.856  13.581  0.00  0.00    +0.000 OA
BRANCH   8   9
ATOM      9  C   UNL     1      50.181   7.981  14.238  0.00  0.00    +0.000 C 
BRANCH   9  10
ATOM     10  C   UNL     1      49.659   7.486  15.565  0.00  0.00    +0.000 A 
ATOM     11  C   UNL     1      49.146   8.365  16.515  0.00  0.00    +0.000 A 
ATOM     12  C   UNL     1      48.605   7.848  17.688  0.00  0.00    +0.000 A 
ATOM     13  C   UNL     1      48.576   6.472  17.877  0.00  0.00    +0.000 A 
ATOM     14  C   UNL     1      49.089   5.664  16.878  0.00  0.00    +0.000 A 
ATOM     15  N   UNL     1      49.622   6.137  15.731  0.00  0.00    +0.000 NA
ENDBRANCH   9  10
ENDBRANCH   8   9
ENDBRANCH   5   8
ENDBRANCH   1   2
BRANCH   1  16
ATOM     16  N   UNL     1      45.250   4.796  10.816  0.00  0.00    +0.000 N 
ATOM     17  C   UNL     1      44.446   4.275   9.838  0.00  0.00    +0.000 C 
ATOM     18  O   UNL     1      43.353   4.757   9.556  0.00  0.00    +0.000 OA
ATOM     19  H   UNL     1      46.075   4.279  11.098  0.00  0.00    +0.000 HD
BRANCH  17  20
ATOM     20  C   UNL     1      44.980   3.115   9.111  0.00  0.00    +0.000 A 
ATOM     21  C   UNL     1      44.433   1.858   9.323  0.00  0.00    +0.000 A 
ATOM     22  S   UNL     1      45.199   0.621   8.436  0.00  0.00    +0.000 S 
ATOM     23  C   UNL     1      46.317   1.716   7.768  0.00  0.00    +0.000 A 
ATOM     24  N   UNL     1      47.313   1.285   6.950  0.00  0.00    +0.000 NA
ATOM     25  C   UNL     1      48.111   2.216   6.544  0.00  0.00    +0.000 A 
ATOM     26  N   UNL     1      47.988   3.544   6.864  0.00  0.00    +0.000 N 
ATOM     27  C   UNL     1      46.960   4.034   7.635  0.00  0.00    +0.000 A 
ATOM     28  O   UNL     1      46.813   5.241   7.805  0.00  0.00    +0.000 OA
ATOM     29  C   UNL     1      46.073   3.018   8.171  0.00  0.00    +0.000 A 
ATOM     30  H   UNL     1      48.622   4.225   6.476  0.00  0.00    +0.000 HD
ENDBRANCH  17  20
ENDBRANCH   1  16
BRANCH   1  32
ATOM     31  C   UNL     1      42.702   5.176  12.955  0.00  0.00    +0.000 C 
ATOM     32  C   UNL     1      44.222   5.299  12.999  0.00  0.00    +0.000 C 
ENDBRANCH   1  32
TORSDOF 7
ENDMDL
