MODEL 1
REMARK VINA RESULT:    -8.634      0.000      0.000
REMARK INTER + INTRA:         -14.296
REMARK INTER:                 -12.672
REMARK INTRA:                  -1.624
REMARK UNBOUND:                -1.624
REMARK  Name = 
REMARK  10 active torsions:
REMARK  status: ('A' for Active; 'I' for Inactive)
REMARK    1  A    between atoms: C_1  and  O_2
REMARK    2  A    between atoms: O_2  and  C_3
REMARK    3  A    between atoms: C_10  and  C_11
REMARK    4  A    between atoms: N_13  and  C_14
REMARK    5  A    between atoms: C_14  and  C_15
REMARK    6  A    between atoms: C_18  and  N_19
REMARK    7  A    between atoms: N_19  and  C_20
REMARK    8  A    between atoms: C_20  and  C_21
REMARK    9  A    between atoms: C_20  and  C_22
REMARK   10  A    between atoms: C_22  and  C_23
REMARK                            x       y       z     vdW  Elec       q    Type
REMARK                         _______ _______ _______ _____ _____    ______ ____
ROOT
ATOM      1  C   UNL     1      46.318   7.480  12.470  0.00  0.00    +0.000 A 
ATOM      2  C   UNL     1      46.939   6.815  11.407  0.00  0.00    +0.000 A 
ATOM      3  C   UNL     1      46.205   5.964  10.570  0.00  0.00    +0.000 A 
ATOM      4  C   UNL     1      44.846   5.724  10.797  0.00  0.00    +0.000 A 
ATOM      5  C   UNL     1      44.206   6.492  11.773  0.00  0.00    +0.000 A 
ATOM      6  C   UNL     1      44.930   7.358  12.604  0.00  0.00    +0.000 A 
ENDROOT
BRANCH   4   7
ATOM      7  N   UNL     1      44.112   4.732  10.142  0.00  0.00    +0.000 N 
ATOM      8  H   UNL     1      43.908   4.948   9.162  0.00  0.00    +0.000 HD
BRANCH   7   9
ATOM      9  C   UNL     1      44.404   3.311  10.395  0.00  0.00    +0.000 C 
ATOM     10  C   UNL     1      43.432   2.794  11.471  0.00  0.00    +0.000 C 
BRANCH   9  11
ATOM     11  C   UNL     1      44.228   2.461   9.114  0.00  0.00    +0.000 C 
BRANCH  11  12
ATOM     12  C   UNL     1      45.509   2.304   8.330  0.00  0.00    +0.000 A 
ATOM     13  C   UNL     1      46.049   3.370   7.612  0.00  0.00    +0.000 A 
ATOM     14  C   UNL     1      47.181   3.147   6.831  0.00  0.00    +0.000 A 
ATOM     15  C   UNL     1      47.746   1.878   6.789  0.00  0.00    +0.000 A 
ATOM     16  C   UNL     1      47.163   0.882   7.550  0.00  0.00    +0.000 A 
ATOM     17  N   UNL     1      46.060   1.066   8.309  0.00  0.00    +0.000 NA
ENDBRANCH  11  12
ENDBRANCH   9  11
ENDBRANCH   7   9
ENDBRANCH   4   7
BRANCH   1  18
ATOM     18  C   UNL     1      47.130   8.279  13.458  0.00  0.00    +0.000 C 
BRANCH  18  21
ATOM     19  C   UNL     1      48.782   6.897  14.647  0.00  0.00    +0.000 C 
ATOM     20  O   UNL     1      49.577   7.008  13.718  0.00  0.00    +0.000 OA
ATOM     21  N   UNL     1      47.545   7.492  14.595  0.00  0.00    +0.000 N 
ATOM     22  H   UNL     1      46.848   7.291  15.301  0.00  0.00    +0.000 HD
BRANCH  19  30
ATOM     23  C   UNL     1      47.302   4.241  16.288  0.00  0.00    +0.000 A 
ATOM     24  N   UNL     1      46.902   3.300  17.168  0.00  0.00    +0.000 NA
ATOM     25  C   UNL     1      47.627   3.112  18.268  0.00  0.00    +0.000 A 
ATOM     26  N   UNL     1      48.733   3.759  18.614  0.00  0.00    +0.000 NA
ATOM     27  C   UNL     1      49.089   4.704  17.723  0.00  0.00    +0.000 A 
ATOM     28  S   UNL     1      50.489   5.619  18.003  0.00  0.00    +0.000 S 
ATOM     29  C   UNL     1      50.250   6.511  16.578  0.00  0.00    +0.000 A 
ATOM     30  C   UNL     1      49.113   6.140  15.865  0.00  0.00    +0.000 A 
ATOM     31  C   UNL     1      48.437   5.033  16.540  0.00  0.00    +0.000 A 
BRANCH  23  33
ATOM     32  C   UNL     1      47.127   3.600  14.044  0.00  0.00    +0.000 C 
ATOM     33  O   UNL     1      46.586   4.374  15.114  0.00  0.00    +0.000 OA
ENDBRANCH  23  33
ENDBRANCH  19  30
ENDBRANCH  18  21
ENDBRANCH   1  18
TORSDOF 8
ENDMDL
MODEL 2
REMARK VINA RESULT:    -7.318      2.268      2.557
REMARK INTER + INTRA:         -12.364
REMARK INTER:                 -11.263
REMARK INTRA:                  -1.101
REMARK UNBOUND:                -1.624
REMARK  Name = 
REMARK  10 active torsions:
REMARK  status: ('A' for Active; 'I' for Inactive)
REMARK    1  A    between atoms: C_1  and  O_2
REMARK    2  A    between atoms: O_2  and  C_3
REMARK    3  A    between atoms: C_10  and  C_11
REMARK    4  A    between atoms: N_13  and  C_14
REMARK    5  A    between atoms: C_14  and  C_15
REMARK    6  A    between atoms: C_18  and  N_19
REMARK    7  A    between atoms: N_19  and  C_20
REMARK    8  A    between atoms: C_20  and  C_21
REMARK    9  A    between atoms: C_20  and  C_22
REMARK   10  A    between atoms: C_22  and  C_23
REMARK                            x       y       z     vdW  Elec       q    Type
REMARK                         _______ _______ _______ _____ _____    ______ ____
ROOT
ATOM      1  C   UNL     1      46.831   8.000  13.041  0.00  0.00    +0.000 A 
ATOM      2  C   UNL     1      45.576   8.346  12.527  0.00  0.00    +0.000 A 
ATOM      3  C   UNL     1      44.860   7.448  11.724  0.00  0.00    +0.000 A 
ATOM      4  C   UNL     1      45.395   6.203  11.380  0.00  0.00    +0.000 A 
ATOM      5  C   UNL     1      46.583   5.812  12.003  0.00  0.00    +0.000 A 
ATOM      6  C   UNL     1      47.298   6.698  12.821  0.00  0.00    +0.000 A 
ENDROOT
BRANCH   4   7
ATOM      7  N   UNL     1      44.838   5.356  10.418  0.00  0.00    +0.000 N 
ATOM      8  H   UNL     1      45.128   5.573   9.460  0.00  0.00    +0.000 HD
BRANCH   7   9
ATOM      9  C   UNL     1      44.702   3.916  10.693  0.00  0.00    +0.000 C 
ATOM     10  C   UNL     1      43.666   3.727  11.815  0.00  0.00    +0.000 C 
BRANCH   9  11
ATOM     11  C   UNL     1      44.227   3.144   9.439  0.00  0.00    +0.000 C 
BRANCH  11  12
ATOM     12  C   UNL     1      45.363   2.741   8.529  0.00  0.00    +0.000 A 
ATOM     13  C   UNL     1      45.899   3.637   7.606  0.00  0.00    +0.000 A 
ATOM     14  C   UNL     1      46.882   3.188   6.727  0.00  0.00    +0.000 A 
ATOM     15  C   UNL     1      47.306   1.866   6.792  0.00  0.00    +0.000 A 
ATOM     16  C   UNL     1      46.741   1.048   7.753  0.00  0.00    +0.000 A 
ATOM     17  N   UNL     1      45.780   1.454   8.612  0.00  0.00    +0.000 NA
ENDBRANCH  11  12
ENDBRANCH   9  11
ENDBRANCH   7   9
ENDBRANCH   4   7
BRANCH   1  18
ATOM     18  C   UNL     1      47.666   9.014  13.781  0.00  0.00    +0.000 C 
BRANCH  18  21
ATOM     19  C   UNL     1      48.497   8.647  16.068  0.00  0.00    +0.000 C 
ATOM     20  O   UNL     1      49.623   8.406  15.644  0.00  0.00    +0.000 OA
ATOM     21  N   UNL     1      47.468   8.952  15.210  0.00  0.00    +0.000 N 
ATOM     22  H   UNL     1      46.517   9.021  15.552  0.00  0.00    +0.000 HD
BRANCH  19  30
ATOM     23  C   UNL     1      48.323   6.161  18.461  0.00  0.00    +0.000 A 
ATOM     24  N   UNL     1      48.094   5.406  19.555  0.00  0.00    +0.000 NA
ATOM     25  C   UNL     1      47.686   6.010  20.669  0.00  0.00    +0.000 A 
ATOM     26  N   UNL     1      47.474   7.310  20.838  0.00  0.00    +0.000 NA
ATOM     27  C   UNL     1      47.693   8.028  19.720  0.00  0.00    +0.000 A 
ATOM     28  S   UNL     1      47.480   9.710  19.762  0.00  0.00    +0.000 S 
ATOM     29  C   UNL     1      47.889   9.852  18.119  0.00  0.00    +0.000 A 
ATOM     30  C   UNL     1      48.191   8.639  17.508  0.00  0.00    +0.000 A 
ATOM     31  C   UNL     1      48.103   7.550  18.480  0.00  0.00    +0.000 A 
BRANCH  23  33
ATOM     32  C   UNL     1      47.850   4.706  16.690  0.00  0.00    +0.000 C 
ATOM     33  O   UNL     1      48.818   5.533  17.335  0.00  0.00    +0.000 OA
ENDBRANCH  23  33
ENDBRANCH  19  30
ENDBRANCH  18  21
ENDBRANCH   1  18
TORSDOF 8
ENDMDL
MODEL 3
REMARK VINA RESULT:    -7.284      2.365      3.147
REMARK INTER + INTRA:         -12.314
REMARK INTER:                 -10.969
REMARK INTRA:                  -1.346
REMARK UNBOUND:                -1.624
REMARK  Name = 
REMARK  10 active torsions:
REMARK  status: ('A' for Active; 'I' for Inactive)
REMARK    1  A    between atoms: C_1  and  O_2
REMARK    2  A    between atoms: O_2  and  C_3
REMARK    3  A    between atoms: C_10  and  C_11
REMARK    4  A    between atoms: N_13  and  C_14
REMARK    5  A    between atoms: C_14  and  C_15
REMARK    6  A    between atoms: C_18  and  N_19
REMARK    7  A    between atoms: N_19  and  C_20
REMARK    8  A    between atoms: C_20  and  C_21
REMARK    9  A    between atoms: C_20  and  C_22
REMARK   10  A    between atoms: C_22  and  C_23
REMARK                            x       y       z     vdW  Elec       q    Type
REMARK                         _______ _______ _______ _____ _____    ______ ____
ROOT
ATOM      1  C   UNL     1      48.091   6.955  14.596  0.00  0.00    +0.000 A 
ATOM      2  C   UNL     1      47.602   7.806  13.598  0.00  0.00    +0.000 A 
ATOM      3  C   UNL     1      46.814   7.304  12.554  0.00  0.00    +0.000 A 
ATOM      4  C   UNL     1      46.529   5.938  12.457  0.00  0.00    +0.000 A 
ATOM      5  C   UNL     1      46.906   5.119  13.525  0.00  0.00    +0.000 A 
ATOM      6  C   UNL     1      47.681   5.617  14.582  0.00  0.00    +0.000 A 
ENDROOT
BRANCH   4   7
ATOM      7  N   UNL     1      45.939   5.345  11.339  0.00  0.00    +0.000 N 
ATOM      8  H   UNL     1      46.599   4.837  10.744  0.00  0.00    +0.000 HD
BRANCH   7   9
ATOM      9  C   UNL     1      44.619   4.702  11.455  0.00  0.00    +0.000 C 
ATOM     10  C   UNL     1      43.698   5.619  12.281  0.00  0.00    +0.000 C 
BRANCH   9  11
ATOM     11  C   UNL     1      43.978   4.472  10.066  0.00  0.00    +0.000 C 
BRANCH  11  12
ATOM     12  C   UNL     1      44.877   3.708   9.122  0.00  0.00    +0.000 A 
ATOM     13  C   UNL     1      45.020   2.326   9.224  0.00  0.00    +0.000 A 
ATOM     14  C   UNL     1      45.931   1.682   8.389  0.00  0.00    +0.000 A 
ATOM     15  C   UNL     1      46.669   2.427   7.478  0.00  0.00    +0.000 A 
ATOM     16  C   UNL     1      46.450   3.791   7.424  0.00  0.00    +0.000 A 
ATOM     17  N   UNL     1      45.580   4.443   8.226  0.00  0.00    +0.000 NA
ENDBRANCH  11  12
ENDBRANCH   9  11
ENDBRANCH   7   9
ENDBRANCH   4   7
BRANCH   1  18
ATOM     18  C   UNL     1      49.057   7.465  15.636  0.00  0.00    +0.000 C 
BRANCH  18  21
ATOM     19  C   UNL     1      50.287   6.145  17.309  0.00  0.00    +0.000 C 
ATOM     20  O   UNL     1      49.668   6.684  18.222  0.00  0.00    +0.000 OA
ATOM     21  N   UNL     1      50.048   6.479  15.998  0.00  0.00    +0.000 N 
ATOM     22  H   UNL     1      50.647   6.129  15.261  0.00  0.00    +0.000 HD
BRANCH  19  30
ATOM     23  C   UNL     1      50.284   2.696  17.101  0.00  0.00    +0.000 A 
ATOM     24  N   UNL     1      50.537   1.374  17.201  0.00  0.00    +0.000 NA
ATOM     25  C   UNL     1      51.733   0.989  17.642  0.00  0.00    +0.000 A 
ATOM     26  N   UNL     1      52.739   1.776  18.006  0.00  0.00    +0.000 NA
ATOM     27  C   UNL     1      52.442   3.086  17.913  0.00  0.00    +0.000 A 
ATOM     28  S   UNL     1      53.621   4.233  18.327  0.00  0.00    +0.000 S 
ATOM     29  C   UNL     1      52.560   5.516  17.992  0.00  0.00    +0.000 A 
ATOM     30  C   UNL     1      51.300   5.108  17.564  0.00  0.00    +0.000 A 
ATOM     31  C   UNL     1      51.243   3.649  17.488  0.00  0.00    +0.000 A 
BRANCH  23  33
ATOM     32  C   UNL     1      47.973   2.830  17.449  0.00  0.00    +0.000 C 
ATOM     33  O   UNL     1      49.069   3.083  16.570  0.00  0.00    +0.000 OA
ENDBRANCH  23  33
ENDBRANCH  19  30
ENDBRANCH  18  21
ENDBRANCH   1  18
TORSDOF 8
ENDMDL
MODEL 4
REMARK VINA RESULT:    -7.109      1.625      2.202
REMARK INTER + INTRA:         -12.058
REMARK INTER:                 -10.903
REMARK INTRA:                  -1.155
REMARK UNBOUND:                -1.624
REMARK  Name = 
REMARK  10 active torsions:
REMARK  status: ('A' for Active; 'I' for Inactive)
REMARK    1  A    between atoms: C_1  and  O_2
REMARK    2  A    between atoms: O_2  and  C_3
REMARK    3  A    between atoms: C_10  and  C_11
REMARK    4  A    between atoms: N_13  and  C_14
REMARK    5  A    between atoms: C_14  and  C_15
REMARK    6  A    between atoms: C_18  and  N_19
REMARK    7  A    between atoms: N_19  and  C_20
REMARK    8  A    between atoms: C_20  and  C_21
REMARK    9  A    between atoms: C_20  and  C_22
REMARK   10  A    between atoms: C_22  and  C_23
REMARK                            x       y       z     vdW  Elec       q    Type
REMARK                         _______ _______ _______ _____ _____    ______ ____
ROOT
ATOM      1  C   UNL     1      47.236   8.029  12.920  0.00  0.00    +0.000 A 
ATOM      2  C   UNL     1      45.885   8.394  12.917  0.00  0.00    +0.000 A 
ATOM      3  C   UNL     1      44.945   7.649  12.191  0.00  0.00    +0.000 A 
ATOM      4  C   UNL     1      45.335   6.550  11.419  0.00  0.00    +0.000 A 
ATOM      5  C   UNL     1      46.658   6.113  11.535  0.00  0.00    +0.000 A 
ATOM      6  C   UNL     1      47.601   6.843  12.272  0.00  0.00    +0.000 A 
ENDROOT
BRANCH   4   7
ATOM      7  N   UNL     1      44.497   5.901  10.510  0.00  0.00    +0.000 N 
ATOM      8  H   UNL     1      44.289   6.454   9.673  0.00  0.00    +0.000 HD
BRANCH   7   9
ATOM      9  C   UNL     1      44.662   4.461  10.252  0.00  0.00    +0.000 C 
ATOM     10  C   UNL     1      43.615   3.691  11.077  0.00  0.00    +0.000 C 
BRANCH   9  11
ATOM     11  C   UNL     1      44.461   4.128   8.755  0.00  0.00    +0.000 C 
BRANCH  11  12
ATOM     12  C   UNL     1      45.546   3.236   8.199  0.00  0.00    +0.000 A 
ATOM     13  C   UNL     1      46.456   3.709   7.256  0.00  0.00    +0.000 A 
ATOM     14  C   UNL     1      47.377   2.820   6.706  0.00  0.00    +0.000 A 
ATOM     15  C   UNL     1      47.372   1.491   7.111  0.00  0.00    +0.000 A 
ATOM     16  C   UNL     1      46.452   1.107   8.070  0.00  0.00    +0.000 A 
ATOM     17  N   UNL     1      45.541   1.944   8.613  0.00  0.00    +0.000 NA
ENDBRANCH  11  12
ENDBRANCH   9  11
ENDBRANCH   7   9
ENDBRANCH   4   7
BRANCH   1  18
ATOM     18  C   UNL     1      48.268   8.908  13.579  0.00  0.00    +0.000 C 
BRANCH  18  21
ATOM     19  C   UNL     1      49.388   7.907  15.527  0.00  0.00    +0.000 C 
ATOM     20  O   UNL     1      48.520   8.342  16.278  0.00  0.00    +0.000 OA
ATOM     21  N   UNL     1      49.341   8.148  14.175  0.00  0.00    +0.000 N 
ATOM     22  H   UNL     1      50.122   7.900  13.581  0.00  0.00    +0.000 HD
BRANCH  19  30
ATOM     23  C   UNL     1      49.602   4.984  17.357  0.00  0.00    +0.000 A 
ATOM     24  N   UNL     1      49.979   3.938  18.121  0.00  0.00    +0.000 NA
ATOM     25  C   UNL     1      51.279   3.745  18.334  0.00  0.00    +0.000 A 
ATOM     26  N   UNL     1      52.281   4.481  17.867  0.00  0.00    +0.000 NA
ATOM     27  C   UNL     1      51.865   5.526  17.127  0.00  0.00    +0.000 A 
ATOM     28  S   UNL     1      53.017   6.564  16.442  0.00  0.00    +0.000 S 
ATOM     29  C   UNL     1      51.804   7.534  15.753  0.00  0.00    +0.000 A 
ATOM     30  C   UNL     1      50.511   7.098  16.026  0.00  0.00    +0.000 A 
ATOM     31  C   UNL     1      50.553   5.874  16.825  0.00  0.00    +0.000 A 
BRANCH  23  33
ATOM     32  C   UNL     1      47.540   3.897  17.146  0.00  0.00    +0.000 C 
ATOM     33  O   UNL     1      48.257   5.130  17.080  0.00  0.00    +0.000 OA
ENDBRANCH  23  33
ENDBRANCH  19  30
ENDBRANCH  18  21
ENDBRANCH   1  18
TORSDOF 8
ENDMDL
MODEL 5
REMARK VINA RESULT:    -6.617      2.123      2.827
REMARK INTER + INTRA:         -11.336
REMARK INTER:                 -10.276
REMARK INTRA:                  -1.060
REMARK UNBOUND:                -1.624
REMARK  Name = 
REMARK  10 active torsions:
REMARK  status: ('A' for Active; 'I' for Inactive)
REMARK    1  A    between atoms: C_1  and  O_2
REMARK    2  A    between atoms: O_2  and  C_3
REMARK    3  A    between atoms: C_10  and  C_11
REMARK    4  A    between atoms: N_13  and  C_14
REMARK    5  A    between atoms: C_14  and  C_15
REMARK    6  A    between atoms: C_18  and  N_19
REMARK    7  A    between atoms: N_19  and  C_20
REMARK    8  A    between atoms: C_20  and  C_21
REMARK    9  A    between atoms: C_20  and  C_22
REMARK   10  A    between atoms: C_22  and  C_23
REMARK                            x       y       z     vdW  Elec       q    Type
REMARK                         _______ _______ _______ _____ _____    ______ ____
ROOT
ATOM      1  C   UNL     1      47.647   6.563  13.035  0.00  0.00    +0.000 A 
ATOM      2  C   UNL     1      47.392   6.890  11.698  0.00  0.00    +0.000 A 
ATOM      3  C   UNL     1      46.257   6.391  11.045  0.00  0.00    +0.000 A 
ATOM      4  C   UNL     1      45.374   5.523  11.693  0.00  0.00    +0.000 A 
ATOM      5  C   UNL     1      45.561   5.309  13.061  0.00  0.00    +0.000 A 
ATOM      6  C   UNL     1      46.685   5.818  13.727  0.00  0.00    +0.000 A 
ENDROOT
BRANCH   4   7
ATOM      7  N   UNL     1      44.353   4.824  11.043  0.00  0.00    +0.000 N 
ATOM      8  H   UNL     1      43.852   5.379  10.344  0.00  0.00    +0.000 HD
BRANCH   7   9
ATOM      9  C   UNL     1      44.552   3.415  10.661  0.00  0.00    +0.000 C 
ATOM     10  C   UNL     1      43.576   2.545  11.472  0.00  0.00    +0.000 C 
BRANCH   9  11
ATOM     11  C   UNL     1      44.283   3.196   9.154  0.00  0.00    +0.000 C 
BRANCH  11  12
ATOM     12  C   UNL     1      45.488   2.671   8.411  0.00  0.00    +0.000 A 
ATOM     13  C   UNL     1      46.250   3.503   7.592  0.00  0.00    +0.000 A 
ATOM     14  C   UNL     1      47.295   2.948   6.857  0.00  0.00    +0.000 A 
ATOM     15  C   UNL     1      47.556   1.587   6.957  0.00  0.00    +0.000 A 
ATOM     16  C   UNL     1      46.769   0.835   7.811  0.00  0.00    +0.000 A 
ATOM     17  N   UNL     1      45.744   1.344   8.529  0.00  0.00    +0.000 NA
ENDBRANCH  11  12
ENDBRANCH   9  11
ENDBRANCH   7   9
ENDBRANCH   4   7
BRANCH   1  18
ATOM     18  C   UNL     1      48.938   6.977  13.695  0.00  0.00    +0.000 C 
BRANCH  18  21
ATOM     19  C   UNL     1      49.980   7.013  15.924  0.00  0.00    +0.000 C 
ATOM     20  O   UNL     1      51.097   7.105  15.424  0.00  0.00    +0.000 OA
ATOM     21  N   UNL     1      48.856   6.939  15.136  0.00  0.00    +0.000 N 
ATOM     22  H   UNL     1      47.954   6.733  15.546  0.00  0.00    +0.000 HD
BRANCH  19  30
ATOM     23  C   UNL     1      51.396   5.207  18.506  0.00  0.00    +0.000 A 
ATOM     24  N   UNL     1      51.696   4.597  19.671  0.00  0.00    +0.000 NA
ATOM     25  C   UNL     1      51.039   4.967  20.768  0.00  0.00    +0.000 A 
ATOM     26  N   UNL     1      50.095   5.897  20.856  0.00  0.00    +0.000 NA
ATOM     27  C   UNL     1      49.809   6.468  19.671  0.00  0.00    +0.000 A 
ATOM     28  S   UNL     1      48.632   7.688  19.603  0.00  0.00    +0.000 S 
ATOM     29  C   UNL     1      48.829   7.852  17.924  0.00  0.00    +0.000 A 
ATOM     30  C   UNL     1      49.781   6.993  17.382  0.00  0.00    +0.000 A 
ATOM     31  C   UNL     1      50.389   6.186  18.438  0.00  0.00    +0.000 A 
BRANCH  23  33
ATOM     32  C   UNL     1      53.494   5.306  17.473  0.00  0.00    +0.000 C 
ATOM     33  O   UNL     1      52.137   4.869  17.391  0.00  0.00    +0.000 OA
ENDBRANCH  23  33
ENDBRANCH  19  30
ENDBRANCH  18  21
ENDBRANCH   1  18
TORSDOF 8
ENDMDL
MODEL 6
REMARK VINA RESULT:    -6.111      3.306      4.526
REMARK INTER + INTRA:         -10.593
REMARK INTER:                  -9.778
REMARK INTRA:                  -0.815
REMARK UNBOUND:                -1.624
REMARK  Name = 
REMARK  10 active torsions:
REMARK  status: ('A' for Active; 'I' for Inactive)
REMARK    1  A    between atoms: C_1  and  O_2
REMARK    2  A    between atoms: O_2  and  C_3
REMARK    3  A    between atoms: C_10  and  C_11
REMARK    4  A    between atoms: N_13  and  C_14
REMARK    5  A    between atoms: C_14  and  C_15
REMARK    6  A    between atoms: C_18  and  N_19
REMARK    7  A    between atoms: N_19  and  C_20
REMARK    8  A    between atoms: C_20  and  C_21
REMARK    9  A    between atoms: C_20  and  C_22
REMARK   10  A    between atoms: C_22  and  C_23
REMARK                            x       y       z     vdW  Elec       q    Type
REMARK                         _______ _______ _______ _____ _____    ______ ____
ROOT
ATOM      1  C   UNL     1      47.924   5.938  15.092  0.00  0.00    +0.000 A 
ATOM      2  C   UNL     1      47.816   6.903  14.084  0.00  0.00    +0.000 A 
ATOM      3  C   UNL     1      47.045   6.656  12.940  0.00  0.00    +0.000 A 
ATOM      4  C   UNL     1      46.398   5.431  12.754  0.00  0.00    +0.000 A 
ATOM      5  C   UNL     1      46.400   4.528  13.821  0.00  0.00    +0.000 A 
ATOM      6  C   UNL     1      47.156   4.774  14.977  0.00  0.00    +0.000 A 
ENDROOT
BRANCH   4   7
ATOM      7  N   UNL     1      45.799   5.041  11.554  0.00  0.00    +0.000 N 
ATOM      8  H   UNL     1      46.422   4.518  10.932  0.00  0.00    +0.000 HD
BRANCH   7   9
ATOM      9  C   UNL     1      44.405   4.566  11.546  0.00  0.00    +0.000 C 
ATOM     10  C   UNL     1      43.542   5.565  12.337  0.00  0.00    +0.000 C 
BRANCH   9  11
ATOM     11  C   UNL     1      43.853   4.461  10.105  0.00  0.00    +0.000 C 
BRANCH  11  12
ATOM     12  C   UNL     1      44.783   3.726   9.169  0.00  0.00    +0.000 A 
ATOM     13  C   UNL     1      44.941   2.344   9.248  0.00  0.00    +0.000 A 
ATOM     14  C   UNL     1      45.881   1.727   8.425  0.00  0.00    +0.000 A 
ATOM     15  C   UNL     1      46.632   2.498   7.546  0.00  0.00    +0.000 A 
ATOM     16  C   UNL     1      46.397   3.861   7.512  0.00  0.00    +0.000 A 
ATOM     17  N   UNL     1      45.499   4.487   8.305  0.00  0.00    +0.000 NA
ENDBRANCH  11  12
ENDBRANCH   9  11
ENDBRANCH   7   9
ENDBRANCH   4   7
BRANCH   1  18
ATOM     18  C   UNL     1      48.866   6.140  16.252  0.00  0.00    +0.000 C 
BRANCH  18  21
ATOM     19  C   UNL     1      50.581   4.943  17.547  0.00  0.00    +0.000 C 
ATOM     20  O   UNL     1      50.801   5.943  18.224  0.00  0.00    +0.000 OA
ATOM     21  N   UNL     1      49.641   4.958  16.545  0.00  0.00    +0.000 N 
ATOM     22  H   UNL     1      49.555   4.176  15.908  0.00  0.00    +0.000 HD
BRANCH  19  30
ATOM     23  C   UNL     1      53.536   4.120  19.136  0.00  0.00    +0.000 A 
ATOM     24  N   UNL     1      54.663   3.533  19.593  0.00  0.00    +0.000 NA
ATOM     25  C   UNL     1      54.820   2.226  19.399  0.00  0.00    +0.000 A 
ATOM     26  N   UNL     1      53.973   1.403  18.791  0.00  0.00    +0.000 NA
ATOM     27  C   UNL     1      52.872   2.027  18.332  0.00  0.00    +0.000 A 
ATOM     28  S   UNL     1      51.677   1.121  17.540  0.00  0.00    +0.000 S 
ATOM     29  C   UNL     1      50.730   2.507  17.278  0.00  0.00    +0.000 A 
ATOM     30  C   UNL     1      51.294   3.677  17.779  0.00  0.00    +0.000 A 
ATOM     31  C   UNL     1      52.565   3.379  18.439  0.00  0.00    +0.000 A 
BRANCH  23  33
ATOM     32  C   UNL     1      54.278   6.302  18.729  0.00  0.00    +0.000 C 
ATOM     33  O   UNL     1      53.349   5.460  19.411  0.00  0.00    +0.000 OA
ENDBRANCH  23  33
ENDBRANCH  19  30
ENDBRANCH  18  21
ENDBRANCH   1  18
TORSDOF 8
ENDMDL
MODEL 7
REMARK VINA RESULT:    -5.819      2.287      2.993
REMARK INTER + INTRA:         -10.164
REMARK INTER:                  -9.618
REMARK INTRA:                  -0.546
REMARK UNBOUND:                -1.624
REMARK  Name = 
REMARK  10 active torsions:
REMARK  status: ('A' for Active; 'I' for Inactive)
REMARK    1  A    between atoms: C_1  and  O_2
REMARK    2  A    between atoms: O_2  and  C_3
REMARK    3  A    between atoms: C_10  and  C_11
REMARK    4  A    between atoms: N_13  and  C_14
REMARK    5  A    between atoms: C_14  and  C_15
REMARK    6  A    between atoms: C_18  and  N_19
REMARK    7  A    between atoms: N_19  and  C_20
REMARK    8  A    between atoms: C_20  and  C_21
REMARK    9  A    between atoms: C_20  and  C_22
REMARK   10  A    between atoms: C_22  and  C_23
REMARK                            x       y       z     vdW  Elec       q    Type
REMARK                         _______ _______ _______ _____ _____    ______ ____
ROOT
ATOM      1  C   UNL     1      46.351   6.333  12.853  0.00  0.00    +0.000 A 
ATOM      2  C   UNL     1      45.872   6.569  11.559  0.00  0.00    +0.000 A 
ATOM      3  C   UNL     1      45.107   5.603  10.893  0.00  0.00    +0.000 A 
ATOM      4  C   UNL     1      44.837   4.364  11.482  0.00  0.00    +0.000 A 
ATOM      5  C   UNL     1      45.202   4.188  12.819  0.00  0.00    +0.000 A 
ATOM      6  C   UNL     1      45.954   5.157  13.499  0.00  0.00    +0.000 A 
ENDROOT
BRANCH   4   7
ATOM      7  N   UNL     1      44.272   3.284  10.799  0.00  0.00    +0.000 N 
ATOM      8  H   UNL     1      43.264   3.377  10.641  0.00  0.00    +0.000 HD
BRANCH   7   9
ATOM      9  C   UNL     1      44.999   2.656   9.683  0.00  0.00    +0.000 C 
ATOM     10  C   UNL     1      44.103   1.570   9.062  0.00  0.00    +0.000 C 
BRANCH   9  11
ATOM     11  C   UNL     1      45.359   3.691   8.590  0.00  0.00    +0.000 C 
BRANCH  11  12
ATOM     12  C   UNL     1      46.288   3.136   7.537  0.00  0.00    +0.000 A 
ATOM     13  C   UNL     1      46.262   3.616   6.228  0.00  0.00    +0.000 A 
ATOM     14  C   UNL     1      47.074   3.007   5.274  0.00  0.00    +0.000 A 
ATOM     15  C   UNL     1      47.889   1.944   5.645  0.00  0.00    +0.000 A 
ATOM     16  C   UNL     1      47.874   1.545   6.969  0.00  0.00    +0.000 A 
ATOM     17  N   UNL     1      47.091   2.111   7.914  0.00  0.00    +0.000 NA
ENDBRANCH  11  12
ENDBRANCH   9  11
ENDBRANCH   7   9
ENDBRANCH   4   7
BRANCH   1  18
ATOM     18  C   UNL     1      47.294   7.307  13.514  0.00  0.00    +0.000 C 
BRANCH  18  21
ATOM     19  C   UNL     1      48.801   6.715  15.367  0.00  0.00    +0.000 C 
ATOM     20  O   UNL     1      49.769   6.731  14.614  0.00  0.00    +0.000 OA
ATOM     21  N   UNL     1      47.537   6.984  14.900  0.00  0.00    +0.000 N 
ATOM     22  H   UNL     1      46.728   6.842  15.494  0.00  0.00    +0.000 HD
BRANCH  19  30
ATOM     23  C   UNL     1      48.417   8.601  18.236  0.00  0.00    +0.000 A 
ATOM     24  N   UNL     1      48.433   9.106  19.487  0.00  0.00    +0.000 NA
ATOM     25  C   UNL     1      48.779   8.302  20.491  0.00  0.00    +0.000 A 
ATOM     26  N   UNL     1      49.119   7.022  20.406  0.00  0.00    +0.000 NA
ATOM     27  C   UNL     1      49.111   6.560  19.141  0.00  0.00    +0.000 A 
ATOM     28  S   UNL     1      49.510   4.937  18.851  0.00  0.00    +0.000 S 
ATOM     29  C   UNL     1      49.308   5.135  17.177  0.00  0.00    +0.000 A 
ATOM     30  C   UNL     1      48.939   6.424  16.803  0.00  0.00    +0.000 A 
ATOM     31  C   UNL     1      48.791   7.268  17.988  0.00  0.00    +0.000 A 
BRANCH  23  33
ATOM     32  C   UNL     1      47.872  10.789  17.609  0.00  0.00    +0.000 C 
ATOM     33  O   UNL     1      47.983   9.421  17.214  0.00  0.00    +0.000 OA
ENDBRANCH  23  33
ENDBRANCH  19  30
ENDBRANCH  18  21
ENDBRANCH   1  18
TORSDOF 8
ENDMDL
