MODEL 1
REMARK VINA RESULT:    -7.995      0.000      0.000
REMARK INTER + INTRA:         -11.107
REMARK INTER:                 -10.566
REMARK INTRA:                  -0.541
REMARK UNBOUND:                -0.541
REMARK  Name = 
REMARK  7 active torsions:
REMARK  status: ('A' for Active; 'I' for Inactive)
REMARK    1  A    between atoms: C_1  and  C_2
REMARK    2  A    between atoms: C_2  and  O_3
REMARK    3  A    between atoms: C_2  and  C_13
REMARK    4  A    between atoms: O_3  and  C_4
REMARK    5  A    between atoms: C_7  and  C_8
REMARK    6  A    between atoms: C_16  and  C_17
REMARK    7  A    between atoms: C_17  and  N_18
REMARK                            x       y       z     vdW  Elec       q    Type
REMARK                         _______ _______ _______ _____ _____    ______ ____
ROOT
ATOM      1  C   UNL     1      42.581   5.137  11.828  0.00  0.00    +0.000 C 
ATOM      2  C   UNL     1      43.670   4.873  10.781  0.00  0.00    +0.000 C 
ENDROOT
BRANCH   2   3
ATOM      3  C   UNL     1      45.092   5.038  11.406  0.00  0.00    +0.000 C 
ATOM      4  C   UNL     1      45.074   4.624  12.890  0.00  0.00    +0.000 C 
ATOM      5  C   UNL     1      46.428   4.818  13.580  0.00  0.00    +0.000 C 
ATOM      6  C   UNL     1      46.915   6.266  13.439  0.00  0.00    +0.000 C 
ATOM      7  C   UNL     1      47.041   6.600  11.947  0.00  0.00    +0.000 C 
ATOM      8  C   UNL     1      45.699   6.444  11.229  0.00  0.00    +0.000 C 
BRANCH   6   9
ATOM      9  C   UNL     1      48.242   6.529  14.172  0.00  0.00    +0.000 C 
BRANCH   9  10
ATOM     10  N   UNL     1      49.371   6.569  13.247  0.00  0.00    +0.000 NA
ATOM     11  H   UNL     1      50.198   6.920  13.731  0.00  0.00    +0.000 HD
ATOM     12  H   UNL     1      49.175   7.232  12.499  0.00  0.00    +0.000 HD
ENDBRANCH   9  10
ENDBRANCH   6   9
ENDBRANCH   2   3
BRANCH   2  13
ATOM     13  O   UNL     1      43.519   3.558  10.208  0.00  0.00    +0.000 OA
BRANCH  13  14
ATOM     14  C   UNL     1      44.432   3.140   9.275  0.00  0.00    +0.000 A 
ATOM     15  C   UNL     1      45.067   1.901   9.245  0.00  0.00    +0.000 A 
ATOM     16  C   UNL     1      46.049   1.637   8.292  0.00  0.00    +0.000 A 
ATOM     17  C   UNL     1      46.354   2.624   7.365  0.00  0.00    +0.000 A 
ATOM     18  N   UNL     1      45.726   3.829   7.316  0.00  0.00    +0.000 NA
ATOM     19  C   UNL     1      44.780   4.048   8.273  0.00  0.00    +0.000 A 
BRANCH  17  20
ATOM     20  C   UNL     1      47.457   2.368   6.380  0.00  0.00    +0.000 C 
ATOM     21  N   UNL     1      47.425   3.124   5.241  0.00  0.00    +0.000 N 
ATOM     22  O   UNL     1      48.346   1.551   6.582  0.00  0.00    +0.000 OA
ATOM     23  H   UNL     1      46.692   3.814   5.109  0.00  0.00    +0.000 HD
ATOM     24  H   UNL     1      48.164   3.020   4.560  0.00  0.00    +0.000 HD
ENDBRANCH  17  20
ENDBRANCH  13  14
ENDBRANCH   2  13
TORSDOF 6
ENDMDL
MODEL 2
REMARK VINA RESULT:    -7.388      2.716      6.739
REMARK INTER + INTRA:         -10.304
REMARK INTER:                  -9.732
REMARK INTRA:                  -0.572
REMARK UNBOUND:                -0.541
REMARK  Name = 
REMARK  7 active torsions:
REMARK  status: ('A' for Active; 'I' for Inactive)
REMARK    1  A    between atoms: C_1  and  C_2
REMARK    2  A    between atoms: C_2  and  O_3
REMARK    3  A    between atoms: C_2  and  C_13
REMARK    4  A    between atoms: O_3  and  C_4
REMARK    5  A    between atoms: C_7  and  C_8
REMARK    6  A    between atoms: C_16  and  C_17
REMARK    7  A    between atoms: C_17  and  N_18
REMARK                            x       y       z     vdW  Elec       q    Type
REMARK                         _______ _______ _______ _____ _____    ______ ____
ROOT
ATOM      1  C   UNL     1      43.122   5.402  10.615  0.00  0.00    +0.000 C 
ATOM      2  C   UNL     1      44.442   4.628  10.724  0.00  0.00    +0.000 C 
ENDROOT
BRANCH   2   3
ATOM      3  C   UNL     1      44.757   3.879   9.390  0.00  0.00    +0.000 C 
ATOM      4  C   UNL     1      45.067   2.395   9.670  0.00  0.00    +0.000 C 
ATOM      5  C   UNL     1      45.443   1.615   8.406  0.00  0.00    +0.000 C 
ATOM      6  C   UNL     1      46.623   2.276   7.683  0.00  0.00    +0.000 C 
ATOM      7  C   UNL     1      46.230   3.710   7.307  0.00  0.00    +0.000 C 
ATOM      8  C   UNL     1      45.874   4.530   8.549  0.00  0.00    +0.000 C 
BRANCH   6   9
ATOM      9  C   UNL     1      47.082   1.492   6.440  0.00  0.00    +0.000 C 
BRANCH   9  10
ATOM     10  N   UNL     1      48.410   1.910   5.998  0.00  0.00    +0.000 NA
ATOM     11  H   UNL     1      48.467   2.928   5.997  0.00  0.00    +0.000 HD
ATOM     12  H   UNL     1      48.555   1.615   5.033  0.00  0.00    +0.000 HD
ENDBRANCH   9  10
ENDBRANCH   6   9
ENDBRANCH   2   3
BRANCH   2  13
ATOM     13  O   UNL     1      45.525   5.512  11.075  0.00  0.00    +0.000 OA
BRANCH  13  14
ATOM     14  C   UNL     1      46.095   5.390  12.315  0.00  0.00    +0.000 A 
ATOM     15  C   UNL     1      47.160   6.142  12.807  0.00  0.00    +0.000 A 
ATOM     16  C   UNL     1      47.707   5.851  14.056  0.00  0.00    +0.000 A 
ATOM     17  C   UNL     1      47.149   4.821  14.800  0.00  0.00    +0.000 A 
ATOM     18  N   UNL     1      46.076   4.094  14.390  0.00  0.00    +0.000 NA
ATOM     19  C   UNL     1      45.580   4.405  13.159  0.00  0.00    +0.000 A 
BRANCH  17  20
ATOM     20  C   UNL     1      47.778   4.462  16.115  0.00  0.00    +0.000 C 
ATOM     21  N   UNL     1      47.092   3.556  16.875  0.00  0.00    +0.000 N 
ATOM     22  O   UNL     1      48.848   4.930  16.485  0.00  0.00    +0.000 OA
ATOM     23  H   UNL     1      46.220   3.163  16.534  0.00  0.00    +0.000 HD
ATOM     24  H   UNL     1      47.488   3.249  17.753  0.00  0.00    +0.000 HD
ENDBRANCH  17  20
ENDBRANCH  13  14
ENDBRANCH   2  13
TORSDOF 6
ENDMDL
MODEL 3
REMARK VINA RESULT:    -7.203      2.147      6.457
REMARK INTER + INTRA:         -10.060
REMARK INTER:                 -10.094
REMARK INTRA:                   0.034
REMARK UNBOUND:                -0.541
REMARK  Name = 
REMARK  7 active torsions:
REMARK  status: ('A' for Active; 'I' for Inactive)
REMARK    1  A    between atoms: C_1  and  C_2
REMARK    2  A    between atoms: C_2  and  O_3
REMARK    3  A    between atoms: C_2  and  C_13
REMARK    4  A    between atoms: O_3  and  C_4
REMARK    5  A    between atoms: C_7  and  C_8
REMARK    6  A    between atoms: C_16  and  C_17
REMARK    7  A    between atoms: C_17  and  N_18
REMARK                            x       y       z     vdW  Elec       q    Type
REMARK                         _______ _______ _______ _____ _____    ______ ____
ROOT
ATOM      1  C   UNL     1      43.408   4.689  10.519  0.00  0.00    +0.000 C 
ATOM      2  C   UNL     1      44.036   3.298  10.664  0.00  0.00    +0.000 C 
ENDROOT
BRANCH   2   3
ATOM      3  C   UNL     1      45.246   3.131   9.690  0.00  0.00    +0.000 C 
ATOM      4  C   UNL     1      45.302   4.312   8.701  0.00  0.00    +0.000 C 
ATOM      5  C   UNL     1      46.435   4.180   7.679  0.00  0.00    +0.000 C 
ATOM      6  C   UNL     1      46.334   2.854   6.915  0.00  0.00    +0.000 C 
ATOM      7  C   UNL     1      46.409   1.699   7.922  0.00  0.00    +0.000 C 
ATOM      8  C   UNL     1      45.275   1.781   8.946  0.00  0.00    +0.000 C 
BRANCH   6   9
ATOM      9  C   UNL     1      47.413   2.702   5.828  0.00  0.00    +0.000 C 
BRANCH   9  10
ATOM     10  N   UNL     1      48.398   1.683   6.183  0.00  0.00    +0.000 NA
ATOM     11  H   UNL     1      47.928   0.887   6.614  0.00  0.00    +0.000 HD
ATOM     12  H   UNL     1      49.033   2.055   6.887  0.00  0.00    +0.000 HD
ENDBRANCH   9  10
ENDBRANCH   6   9
ENDBRANCH   2   3
BRANCH   2  13
ATOM     13  O   UNL     1      44.447   3.062  12.026  0.00  0.00    +0.000 OA
BRANCH  13  14
ATOM     14  C   UNL     1      45.290   3.963  12.622  0.00  0.00    +0.000 A 
ATOM     15  C   UNL     1      45.115   5.344  12.670  0.00  0.00    +0.000 A 
ATOM     16  C   UNL     1      46.100   6.158  13.229  0.00  0.00    +0.000 A 
ATOM     17  C   UNL     1      47.235   5.558  13.754  0.00  0.00    +0.000 A 
ATOM     18  N   UNL     1      47.429   4.213  13.782  0.00  0.00    +0.000 NA
ATOM     19  C   UNL     1      46.447   3.456  13.216  0.00  0.00    +0.000 A 
BRANCH  17  20
ATOM     20  C   UNL     1      48.326   6.435  14.295  0.00  0.00    +0.000 C 
ATOM     21  N   UNL     1      48.167   6.855  15.586  0.00  0.00    +0.000 N 
ATOM     22  O   UNL     1      49.311   6.747  13.636  0.00  0.00    +0.000 OA
ATOM     23  H   UNL     1      47.355   6.562  16.120  0.00  0.00    +0.000 HD
ATOM     24  H   UNL     1      48.890   7.417  16.014  0.00  0.00    +0.000 HD
ENDBRANCH  17  20
ENDBRANCH  13  14
ENDBRANCH   2  13
TORSDOF 6
ENDMDL
MODEL 4
REMARK VINA RESULT:    -7.058      1.676      2.059
REMARK INTER + INTRA:          -9.869
REMARK INTER:                  -9.746
REMARK INTRA:                  -0.123
REMARK UNBOUND:                -0.541
REMARK  Name = 
REMARK  7 active torsions:
REMARK  status: ('A' for Active; 'I' for Inactive)
REMARK    1  A    between atoms: C_1  and  C_2
REMARK    2  A    between atoms: C_2  and  O_3
REMARK    3  A    between atoms: C_2  and  C_13
REMARK    4  A    between atoms: O_3  and  C_4
REMARK    5  A    between atoms: C_7  and  C_8
REMARK    6  A    between atoms: C_16  and  C_17
REMARK    7  A    between atoms: C_17  and  N_18
REMARK                            x       y       z     vdW  Elec       q    Type
REMARK                         _______ _______ _______ _____ _____    ______ ____
ROOT
ATOM      1  C   UNL     1      45.329   3.286  12.237  0.00  0.00    +0.000 C 
ATOM      2  C   UNL     1      44.357   4.324  11.662  0.00  0.00    +0.000 C 
ENDROOT
BRANCH   2   3
ATOM      3  C   UNL     1      45.076   5.692  11.436  0.00  0.00    +0.000 C 
ATOM      4  C   UNL     1      46.383   5.749  12.251  0.00  0.00    +0.000 C 
ATOM      5  C   UNL     1      47.109   7.092  12.120  0.00  0.00    +0.000 C 
ATOM      6  C   UNL     1      46.189   8.255  12.511  0.00  0.00    +0.000 C 
ATOM      7  C   UNL     1      44.959   8.241  11.595  0.00  0.00    +0.000 C 
ATOM      8  C   UNL     1      44.191   6.923  11.719  0.00  0.00    +0.000 C 
BRANCH   6   9
ATOM      9  C   UNL     1      46.893   9.623  12.460  0.00  0.00    +0.000 C 
BRANCH   9  10
ATOM     10  N   UNL     1      45.962  10.697  12.124  0.00  0.00    +0.000 NA
ATOM     11  H   UNL     1      46.482  11.552  11.926  0.00  0.00    +0.000 HD
ATOM     12  H   UNL     1      45.374  10.902  12.930  0.00  0.00    +0.000 HD
ENDBRANCH   9  10
ENDBRANCH   6   9
ENDBRANCH   2   3
BRANCH   2  13
ATOM     13  O   UNL     1      43.774   3.850  10.431  0.00  0.00    +0.000 OA
BRANCH  13  14
ATOM     14  C   UNL     1      44.605   3.361   9.457  0.00  0.00    +0.000 A 
ATOM     15  C   UNL     1      44.952   2.026   9.268  0.00  0.00    +0.000 A 
ATOM     16  C   UNL     1      45.885   1.673   8.293  0.00  0.00    +0.000 A 
ATOM     17  C   UNL     1      46.432   2.677   7.507  0.00  0.00    +0.000 A 
ATOM     18  N   UNL     1      46.087   3.988   7.614  0.00  0.00    +0.000 NA
ATOM     19  C   UNL     1      45.180   4.288   8.586  0.00  0.00    +0.000 A 
BRANCH  17  20
ATOM     20  C   UNL     1      47.486   2.309   6.504  0.00  0.00    +0.000 C 
ATOM     21  N   UNL     1      47.505   3.058   5.360  0.00  0.00    +0.000 N 
ATOM     22  O   UNL     1      48.296   1.410   6.695  0.00  0.00    +0.000 OA
ATOM     23  H   UNL     1      46.840   3.815   5.236  0.00  0.00    +0.000 HD
ATOM     24  H   UNL     1      48.218   2.879   4.666  0.00  0.00    +0.000 HD
ENDBRANCH  17  20
ENDBRANCH  13  14
ENDBRANCH   2  13
TORSDOF 6
ENDMDL
MODEL 5
REMARK VINA RESULT:    -6.782      2.609      6.729
REMARK INTER + INTRA:          -9.504
REMARK INTER:                  -8.970
REMARK INTRA:                  -0.534
REMARK UNBOUND:                -0.541
REMARK  Name = 
REMARK  7 active torsions:
REMARK  status: ('A' for Active; 'I' for Inactive)
REMARK    1  A    between atoms: C_1  and  C_2
REMARK    2  A    between atoms: C_2  and  O_3
REMARK    3  A    between atoms: C_2  and  C_13
REMARK    4  A    between atoms: O_3  and  C_4
REMARK    5  A    between atoms: C_7  and  C_8
REMARK    6  A    between atoms: C_16  and  C_17
REMARK    7  A    between atoms: C_17  and  N_18
REMARK                            x       y       z     vdW  Elec       q    Type
REMARK                         _______ _______ _______ _____ _____    ______ ____
ROOT
ATOM      1  C   UNL     1      43.025   4.092  11.398  0.00  0.00    +0.000 C 
ATOM      2  C   UNL     1      44.429   4.505  10.941  0.00  0.00    +0.000 C 
ENDROOT
BRANCH   2   3
ATOM      3  C   UNL     1      44.762   3.890   9.545  0.00  0.00    +0.000 C 
ATOM      4  C   UNL     1      45.181   2.414   9.698  0.00  0.00    +0.000 C 
ATOM      5  C   UNL     1      45.578   1.766   8.368  0.00  0.00    +0.000 C 
ATOM      6  C   UNL     1      46.692   2.564   7.678  0.00  0.00    +0.000 C 
ATOM      7  C   UNL     1      46.192   3.992   7.428  0.00  0.00    +0.000 C 
ATOM      8  C   UNL     1      45.811   4.683   8.740  0.00  0.00    +0.000 C 
BRANCH   6   9
ATOM      9  C   UNL     1      47.173   1.916   6.368  0.00  0.00    +0.000 C 
BRANCH   9  10
ATOM     10  N   UNL     1      48.523   2.348   6.016  0.00  0.00    +0.000 NA
ATOM     11  H   UNL     1      48.538   3.361   5.893  0.00  0.00    +0.000 HD
ATOM     12  H   UNL     1      48.784   1.948   5.115  0.00  0.00    +0.000 HD
ENDBRANCH   9  10
ENDBRANCH   6   9
ENDBRANCH   2   3
BRANCH   2  13
ATOM     13  O   UNL     1      44.551   5.942  10.903  0.00  0.00    +0.000 OA
BRANCH  13  14
ATOM     14  C   UNL     1      45.503   6.540  11.687  0.00  0.00    +0.000 A 
ATOM     15  C   UNL     1      46.666   5.943  12.166  0.00  0.00    +0.000 A 
ATOM     16  C   UNL     1      47.507   6.639  13.034  0.00  0.00    +0.000 A 
ATOM     17  C   UNL     1      47.169   7.939  13.382  0.00  0.00    +0.000 A 
ATOM     18  N   UNL     1      46.076   8.586  12.899  0.00  0.00    +0.000 NA
ATOM     19  C   UNL     1      45.277   7.866  12.062  0.00  0.00    +0.000 A 
BRANCH  17  20
ATOM     20  C   UNL     1      48.035   8.666  14.369  0.00  0.00    +0.000 C 
ATOM     21  N   UNL     1      47.415   9.075  15.516  0.00  0.00    +0.000 N 
ATOM     22  O   UNL     1      49.228   8.869  14.178  0.00  0.00    +0.000 OA
ATOM     23  H   UNL     1      46.431   8.871  15.663  0.00  0.00    +0.000 HD
ATOM     24  H   UNL     1      47.958   9.535  16.233  0.00  0.00    +0.000 HD
ENDBRANCH  17  20
ENDBRANCH  13  14
ENDBRANCH   2  13
TORSDOF 6
ENDMDL
MODEL 6
REMARK VINA RESULT:    -5.665      3.080      4.848
REMARK INTER + INTRA:          -8.028
REMARK INTER:                  -7.404
REMARK INTRA:                  -0.624
REMARK UNBOUND:                -0.541
REMARK  Name = 
REMARK  7 active torsions:
REMARK  status: ('A' for Active; 'I' for Inactive)
REMARK    1  A    between atoms: C_1  and  C_2
REMARK    2  A    between atoms: C_2  and  O_3
REMARK    3  A    between atoms: C_2  and  C_13
REMARK    4  A    between atoms: O_3  and  C_4
REMARK    5  A    between atoms: C_7  and  C_8
REMARK    6  A    between atoms: C_16  and  C_17
REMARK    7  A    between atoms: C_17  and  N_18
REMARK                            x       y       z     vdW  Elec       q    Type
REMARK                         _______ _______ _______ _____ _____    ______ ____
ROOT
ATOM      1  C   UNL     1      48.585   7.192  13.346  0.00  0.00    +0.000 C 
ATOM      2  C   UNL     1      47.687   6.011  13.734  0.00  0.00    +0.000 C 
ENDROOT
BRANCH   2   3
ATOM      3  C   UNL     1      47.716   5.776  15.278  0.00  0.00    +0.000 C 
ATOM      4  C   UNL     1      49.017   6.342  15.880  0.00  0.00    +0.000 C 
ATOM      5  C   UNL     1      49.135   6.092  17.387  0.00  0.00    +0.000 C 
ATOM      6  C   UNL     1      49.009   4.597  17.708  0.00  0.00    +0.000 C 
ATOM      7  C   UNL     1      47.648   4.099  17.206  0.00  0.00    +0.000 C 
ATOM      8  C   UNL     1      47.503   4.307  15.697  0.00  0.00    +0.000 C 
BRANCH   6   9
ATOM      9  C   UNL     1      49.186   4.286  19.204  0.00  0.00    +0.000 C 
BRANCH   9  10
ATOM     10  N   UNL     1      48.235   3.277  19.663  0.00  0.00    +0.000 NA
ATOM     11  H   UNL     1      48.205   3.273  20.682  0.00  0.00    +0.000 HD
ATOM     12  H   UNL     1      48.558   2.353  19.383  0.00  0.00    +0.000 HD
ENDBRANCH   9  10
ENDBRANCH   6   9
ENDBRANCH   2   3
BRANCH   2  13
ATOM     13  O   UNL     1      46.335   6.227  13.281  0.00  0.00    +0.000 OA
BRANCH  13  14
ATOM     14  C   UNL     1      45.818   5.382  12.334  0.00  0.00    +0.000 A 
ATOM     15  C   UNL     1      45.312   4.105  12.563  0.00  0.00    +0.000 A 
ATOM     16  C   UNL     1      44.901   3.310  11.493  0.00  0.00    +0.000 A 
ATOM     17  C   UNL     1      44.983   3.832  10.210  0.00  0.00    +0.000 A 
ATOM     18  N   UNL     1      45.417   5.092   9.938  0.00  0.00    +0.000 NA
ATOM     19  C   UNL     1      45.819   5.829  11.012  0.00  0.00    +0.000 A 
BRANCH  17  20
ATOM     20  C   UNL     1      44.605   2.956   9.053  0.00  0.00    +0.000 C 
ATOM     21  N   UNL     1      44.268   3.607   7.899  0.00  0.00    +0.000 N 
ATOM     22  O   UNL     1      44.612   1.733   9.120  0.00  0.00    +0.000 OA
ATOM     23  H   UNL     1      44.296   4.621   7.860  0.00  0.00    +0.000 HD
ATOM     24  H   UNL     1      44.042   3.066   7.075  0.00  0.00    +0.000 HD
ENDBRANCH  17  20
ENDBRANCH  13  14
ENDBRANCH   2  13
TORSDOF 6
ENDMDL
MODEL 7
REMARK VINA RESULT:    -5.605      4.432      8.785
REMARK INTER + INTRA:          -7.948
REMARK INTER:                  -7.401
REMARK INTRA:                  -0.547
REMARK UNBOUND:                -0.541
REMARK  Name = 
REMARK  7 active torsions:
REMARK  status: ('A' for Active; 'I' for Inactive)
REMARK    1  A    between atoms: C_1  and  C_2
REMARK    2  A    between atoms: C_2  and  O_3
REMARK    3  A    between atoms: C_2  and  C_13
REMARK    4  A    between atoms: O_3  and  C_4
REMARK    5  A    between atoms: C_7  and  C_8
REMARK    6  A    between atoms: C_16  and  C_17
REMARK    7  A    between atoms: C_17  and  N_18
REMARK                            x       y       z     vdW  Elec       q    Type
REMARK                         _______ _______ _______ _____ _____    ______ ____
ROOT
ATOM      1  C   UNL     1      48.891   7.103  12.844  0.00  0.00    +0.000 C 
ATOM      2  C   UNL     1      47.844   6.618  13.855  0.00  0.00    +0.000 C 
ENDROOT
BRANCH   2   3
ATOM      3  C   UNL     1      46.514   6.231  13.133  0.00  0.00    +0.000 C 
ATOM      4  C   UNL     1      46.332   4.701  13.133  0.00  0.00    +0.000 C 
ATOM      5  C   UNL     1      45.073   4.250  12.387  0.00  0.00    +0.000 C 
ATOM      6  C   UNL     1      45.064   4.784  10.950  0.00  0.00    +0.000 C 
ATOM      7  C   UNL     1      45.118   6.316  10.994  0.00  0.00    +0.000 C 
ATOM      8  C   UNL     1      46.380   6.806  11.709  0.00  0.00    +0.000 C 
BRANCH   6   9
ATOM      9  C   UNL     1      43.849   4.303  10.136  0.00  0.00    +0.000 C 
BRANCH   9  10
ATOM     10  N   UNL     1      44.131   4.287   8.703  0.00  0.00    +0.000 NA
ATOM     11  H   UNL     1      44.110   3.326   8.361  0.00  0.00    +0.000 HD
ATOM     12  H   UNL     1      45.077   4.627   8.539  0.00  0.00    +0.000 HD
ENDBRANCH   9  10
ENDBRANCH   6   9
ENDBRANCH   2   3
BRANCH   2  13
ATOM     13  O   UNL     1      48.349   5.503  14.617  0.00  0.00    +0.000 OA
BRANCH  13  14
ATOM     14  C   UNL     1      48.340   5.587  15.985  0.00  0.00    +0.000 A 
ATOM     15  C   UNL     1      48.982   6.555  16.753  0.00  0.00    +0.000 A 
ATOM     16  C   UNL     1      48.970   6.470  18.145  0.00  0.00    +0.000 A 
ATOM     17  C   UNL     1      48.283   5.419  18.738  0.00  0.00    +0.000 A 
ATOM     18  N   UNL     1      47.595   4.480  18.036  0.00  0.00    +0.000 NA
ATOM     19  C   UNL     1      47.643   4.596  16.679  0.00  0.00    +0.000 A 
BRANCH  17  20
ATOM     20  C   UNL     1      48.325   5.287  20.232  0.00  0.00    +0.000 C 
ATOM     21  N   UNL     1      48.637   4.045  20.711  0.00  0.00    +0.000 N 
ATOM     22  O   UNL     1      48.114   6.229  20.986  0.00  0.00    +0.000 OA
ATOM     23  H   UNL     1      48.834   3.285  20.066  0.00  0.00    +0.000 HD
ATOM     24  H   UNL     1      48.717   3.907  21.709  0.00  0.00    +0.000 HD
ENDBRANCH  17  20
ENDBRANCH  13  14
ENDBRANCH   2  13
TORSDOF 6
ENDMDL
MODEL 8
REMARK VINA RESULT:    -5.423      3.974      5.921
REMARK INTER + INTRA:          -7.708
REMARK INTER:                  -7.011
REMARK INTRA:                  -0.697
REMARK UNBOUND:                -0.541
REMARK  Name = 
REMARK  7 active torsions:
REMARK  status: ('A' for Active; 'I' for Inactive)
REMARK    1  A    between atoms: C_1  and  C_2
REMARK    2  A    between atoms: C_2  and  O_3
REMARK    3  A    between atoms: C_2  and  C_13
REMARK    4  A    between atoms: O_3  and  C_4
REMARK    5  A    between atoms: C_7  and  C_8
REMARK    6  A    between atoms: C_16  and  C_17
REMARK    7  A    between atoms: C_17  and  N_18
REMARK                            x       y       z     vdW  Elec       q    Type
REMARK                         _______ _______ _______ _____ _____    ______ ____
ROOT
ATOM      1  C   UNL     1      49.032   6.649  15.747  0.00  0.00    +0.000 C 
ATOM      2  C   UNL     1      48.259   6.933  14.453  0.00  0.00    +0.000 C 
ENDROOT
BRANCH   2   3
ATOM      3  C   UNL     1      48.847   8.180  13.719  0.00  0.00    +0.000 C 
ATOM      4  C   UNL     1      47.733   9.208  13.437  0.00  0.00    +0.000 C 
ATOM      5  C   UNL     1      48.233  10.432  12.665  0.00  0.00    +0.000 C 
ATOM      6  C   UNL     1      48.915  10.016  11.355  0.00  0.00    +0.000 C 
ATOM      7  C   UNL     1      50.096   9.095  11.686  0.00  0.00    +0.000 C 
ATOM      8  C   UNL     1      49.631   7.844  12.435  0.00  0.00    +0.000 C 
BRANCH   6   9
ATOM      9  C   UNL     1      49.377  11.215  10.509  0.00  0.00    +0.000 C 
BRANCH   9  10
ATOM     10  N   UNL     1      50.803  11.142  10.202  0.00  0.00    +0.000 NA
ATOM     11  H   UNL     1      50.999  11.675   9.354  0.00  0.00    +0.000 HD
ATOM     12  H   UNL     1      51.057  10.177   9.996  0.00  0.00    +0.000 HD
ENDBRANCH   9  10
ENDBRANCH   6   9
ENDBRANCH   2   3
BRANCH   2  13
ATOM     13  O   UNL     1      48.275   5.781  13.586  0.00  0.00    +0.000 OA
BRANCH  13  14
ATOM     14  C   UNL     1      47.099   5.377  13.010  0.00  0.00    +0.000 A 
ATOM     15  C   UNL     1      46.419   6.032  11.986  0.00  0.00    +0.000 A 
ATOM     16  C   UNL     1      45.179   5.563  11.554  0.00  0.00    +0.000 A 
ATOM     17  C   UNL     1      44.659   4.421  12.148  0.00  0.00    +0.000 A 
ATOM     18  N   UNL     1      45.307   3.715  13.112  0.00  0.00    +0.000 NA
ATOM     19  C   UNL     1      46.511   4.215  13.511  0.00  0.00    +0.000 A 
BRANCH  17  20
ATOM     20  C   UNL     1      43.295   3.953  11.733  0.00  0.00    +0.000 C 
ATOM     21  N   UNL     1      42.312   4.903  11.745  0.00  0.00    +0.000 N 
ATOM     22  O   UNL     1      43.069   2.801  11.385  0.00  0.00    +0.000 OA
ATOM     23  H   UNL     1      42.530   5.857  12.012  0.00  0.00    +0.000 HD
ATOM     24  H   UNL     1      41.382   4.653  11.438  0.00  0.00    +0.000 HD
ENDBRANCH  17  20
ENDBRANCH  13  14
ENDBRANCH   2  13
TORSDOF 6
ENDMDL
MODEL 9
REMARK VINA RESULT:    -5.405      3.241      5.039
REMARK INTER + INTRA:          -7.684
REMARK INTER:                  -7.047
REMARK INTRA:                  -0.637
REMARK UNBOUND:                -0.541
REMARK  Name = 
REMARK  7 active torsions:
REMARK  status: ('A' for Active; 'I' for Inactive)
REMARK    1  A    between atoms: C_1  and  C_2
REMARK    2  A    between atoms: C_2  and  O_3
REMARK    3  A    between atoms: C_2  and  C_13
REMARK    4  A    between atoms: O_3  and  C_4
REMARK    5  A    between atoms: C_7  and  C_8
REMARK    6  A    between atoms: C_16  and  C_17
REMARK    7  A    between atoms: C_17  and  N_18
REMARK                            x       y       z     vdW  Elec       q    Type
REMARK                         _______ _______ _______ _____ _____    ______ ____
ROOT
ATOM      1  C   UNL     1      45.379   9.925  12.144  0.00  0.00    +0.000 C 
ATOM      2  C   UNL     1      46.288   8.694  12.034  0.00  0.00    +0.000 C 
ENDROOT
BRANCH   2   3
ATOM      3  C   UNL     1      47.769   9.068  12.357  0.00  0.00    +0.000 C 
ATOM      4  C   UNL     1      48.732   8.071  11.683  0.00  0.00    +0.000 C 
ATOM      5  C   UNL     1      50.202   8.347  12.010  0.00  0.00    +0.000 C 
ATOM      6  C   UNL     1      50.435   8.366  13.526  0.00  0.00    +0.000 C 
ATOM      7  C   UNL     1      49.554   9.458  14.145  0.00  0.00    +0.000 C 
ATOM      8  C   UNL     1      48.072   9.200  13.863  0.00  0.00    +0.000 C 
BRANCH   6   9
ATOM      9  C   UNL     1      51.912   8.575  13.905  0.00  0.00    +0.000 C 
BRANCH   9  10
ATOM     10  N   UNL     1      52.442   7.441  14.657  0.00  0.00    +0.000 NA
ATOM     11  H   UNL     1      52.688   7.739  15.600  0.00  0.00    +0.000 HD
ATOM     12  H   UNL     1      53.308   7.122  14.225  0.00  0.00    +0.000 HD
ENDBRANCH   9  10
ENDBRANCH   6   9
ENDBRANCH   2   3
BRANCH   2  13
ATOM     13  O   UNL     1      45.829   7.642  12.906  0.00  0.00    +0.000 OA
BRANCH  13  14
ATOM     14  C   UNL     1      45.465   6.443  12.352  0.00  0.00    +0.000 A 
ATOM     15  C   UNL     1      45.614   6.076  11.017  0.00  0.00    +0.000 A 
ATOM     16  C   UNL     1      45.114   4.856  10.563  0.00  0.00    +0.000 A 
ATOM     17  C   UNL     1      44.494   4.014  11.475  0.00  0.00    +0.000 A 
ATOM     18  N   UNL     1      44.372   4.300  12.798  0.00  0.00    +0.000 NA
ATOM     19  C   UNL     1      44.865   5.507  13.196  0.00  0.00    +0.000 A 
BRANCH  17  20
ATOM     20  C   UNL     1      43.895   2.732  10.976  0.00  0.00    +0.000 C 
ATOM     21  N   UNL     1      44.466   2.208   9.849  0.00  0.00    +0.000 N 
ATOM     22  O   UNL     1      42.967   2.171  11.544  0.00  0.00    +0.000 OA
ATOM     23  H   UNL     1      45.252   2.678   9.411  0.00  0.00    +0.000 HD
ATOM     24  H   UNL     1      44.128   1.326   9.490  0.00  0.00    +0.000 HD
ENDBRANCH  17  20
ENDBRANCH  13  14
ENDBRANCH   2  13
TORSDOF 6
ENDMDL
