MODEL 1
REMARK VINA RESULT:    -8.478      0.000      0.000
REMARK INTER + INTRA:         -11.788
REMARK INTER:                 -10.957
REMARK INTRA:                  -0.831
REMARK UNBOUND:                -0.831
REMARK  Name = 
REMARK  5 active torsions:
REMARK  status: ('A' for Active; 'I' for Inactive)
REMARK    1  A    between atoms: C_2  and  C_4
REMARK    2  A    between atoms: C_7  and  N_8
REMARK    3  A    between atoms: N_8  and  C_9
REMARK    4  A    between atoms: C_9  and  C_10
REMARK    5  A    between atoms: C_14  and  N_15
REMARK                            x       y       z     vdW  Elec       q    Type
REMARK                         _______ _______ _______ _____ _____    ______ ____
ROOT
ATOM      1  N   UNL     1      43.720   4.727   9.858  0.00  0.00    +0.000 N 
ATOM      2  H   UNL     1      42.897   4.965   9.314  0.00  0.00    +0.000 HD
ENDROOT
BRANCH   1   6
ATOM      3  C   UNL     1      46.486   2.416   7.680  0.00  0.00    +0.000 A 
ATOM      4  C   UNL     1      46.512   3.807   7.566  0.00  0.00    +0.000 A 
ATOM      5  C   UNL     1      45.621   4.586   8.313  0.00  0.00    +0.000 A 
ATOM      6  C   UNL     1      44.699   4.007   9.191  0.00  0.00    +0.000 A 
ATOM      7  C   UNL     1      44.689   2.609   9.294  0.00  0.00    +0.000 A 
ATOM      8  C   UNL     1      45.568   1.817   8.546  0.00  0.00    +0.000 A 
BRANCH   3  10
ATOM      9  N   UNL     1      48.513   2.107   6.365  0.00  0.00    +0.000 N 
ATOM     10  C   UNL     1      47.366   1.550   6.856  0.00  0.00    +0.000 C 
ATOM     11  O   UNL     1      47.094   0.376   6.640  0.00  0.00    +0.000 OA
ATOM     12  H   UNL     1      49.139   1.486   5.869  0.00  0.00    +0.000 HD
ATOM     13  H   UNL     1      48.890   2.978   6.712  0.00  0.00    +0.000 HD
ENDBRANCH   3  10
ENDBRANCH   1   6
BRANCH   1  14
ATOM     14  C   UNL     1      43.504   4.660  11.297  0.00  0.00    +0.000 C 
BRANCH  14  15
ATOM     15  C   UNL     1      44.759   4.763  12.121  0.00  0.00    +0.000 A 
ATOM     16  C   UNL     1      45.207   3.629  12.790  0.00  0.00    +0.000 A 
ATOM     17  N   UNL     1      46.328   3.582  13.533  0.00  0.00    +0.000 NA
ATOM     18  C   UNL     1      47.041   4.733  13.614  0.00  0.00    +0.000 A 
ATOM     19  C   UNL     1      46.715   5.947  13.001  0.00  0.00    +0.000 A 
ATOM     20  C   UNL     1      45.536   5.925  12.247  0.00  0.00    +0.000 A 
BRANCH  19  21
ATOM     21  N   UNL     1      47.494   7.075  13.126  0.00  0.00    +0.000 N 
ATOM     22  C   UNL     1      46.950   8.418  13.377  0.00  0.00    +0.000 C 
ATOM     23  C   UNL     1      47.348   9.376  12.245  0.00  0.00    +0.000 C 
ATOM     24  O   UNL     1      48.769   9.382  12.030  0.00  0.00    +0.000 OA
ATOM     25  C   UNL     1      49.227   8.063  11.688  0.00  0.00    +0.000 C 
ATOM     26  C   UNL     1      48.929   7.048  12.806  0.00  0.00    +0.000 C 
ENDBRANCH  19  21
ENDBRANCH  14  15
ENDBRANCH   1  14
TORSDOF 5
ENDMDL
MODEL 2
REMARK VINA RESULT:    -8.090      2.057      2.948
REMARK INTER + INTRA:         -11.286
REMARK INTER:                 -10.500
REMARK INTRA:                  -0.786
REMARK UNBOUND:                -0.831
REMARK  Name = 
REMARK  5 active torsions:
REMARK  status: ('A' for Active; 'I' for Inactive)
REMARK    1  A    between atoms: C_2  and  C_4
REMARK    2  A    between atoms: C_7  and  N_8
REMARK    3  A    between atoms: N_8  and  C_9
REMARK    4  A    between atoms: C_9  and  C_10
REMARK    5  A    between atoms: C_14  and  N_15
REMARK                            x       y       z     vdW  Elec       q    Type
REMARK                         _______ _______ _______ _____ _____    ______ ____
ROOT
ATOM      1  N   UNL     1      43.731   4.665  10.015  0.00  0.00    +0.000 N 
ATOM      2  H   UNL     1      42.837   4.767   9.545  0.00  0.00    +0.000 HD
ENDROOT
BRANCH   1   6
ATOM      3  C   UNL     1      46.462   2.367   7.781  0.00  0.00    +0.000 A 
ATOM      4  C   UNL     1      46.455   3.756   7.640  0.00  0.00    +0.000 A 
ATOM      5  C   UNL     1      45.576   4.532   8.404  0.00  0.00    +0.000 A 
ATOM      6  C   UNL     1      44.700   3.952   9.327  0.00  0.00    +0.000 A 
ATOM      7  C   UNL     1      44.721   2.556   9.456  0.00  0.00    +0.000 A 
ATOM      8  C   UNL     1      45.589   1.767   8.690  0.00  0.00    +0.000 A 
BRANCH   3  10
ATOM      9  N   UNL     1      48.463   2.065   6.424  0.00  0.00    +0.000 N 
ATOM     10  C   UNL     1      47.329   1.504   6.941  0.00  0.00    +0.000 C 
ATOM     11  O   UNL     1      47.059   0.327   6.736  0.00  0.00    +0.000 OA
ATOM     12  H   UNL     1      49.081   1.446   5.917  0.00  0.00    +0.000 HD
ATOM     13  H   UNL     1      48.842   2.939   6.759  0.00  0.00    +0.000 HD
ENDBRANCH   3  10
ENDBRANCH   1   6
BRANCH   1  14
ATOM     14  C   UNL     1      43.671   4.756  11.468  0.00  0.00    +0.000 C 
BRANCH  14  15
ATOM     15  C   UNL     1      44.818   5.505  12.093  0.00  0.00    +0.000 A 
ATOM     16  C   UNL     1      45.051   6.815  11.690  0.00  0.00    +0.000 A 
ATOM     17  N   UNL     1      46.022   7.601  12.193  0.00  0.00    +0.000 NA
ATOM     18  C   UNL     1      46.805   7.045  13.151  0.00  0.00    +0.000 A 
ATOM     19  C   UNL     1      46.691   5.744  13.653  0.00  0.00    +0.000 A 
ATOM     20  C   UNL     1      45.664   4.984  13.083  0.00  0.00    +0.000 A 
BRANCH  19  21
ATOM     21  N   UNL     1      47.523   5.252  14.632  0.00  0.00    +0.000 N 
ATOM     22  C   UNL     1      47.300   3.973  15.325  0.00  0.00    +0.000 C 
ATOM     23  C   UNL     1      47.157   4.203  16.837  0.00  0.00    +0.000 C 
ATOM     24  O   UNL     1      48.271   4.937  17.369  0.00  0.00    +0.000 OA
ATOM     25  C   UNL     1      48.377   6.219  16.726  0.00  0.00    +0.000 C 
ATOM     26  C   UNL     1      48.594   6.079  15.209  0.00  0.00    +0.000 C 
ENDBRANCH  19  21
ENDBRANCH  14  15
ENDBRANCH   1  14
TORSDOF 5
ENDMDL
MODEL 3
REMARK VINA RESULT:    -7.850      1.394      2.106
REMARK INTER + INTRA:         -10.976
REMARK INTER:                 -10.186
REMARK INTRA:                  -0.790
REMARK UNBOUND:                -0.831
REMARK  Name = 
REMARK  5 active torsions:
REMARK  status: ('A' for Active; 'I' for Inactive)
REMARK    1  A    between atoms: C_2  and  C_4
REMARK    2  A    between atoms: C_7  and  N_8
REMARK    3  A    between atoms: N_8  and  C_9
REMARK    4  A    between atoms: C_9  and  C_10
REMARK    5  A    between atoms: C_14  and  N_15
REMARK                            x       y       z     vdW  Elec       q    Type
REMARK                         _______ _______ _______ _____ _____    ______ ____
ROOT
ATOM      1  N   UNL     1      43.703   4.666   9.946  0.00  0.00    +0.000 N 
ATOM      2  H   UNL     1      42.764   4.558   9.576  0.00  0.00    +0.000 HD
ENDROOT
BRANCH   1   6
ATOM      3  C   UNL     1      46.543   2.509   7.707  0.00  0.00    +0.000 A 
ATOM      4  C   UNL     1      46.491   3.900   7.594  0.00  0.00    +0.000 A 
ATOM      5  C   UNL     1      45.575   4.629   8.361  0.00  0.00    +0.000 A 
ATOM      6  C   UNL     1      44.706   4.001   9.258  0.00  0.00    +0.000 A 
ATOM      7  C   UNL     1      44.773   2.604   9.359  0.00  0.00    +0.000 A 
ATOM      8  C   UNL     1      45.678   1.861   8.591  0.00  0.00    +0.000 A 
BRANCH   3  10
ATOM      9  N   UNL     1      48.548   2.316   6.337  0.00  0.00    +0.000 N 
ATOM     10  C   UNL     1      47.451   1.693   6.863  0.00  0.00    +0.000 C 
ATOM     11  O   UNL     1      47.246   0.503   6.662  0.00  0.00    +0.000 OA
ATOM     12  H   UNL     1      49.197   1.730   5.827  0.00  0.00    +0.000 HD
ATOM     13  H   UNL     1      48.881   3.211   6.668  0.00  0.00    +0.000 HD
ENDBRANCH   3  10
ENDBRANCH   1   6
BRANCH   1  14
ATOM     14  C   UNL     1      43.768   4.982  11.366  0.00  0.00    +0.000 C 
BRANCH  14  15
ATOM     15  C   UNL     1      44.742   6.074  11.719  0.00  0.00    +0.000 A 
ATOM     16  C   UNL     1      44.373   7.393  11.480  0.00  0.00    +0.000 A 
ATOM     17  N   UNL     1      45.139   8.459  11.777  0.00  0.00    +0.000 NA
ATOM     18  C   UNL     1      46.341   8.192  12.344  0.00  0.00    +0.000 A 
ATOM     19  C   UNL     1      46.846   6.922  12.641  0.00  0.00    +0.000 A 
ATOM     20  C   UNL     1      46.000   5.861  12.302  0.00  0.00    +0.000 A 
BRANCH  19  21
ATOM     21  N   UNL     1      48.079   6.731  13.224  0.00  0.00    +0.000 N 
ATOM     22  C   UNL     1      48.269   6.427  14.650  0.00  0.00    +0.000 C 
ATOM     23  C   UNL     1      49.135   7.506  15.315  0.00  0.00    +0.000 C 
ATOM     24  O   UNL     1      50.377   7.695  14.616  0.00  0.00    +0.000 OA
ATOM     25  C   UNL     1      50.128   8.090  13.256  0.00  0.00    +0.000 C 
ATOM     26  C   UNL     1      49.321   7.026  12.492  0.00  0.00    +0.000 C 
ENDBRANCH  19  21
ENDBRANCH  14  15
ENDBRANCH   1  14
TORSDOF 5
ENDMDL
MODEL 4
REMARK VINA RESULT:    -6.695      3.034      7.598
REMARK INTER + INTRA:          -9.483
REMARK INTER:                  -8.911
REMARK INTRA:                  -0.572
REMARK UNBOUND:                -0.831
REMARK  Name = 
REMARK  5 active torsions:
REMARK  status: ('A' for Active; 'I' for Inactive)
REMARK    1  A    between atoms: C_2  and  C_4
REMARK    2  A    between atoms: C_7  and  N_8
REMARK    3  A    between atoms: N_8  and  C_9
REMARK    4  A    between atoms: C_9  and  C_10
REMARK    5  A    between atoms: C_14  and  N_15
REMARK                            x       y       z     vdW  Elec       q    Type
REMARK                         _______ _______ _______ _____ _____    ______ ____
ROOT
ATOM      1  N   UNL     1      47.134   5.947  13.267  0.00  0.00    +0.000 N 
ATOM      2  H   UNL     1      47.714   5.617  12.502  0.00  0.00    +0.000 HD
ENDROOT
BRANCH   1   6
ATOM      3  C   UNL     1      48.608   4.758  17.027  0.00  0.00    +0.000 A 
ATOM      4  C   UNL     1      49.031   5.968  16.475  0.00  0.00    +0.000 A 
ATOM      5  C   UNL     1      48.519   6.390  15.243  0.00  0.00    +0.000 A 
ATOM      6  C   UNL     1      47.576   5.632  14.542  0.00  0.00    +0.000 A 
ATOM      7  C   UNL     1      47.163   4.420  15.112  0.00  0.00    +0.000 A 
ATOM      8  C   UNL     1      47.673   3.981  16.341  0.00  0.00    +0.000 A 
BRANCH   3  10
ATOM      9  N   UNL     1      49.605   2.944  18.313  0.00  0.00    +0.000 N 
ATOM     10  C   UNL     1      49.176   4.241  18.298  0.00  0.00    +0.000 C 
ATOM     11  O   UNL     1      49.281   4.951  19.290  0.00  0.00    +0.000 OA
ATOM     12  H   UNL     1      50.058   2.629  19.161  0.00  0.00    +0.000 HD
ATOM     13  H   UNL     1      49.759   2.409  17.470  0.00  0.00    +0.000 HD
ENDBRANCH   3  10
ENDBRANCH   1   6
BRANCH   1  14
ATOM     14  C   UNL     1      45.735   6.163  12.925  0.00  0.00    +0.000 C 
BRANCH  14  15
ATOM     15  C   UNL     1      45.052   4.970  12.313  0.00  0.00    +0.000 A 
ATOM     16  C   UNL     1      44.126   4.271  13.081  0.00  0.00    +0.000 A 
ATOM     17  N   UNL     1      43.427   3.208  12.642  0.00  0.00    +0.000 NA
ATOM     18  C   UNL     1      43.665   2.821  11.364  0.00  0.00    +0.000 A 
ATOM     19  C   UNL     1      44.564   3.423  10.478  0.00  0.00    +0.000 A 
ATOM     20  C   UNL     1      45.260   4.519  11.001  0.00  0.00    +0.000 A 
BRANCH  19  21
ATOM     21  N   UNL     1      44.749   2.974   9.189  0.00  0.00    +0.000 N 
ATOM     22  C   UNL     1      44.978   1.564   8.841  0.00  0.00    +0.000 C 
ATOM     23  C   UNL     1      46.325   1.403   8.121  0.00  0.00    +0.000 C 
ATOM     24  O   UNL     1      46.427   2.280   6.987  0.00  0.00    +0.000 OA
ATOM     25  C   UNL     1      46.298   3.650   7.402  0.00  0.00    +0.000 C 
ATOM     26  C   UNL     1      44.939   3.916   8.075  0.00  0.00    +0.000 C 
ENDBRANCH  19  21
ENDBRANCH  14  15
ENDBRANCH   1  14
TORSDOF 5
ENDMDL
MODEL 5
REMARK VINA RESULT:    -6.391      1.910      6.629
REMARK INTER + INTRA:          -9.090
REMARK INTER:                  -8.385
REMARK INTRA:                  -0.706
REMARK UNBOUND:                -0.831
REMARK  Name = 
REMARK  5 active torsions:
REMARK  status: ('A' for Active; 'I' for Inactive)
REMARK    1  A    between atoms: C_2  and  C_4
REMARK    2  A    between atoms: C_7  and  N_8
REMARK    3  A    between atoms: N_8  and  C_9
REMARK    4  A    between atoms: C_9  and  C_10
REMARK    5  A    between atoms: C_14  and  N_15
REMARK                            x       y       z     vdW  Elec       q    Type
REMARK                         _______ _______ _______ _____ _____    ______ ____
ROOT
ATOM      1  N   UNL     1      45.716   7.487  11.949  0.00  0.00    +0.000 N 
ATOM      2  H   UNL     1      45.410   7.475  10.981  0.00  0.00    +0.000 HD
ENDROOT
BRANCH   1   6
ATOM      3  C   UNL     1      49.853   8.142  12.381  0.00  0.00    +0.000 A 
ATOM      4  C   UNL     1      49.036   9.180  11.929  0.00  0.00    +0.000 A 
ATOM      5  C   UNL     1      47.655   8.984  11.817  0.00  0.00    +0.000 A 
ATOM      6  C   UNL     1      47.057   7.767  12.158  0.00  0.00    +0.000 A 
ATOM      7  C   UNL     1      47.893   6.736  12.611  0.00  0.00    +0.000 A 
ATOM      8  C   UNL     1      49.277   6.916  12.720  0.00  0.00    +0.000 A 
BRANCH   3  10
ATOM      9  N   UNL     1      52.055   7.824  11.389  0.00  0.00    +0.000 N 
ATOM     10  C   UNL     1      51.328   8.286  12.450  0.00  0.00    +0.000 C 
ATOM     11  O   UNL     1      51.878   8.819  13.406  0.00  0.00    +0.000 OA
ATOM     12  H   UNL     1      53.052   7.997  11.416  0.00  0.00    +0.000 HD
ATOM     13  H   UNL     1      51.639   7.605  10.495  0.00  0.00    +0.000 HD
ENDBRANCH   3  10
ENDBRANCH   1   6
BRANCH   1  14
ATOM     14  C   UNL     1      44.904   6.686  12.856  0.00  0.00    +0.000 C 
BRANCH  14  15
ATOM     15  C   UNL     1      44.543   5.323  12.331  0.00  0.00    +0.000 A 
ATOM     16  C   UNL     1      43.887   4.439  13.180  0.00  0.00    +0.000 A 
ATOM     17  N   UNL     1      43.483   3.205  12.823  0.00  0.00    +0.000 NA
ATOM     18  C   UNL     1      43.750   2.834  11.547  0.00  0.00    +0.000 A 
ATOM     19  C   UNL     1      44.401   3.612  10.584  0.00  0.00    +0.000 A 
ATOM     20  C   UNL     1      44.796   4.880  11.024  0.00  0.00    +0.000 A 
BRANCH  19  21
ATOM     21  N   UNL     1      44.633   3.167   9.302  0.00  0.00    +0.000 N 
ATOM     22  C   UNL     1      44.777   1.747   8.945  0.00  0.00    +0.000 C 
ATOM     23  C   UNL     1      46.150   1.493   8.307  0.00  0.00    +0.000 C 
ATOM     24  O   UNL     1      46.390   2.373   7.197  0.00  0.00    +0.000 OA
ATOM     25  C   UNL     1      46.338   3.744   7.627  0.00  0.00    +0.000 C 
ATOM     26  C   UNL     1      44.964   4.104   8.218  0.00  0.00    +0.000 C 
ENDBRANCH  19  21
ENDBRANCH  14  15
ENDBRANCH   1  14
TORSDOF 5
ENDMDL
MODEL 6
REMARK VINA RESULT:    -6.117      3.640      5.722
REMARK INTER + INTRA:          -8.736
REMARK INTER:                  -8.024
REMARK INTRA:                  -0.712
REMARK UNBOUND:                -0.831
REMARK  Name = 
REMARK  5 active torsions:
REMARK  status: ('A' for Active; 'I' for Inactive)
REMARK    1  A    between atoms: C_2  and  C_4
REMARK    2  A    between atoms: C_7  and  N_8
REMARK    3  A    between atoms: N_8  and  C_9
REMARK    4  A    between atoms: C_9  and  C_10
REMARK    5  A    between atoms: C_14  and  N_15
REMARK                            x       y       z     vdW  Elec       q    Type
REMARK                         _______ _______ _______ _____ _____    ______ ____
ROOT
ATOM      1  N   UNL     1      46.446   7.511  13.322  0.00  0.00    +0.000 N 
ATOM      2  H   UNL     1      46.019   7.705  14.222  0.00  0.00    +0.000 HD
ENDROOT
BRANCH   1   6
ATOM      3  C   UNL     1      44.804   4.107  11.465  0.00  0.00    +0.000 A 
ATOM      4  C   UNL     1      45.137   5.220  10.690  0.00  0.00    +0.000 A 
ATOM      5  C   UNL     1      45.717   6.343  11.292  0.00  0.00    +0.000 A 
ATOM      6  C   UNL     1      45.987   6.382  12.663  0.00  0.00    +0.000 A 
ATOM      7  C   UNL     1      45.648   5.255  13.426  0.00  0.00    +0.000 A 
ATOM      8  C   UNL     1      45.059   4.128  12.838  0.00  0.00    +0.000 A 
BRANCH   3  10
ATOM      9  N   UNL     1      44.781   2.255   9.882  0.00  0.00    +0.000 N 
ATOM     10  C   UNL     1      44.126   2.924  10.878  0.00  0.00    +0.000 C 
ATOM     11  O   UNL     1      43.036   2.542  11.283  0.00  0.00    +0.000 OA
ATOM     12  H   UNL     1      44.341   1.409   9.544  0.00  0.00    +0.000 HD
ATOM     13  H   UNL     1      45.764   2.386   9.690  0.00  0.00    +0.000 HD
ENDBRANCH   3  10
ENDBRANCH   1   6
BRANCH   1  14
ATOM     14  C   UNL     1      47.783   8.063  13.149  0.00  0.00    +0.000 C 
BRANCH  14  15
ATOM     15  C   UNL     1      48.782   7.609  14.179  0.00  0.00    +0.000 A 
ATOM     16  C   UNL     1      50.058   8.163  14.153  0.00  0.00    +0.000 A 
ATOM     17  N   UNL     1      51.031   7.866  15.034  0.00  0.00    +0.000 NA
ATOM     18  C   UNL     1      50.712   6.963  15.995  0.00  0.00    +0.000 A 
ATOM     19  C   UNL     1      49.477   6.324  16.144  0.00  0.00    +0.000 A 
ATOM     20  C   UNL     1      48.514   6.677  15.192  0.00  0.00    +0.000 A 
BRANCH  19  21
ATOM     21  N   UNL     1      49.227   5.419  17.151  0.00  0.00    +0.000 N 
ATOM     22  C   UNL     1      50.258   4.557  17.749  0.00  0.00    +0.000 C 
ATOM     23  C   UNL     1      49.889   3.078  17.569  0.00  0.00    +0.000 C 
ATOM     24  O   UNL     1      48.571   2.796  18.067  0.00  0.00    +0.000 OA
ATOM     25  C   UNL     1      47.595   3.593  17.374  0.00  0.00    +0.000 C 
ATOM     26  C   UNL     1      47.851   5.098  17.563  0.00  0.00    +0.000 C 
ENDBRANCH  19  21
ENDBRANCH  14  15
ENDBRANCH   1  14
TORSDOF 5
ENDMDL
MODEL 7
REMARK VINA RESULT:    -6.098      5.022      8.226
REMARK INTER + INTRA:          -8.711
REMARK INTER:                  -8.162
REMARK INTRA:                  -0.549
REMARK UNBOUND:                -0.831
REMARK  Name = 
REMARK  5 active torsions:
REMARK  status: ('A' for Active; 'I' for Inactive)
REMARK    1  A    between atoms: C_2  and  C_4
REMARK    2  A    between atoms: C_7  and  N_8
REMARK    3  A    between atoms: N_8  and  C_9
REMARK    4  A    between atoms: C_9  and  C_10
REMARK    5  A    between atoms: C_14  and  N_15
REMARK                            x       y       z     vdW  Elec       q    Type
REMARK                         _______ _______ _______ _____ _____    ______ ____
ROOT
ATOM      1  N   UNL     1      48.640   4.665  16.934  0.00  0.00    +0.000 N 
ATOM      2  H   UNL     1      48.838   5.649  16.779  0.00  0.00    +0.000 HD
ENDROOT
BRANCH   1   6
ATOM      3  C   UNL     1      51.964   2.198  17.707  0.00  0.00    +0.000 A 
ATOM      4  C   UNL     1      52.051   3.568  17.962  0.00  0.00    +0.000 A 
ATOM      5  C   UNL     1      50.940   4.392  17.743  0.00  0.00    +0.000 A 
ATOM      6  C   UNL     1      49.725   3.876  17.280  0.00  0.00    +0.000 A 
ATOM      7  C   UNL     1      49.656   2.497  17.031  0.00  0.00    +0.000 A 
ATOM      8  C   UNL     1      50.763   1.664  17.238  0.00  0.00    +0.000 A 
BRANCH   3  10
ATOM      9  N   UNL     1      54.325   1.726  17.335  0.00  0.00    +0.000 N 
ATOM     10  C   UNL     1      53.137   1.302  17.862  0.00  0.00    +0.000 C 
ATOM     11  O   UNL     1      53.057   0.236  18.459  0.00  0.00    +0.000 OA
ATOM     12  H   UNL     1      55.130   1.140  17.513  0.00  0.00    +0.000 HD
ATOM     13  H   UNL     1      54.489   2.683  17.056  0.00  0.00    +0.000 HD
ENDBRANCH   3  10
ENDBRANCH   1   6
BRANCH   1  14
ATOM     14  C   UNL     1      47.461   4.163  16.242  0.00  0.00    +0.000 C 
BRANCH  14  15
ATOM     15  C   UNL     1      47.145   4.872  14.953  0.00  0.00    +0.000 A 
ATOM     16  C   UNL     1      47.943   5.946  14.575  0.00  0.00    +0.000 A 
ATOM     17  N   UNL     1      47.784   6.642  13.434  0.00  0.00    +0.000 NA
ATOM     18  C   UNL     1      46.771   6.243  12.625  0.00  0.00    +0.000 A 
ATOM     19  C   UNL     1      45.890   5.186  12.873  0.00  0.00    +0.000 A 
ATOM     20  C   UNL     1      46.109   4.509  14.078  0.00  0.00    +0.000 A 
BRANCH  19  21
ATOM     21  N   UNL     1      44.885   4.837  11.999  0.00  0.00    +0.000 N 
ATOM     22  C   UNL     1      43.566   4.344  12.426  0.00  0.00    +0.000 C 
ATOM     23  C   UNL     1      43.309   2.943  11.854  0.00  0.00    +0.000 C 
ATOM     24  O   UNL     1      43.479   2.914  10.427  0.00  0.00    +0.000 OA
ATOM     25  C   UNL     1      44.816   3.305  10.076  0.00  0.00    +0.000 C 
ATOM     26  C   UNL     1      45.136   4.733  10.553  0.00  0.00    +0.000 C 
ENDBRANCH  19  21
ENDBRANCH  14  15
ENDBRANCH   1  14
TORSDOF 5
ENDMDL
MODEL 8
REMARK VINA RESULT:    -5.841      4.899      6.462
REMARK INTER + INTRA:          -8.380
REMARK INTER:                  -7.778
REMARK INTRA:                  -0.602
REMARK UNBOUND:                -0.831
REMARK  Name = 
REMARK  5 active torsions:
REMARK  status: ('A' for Active; 'I' for Inactive)
REMARK    1  A    between atoms: C_2  and  C_4
REMARK    2  A    between atoms: C_7  and  N_8
REMARK    3  A    between atoms: N_8  and  C_9
REMARK    4  A    between atoms: C_9  and  C_10
REMARK    5  A    between atoms: C_14  and  N_15
REMARK                            x       y       z     vdW  Elec       q    Type
REMARK                         _______ _______ _______ _____ _____    ______ ____
ROOT
ATOM      1  N   UNL     1      47.210   5.096  15.289  0.00  0.00    +0.000 N 
ATOM      2  H   UNL     1      47.313   6.069  15.562  0.00  0.00    +0.000 HD
ENDROOT
BRANCH   1   6
ATOM      3  C   UNL     1      45.200   4.293  11.677  0.00  0.00    +0.000 A 
ATOM      4  C   UNL     1      45.441   5.616  12.050  0.00  0.00    +0.000 A 
ATOM      5  C   UNL     1      46.140   5.894  13.231  0.00  0.00    +0.000 A 
ATOM      6  C   UNL     1      46.621   4.872  14.055  0.00  0.00    +0.000 A 
ATOM      7  C   UNL     1      46.372   3.548  13.664  0.00  0.00    +0.000 A 
ATOM      8  C   UNL     1      45.666   3.257  12.490  0.00  0.00    +0.000 A 
BRANCH   3  10
ATOM      9  N   UNL     1      43.765   4.982   9.833  0.00  0.00    +0.000 N 
ATOM     10  C   UNL     1      44.405   3.956  10.470  0.00  0.00    +0.000 C 
ATOM     11  O   UNL     1      44.340   2.811  10.041  0.00  0.00    +0.000 OA
ATOM     12  H   UNL     1      43.290   4.750   8.971  0.00  0.00    +0.000 HD
ATOM     13  H   UNL     1      43.984   5.953  10.004  0.00  0.00    +0.000 HD
ENDBRANCH   3  10
ENDBRANCH   1   6
BRANCH   1  14
ATOM     14  C   UNL     1      47.151   4.154  16.398  0.00  0.00    +0.000 C 
BRANCH  14  15
ATOM     15  C   UNL     1      48.477   3.548  16.772  0.00  0.00    +0.000 A 
ATOM     16  C   UNL     1      48.765   2.261  16.332  0.00  0.00    +0.000 A 
ATOM     17  N   UNL     1      49.924   1.619  16.572  0.00  0.00    +0.000 NA
ATOM     18  C   UNL     1      50.847   2.302  17.294  0.00  0.00    +0.000 A 
ATOM     19  C   UNL     1      50.699   3.597  17.803  0.00  0.00    +0.000 A 
ATOM     20  C   UNL     1      49.469   4.201  17.519  0.00  0.00    +0.000 A 
BRANCH  19  21
ATOM     21  N   UNL     1      51.686   4.228  18.525  0.00  0.00    +0.000 N 
ATOM     22  C   UNL     1      51.721   5.678  18.765  0.00  0.00    +0.000 C 
ATOM     23  C   UNL     1      53.014   6.283  18.198  0.00  0.00    +0.000 C 
ATOM     24  O   UNL     1      54.179   5.608  18.699  0.00  0.00    +0.000 OA
ATOM     25  C   UNL     1      54.139   4.215  18.345  0.00  0.00    +0.000 C 
ATOM     26  C   UNL     1      52.904   3.512  18.936  0.00  0.00    +0.000 C 
ENDBRANCH  19  21
ENDBRANCH  14  15
ENDBRANCH   1  14
TORSDOF 5
ENDMDL
MODEL 9
REMARK VINA RESULT:    -5.733      3.455      8.028
REMARK INTER + INTRA:          -8.239
REMARK INTER:                  -7.581
REMARK INTRA:                  -0.659
REMARK UNBOUND:                -0.831
REMARK  Name = 
REMARK  5 active torsions:
REMARK  status: ('A' for Active; 'I' for Inactive)
REMARK    1  A    between atoms: C_2  and  C_4
REMARK    2  A    between atoms: C_7  and  N_8
REMARK    3  A    between atoms: N_8  and  C_9
REMARK    4  A    between atoms: C_9  and  C_10
REMARK    5  A    between atoms: C_14  and  N_15
REMARK                            x       y       z     vdW  Elec       q    Type
REMARK                         _______ _______ _______ _____ _____    ______ ____
ROOT
ATOM      1  N   UNL     1      48.885   7.589  13.815  0.00  0.00    +0.000 N 
ATOM      2  H   UNL     1      49.578   8.330  13.799  0.00  0.00    +0.000 HD
ENDROOT
BRANCH   1   6
ATOM      3  C   UNL     1      48.317   5.696  17.534  0.00  0.00    +0.000 A 
ATOM      4  C   UNL     1      47.960   5.029  16.361  0.00  0.00    +0.000 A 
ATOM      5  C   UNL     1      48.178   5.634  15.118  0.00  0.00    +0.000 A 
ATOM      6  C   UNL     1      48.761   6.901  15.012  0.00  0.00    +0.000 A 
ATOM      7  C   UNL     1      49.114   7.556  16.200  0.00  0.00    +0.000 A 
ATOM      8  C   UNL     1      48.893   6.965  17.451  0.00  0.00    +0.000 A 
BRANCH   3  10
ATOM      9  N   UNL     1      46.855   5.449  19.467  0.00  0.00    +0.000 N 
ATOM     10  C   UNL     1      48.041   5.119  18.873  0.00  0.00    +0.000 C 
ATOM     11  O   UNL     1      48.828   4.357  19.419  0.00  0.00    +0.000 OA
ATOM     12  H   UNL     1      46.647   4.990  20.344  0.00  0.00    +0.000 HD
ATOM     13  H   UNL     1      46.087   5.867  18.960  0.00  0.00    +0.000 HD
ENDBRANCH   3  10
ENDBRANCH   1   6
BRANCH   1  14
ATOM     14  C   UNL     1      48.576   7.014  12.514  0.00  0.00    +0.000 C 
BRANCH  14  15
ATOM     15  C   UNL     1      47.127   7.106  12.119  0.00  0.00    +0.000 A 
ATOM     16  C   UNL     1      46.490   8.338  12.221  0.00  0.00    +0.000 A 
ATOM     17  N   UNL     1      45.209   8.559  11.872  0.00  0.00    +0.000 NA
ATOM     18  C   UNL     1      44.525   7.489  11.396  0.00  0.00    +0.000 A 
ATOM     19  C   UNL     1      45.030   6.194  11.239  0.00  0.00    +0.000 A 
ATOM     20  C   UNL     1      46.366   6.035  11.625  0.00  0.00    +0.000 A 
BRANCH  19  21
ATOM     21  N   UNL     1      44.274   5.157  10.742  0.00  0.00    +0.000 N 
ATOM     22  C   UNL     1      43.119   4.579  11.446  0.00  0.00    +0.000 C 
ATOM     23  C   UNL     1      43.346   3.084  11.708  0.00  0.00    +0.000 C 
ATOM     24  O   UNL     1      43.672   2.377  10.500  0.00  0.00    +0.000 OA
ATOM     25  C   UNL     1      44.866   2.919   9.912  0.00  0.00    +0.000 C 
ATOM     26  C   UNL     1      44.700   4.406   9.551  0.00  0.00    +0.000 C 
ENDBRANCH  19  21
ENDBRANCH  14  15
ENDBRANCH   1  14
TORSDOF 5
ENDMDL
