MODEL 1
REMARK VINA RESULT:    -7.349      0.000      0.000
REMARK INTER + INTRA:         -11.092
REMARK INTER:                  -9.927
REMARK INTRA:                  -1.165
REMARK UNBOUND:                -1.165
REMARK  Name = 
REMARK  8 active torsions:
REMARK  status: ('A' for Active; 'I' for Inactive)
REMARK    1  A    between atoms: C_1  and  C_2
REMARK    2  A    between atoms: C_4  and  C_5
REMARK    3  A    between atoms: C_10  and  O_11
REMARK    4  A    between atoms: O_11  and  C_12
REMARK    5  A    between atoms: C_12  and  C_13
REMARK    6  A    between atoms: C_13  and  C_14
REMARK    7  A    between atoms: C_13  and  C_15
REMARK    8  A    between atoms: C_19  and  C_20
REMARK                            x       y       z     vdW  Elec       q    Type
REMARK                         _______ _______ _______ _____ _____    ______ ____
ROOT
ATOM      1  C   UNL     1      46.785   3.709  13.750  0.00  0.00    +0.000 C 
ATOM      2  C   UNL     1      46.659   5.080  13.161  0.00  0.00    +0.000 A 
ATOM      3  N   UNL     1      47.863   5.714  13.068  0.00  0.00    +0.000 NA
ATOM      4  C   UNL     1      47.898   6.955  12.513  0.00  0.00    +0.000 A 
ATOM      5  C   UNL     1      46.781   7.610  12.037  0.00  0.00    +0.000 A 
ATOM      6  C   UNL     1      45.558   6.953  12.147  0.00  0.00    +0.000 A 
ATOM      7  C   UNL     1      45.470   5.673  12.713  0.00  0.00    +0.000 A 
ENDROOT
BRANCH   4   8
ATOM      8  C   UNL     1      49.249   7.604  12.442  0.00  0.00    +0.000 C 
ATOM      9  N   UNL     1      50.046   7.396  13.534  0.00  0.00    +0.000 N 
ATOM     10  O   UNL     1      49.614   8.271  11.485  0.00  0.00    +0.000 OA
ATOM     11  H   UNL     1      49.693   6.845  14.308  0.00  0.00    +0.000 HD
ATOM     12  H   UNL     1      50.963   7.816  13.576  0.00  0.00    +0.000 HD
ENDBRANCH   4   8
BRANCH   7  13
ATOM     13  O   UNL     1      44.187   5.199  12.702  0.00  0.00    +0.000 OA
BRANCH  13  14
ATOM     14  C   UNL     1      43.452   5.138  11.485  0.00  0.00    +0.000 C 
BRANCH  14  15
ATOM     15  C   UNL     1      43.486   3.715  10.889  0.00  0.00    +0.000 C 
ATOM     16  C   UNL     1      43.574   2.659  11.995  0.00  0.00    +0.000 C 
BRANCH  15  17
ATOM     17  C   UNL     1      44.553   3.597   9.808  0.00  0.00    +0.000 A 
ATOM     18  C   UNL     1      45.074   4.714   9.146  0.00  0.00    +0.000 A 
ATOM     19  C   UNL     1      46.018   4.569   8.124  0.00  0.00    +0.000 A 
ATOM     20  C   UNL     1      46.448   3.299   7.742  0.00  0.00    +0.000 A 
ATOM     21  C   UNL     1      45.940   2.168   8.387  0.00  0.00    +0.000 A 
ATOM     22  C   UNL     1      45.000   2.321   9.416  0.00  0.00    +0.000 A 
BRANCH  21  23
ATOM     23  C   UNL     1      46.370   0.858   7.988  0.00  0.00    +0.000 C 
ATOM     24  N   UNL     1      46.718  -0.203   7.670  0.00  0.00    +0.000 NA
ENDBRANCH  21  23
ENDBRANCH  15  17
ENDBRANCH  14  15
ENDBRANCH  13  14
ENDBRANCH   7  13
TORSDOF 6
ENDMDL
MODEL 2
REMARK VINA RESULT:    -7.155      2.679      6.349
REMARK INTER + INTRA:         -10.831
REMARK INTER:                  -9.885
REMARK INTRA:                  -0.946
REMARK UNBOUND:                -1.165
REMARK  Name = 
REMARK  8 active torsions:
REMARK  status: ('A' for Active; 'I' for Inactive)
REMARK    1  A    between atoms: C_1  and  C_2
REMARK    2  A    between atoms: C_4  and  C_5
REMARK    3  A    between atoms: C_10  and  O_11
REMARK    4  A    between atoms: O_11  and  C_12
REMARK    5  A    between atoms: C_12  and  C_13
REMARK    6  A    between atoms: C_13  and  C_14
REMARK    7  A    between atoms: C_13  and  C_15
REMARK    8  A    between atoms: C_19  and  C_20
REMARK                            x       y       z     vdW  Elec       q    Type
REMARK                         _______ _______ _______ _____ _____    ______ ____
ROOT
ATOM      1  C   UNL     1      45.434   5.530   9.360  0.00  0.00    +0.000 C 
ATOM      2  C   UNL     1      45.441   4.082   8.979  0.00  0.00    +0.000 A 
ATOM      3  N   UNL     1      46.342   3.813   7.991  0.00  0.00    +0.000 NA
ATOM      4  C   UNL     1      46.480   2.526   7.576  0.00  0.00    +0.000 A 
ATOM      5  C   UNL     1      45.757   1.473   8.099  0.00  0.00    +0.000 A 
ATOM      6  C   UNL     1      44.835   1.765   9.101  0.00  0.00    +0.000 A 
ATOM      7  C   UNL     1      44.656   3.077   9.563  0.00  0.00    +0.000 A 
ENDROOT
BRANCH   4   8
ATOM      8  C   UNL     1      47.482   2.292   6.484  0.00  0.00    +0.000 C 
ATOM      9  N   UNL     1      47.355   3.117   5.400  0.00  0.00    +0.000 N 
ATOM     10  O   UNL     1      48.346   1.430   6.551  0.00  0.00    +0.000 OA
ATOM     11  H   UNL     1      46.614   3.808   5.387  0.00  0.00    +0.000 HD
ATOM     12  H   UNL     1      47.977   3.011   4.611  0.00  0.00    +0.000 HD
ENDBRANCH   4   8
BRANCH   7  13
ATOM     13  O   UNL     1      43.725   3.142  10.563  0.00  0.00    +0.000 OA
BRANCH  13  14
ATOM     14  C   UNL     1      44.131   3.136  11.927  0.00  0.00    +0.000 C 
BRANCH  14  15
ATOM     15  C   UNL     1      43.747   4.457  12.625  0.00  0.00    +0.000 C 
ATOM     16  C   UNL     1      42.576   5.136  11.906  0.00  0.00    +0.000 C 
BRANCH  15  17
ATOM     17  C   UNL     1      44.967   5.345  12.834  0.00  0.00    +0.000 A 
ATOM     18  C   UNL     1      46.160   4.859  13.383  0.00  0.00    +0.000 A 
ATOM     19  C   UNL     1      47.247   5.710  13.608  0.00  0.00    +0.000 A 
ATOM     20  C   UNL     1      47.152   7.065  13.295  0.00  0.00    +0.000 A 
ATOM     21  C   UNL     1      45.971   7.574  12.749  0.00  0.00    +0.000 A 
ATOM     22  C   UNL     1      44.888   6.714  12.519  0.00  0.00    +0.000 A 
BRANCH  21  23
ATOM     23  C   UNL     1      45.865   8.971  12.438  0.00  0.00    +0.000 C 
ATOM     24  N   UNL     1      45.781  10.103  12.191  0.00  0.00    +0.000 NA
ENDBRANCH  21  23
ENDBRANCH  15  17
ENDBRANCH  14  15
ENDBRANCH  13  14
ENDBRANCH   7  13
TORSDOF 6
ENDMDL
MODEL 3
REMARK VINA RESULT:    -6.937      2.509      6.023
REMARK INTER + INTRA:         -10.536
REMARK INTER:                  -9.441
REMARK INTRA:                  -1.096
REMARK UNBOUND:                -1.165
REMARK  Name = 
REMARK  8 active torsions:
REMARK  status: ('A' for Active; 'I' for Inactive)
REMARK    1  A    between atoms: C_1  and  C_2
REMARK    2  A    between atoms: C_4  and  C_5
REMARK    3  A    between atoms: C_10  and  O_11
REMARK    4  A    between atoms: O_11  and  C_12
REMARK    5  A    between atoms: C_12  and  C_13
REMARK    6  A    between atoms: C_13  and  C_14
REMARK    7  A    between atoms: C_13  and  C_15
REMARK    8  A    between atoms: C_19  and  C_20
REMARK                            x       y       z     vdW  Elec       q    Type
REMARK                         _______ _______ _______ _____ _____    ______ ____
ROOT
ATOM      1  C   UNL     1      45.773   5.473   8.989  0.00  0.00    +0.000 C 
ATOM      2  C   UNL     1      45.438   4.016   8.899  0.00  0.00    +0.000 A 
ATOM      3  N   UNL     1      46.359   3.319   8.174  0.00  0.00    +0.000 NA
ATOM      4  C   UNL     1      46.197   1.976   8.045  0.00  0.00    +0.000 A 
ATOM      5  C   UNL     1      45.150   1.275   8.609  0.00  0.00    +0.000 A 
ATOM      6  C   UNL     1      44.214   2.002   9.340  0.00  0.00    +0.000 A 
ATOM      7  C   UNL     1      44.337   3.390   9.500  0.00  0.00    +0.000 A 
ENDROOT
BRANCH   4   8
ATOM      8  C   UNL     1      47.238   1.264   7.232  0.00  0.00    +0.000 C 
ATOM      9  N   UNL     1      48.259   2.056   6.784  0.00  0.00    +0.000 N 
ATOM     10  O   UNL     1      47.182   0.068   6.984  0.00  0.00    +0.000 OA
ATOM     11  H   UNL     1      48.254   3.044   7.005  0.00  0.00    +0.000 HD
ATOM     12  H   UNL     1      48.990   1.659   6.211  0.00  0.00    +0.000 HD
ENDBRANCH   4   8
BRANCH   7  13
ATOM     13  O   UNL     1      43.330   3.904  10.270  0.00  0.00    +0.000 OA
BRANCH  13  14
ATOM     14  C   UNL     1      43.371   3.778  11.687  0.00  0.00    +0.000 C 
BRANCH  14  15
ATOM     15  C   UNL     1      43.410   5.164  12.365  0.00  0.00    +0.000 C 
ATOM     16  C   UNL     1      42.787   6.234  11.461  0.00  0.00    +0.000 C 
BRANCH  15  17
ATOM     17  C   UNL     1      44.809   5.492  12.869  0.00  0.00    +0.000 A 
ATOM     18  C   UNL     1      45.453   6.696  12.561  0.00  0.00    +0.000 A 
ATOM     19  C   UNL     1      46.757   6.948  12.999  0.00  0.00    +0.000 A 
ATOM     20  C   UNL     1      47.442   5.991  13.746  0.00  0.00    +0.000 A 
ATOM     21  C   UNL     1      46.821   4.781  14.065  0.00  0.00    +0.000 A 
ATOM     22  C   UNL     1      45.510   4.538  13.630  0.00  0.00    +0.000 A 
BRANCH  21  23
ATOM     23  C   UNL     1      47.527   3.787  14.824  0.00  0.00    +0.000 C 
ATOM     24  N   UNL     1      48.099   2.987  15.440  0.00  0.00    +0.000 NA
ENDBRANCH  21  23
ENDBRANCH  15  17
ENDBRANCH  14  15
ENDBRANCH  13  14
ENDBRANCH   7  13
TORSDOF 6
ENDMDL
MODEL 4
REMARK VINA RESULT:    -6.711      2.021      2.748
REMARK INTER + INTRA:         -10.230
REMARK INTER:                  -9.756
REMARK INTRA:                  -0.475
REMARK UNBOUND:                -1.165
REMARK  Name = 
REMARK  8 active torsions:
REMARK  status: ('A' for Active; 'I' for Inactive)
REMARK    1  A    between atoms: C_1  and  C_2
REMARK    2  A    between atoms: C_4  and  C_5
REMARK    3  A    between atoms: C_10  and  O_11
REMARK    4  A    between atoms: O_11  and  C_12
REMARK    5  A    between atoms: C_12  and  C_13
REMARK    6  A    between atoms: C_13  and  C_14
REMARK    7  A    between atoms: C_13  and  C_15
REMARK    8  A    between atoms: C_19  and  C_20
REMARK                            x       y       z     vdW  Elec       q    Type
REMARK                         _______ _______ _______ _____ _____    ______ ____
ROOT
ATOM      1  C   UNL     1      47.385   7.689  12.664  0.00  0.00    +0.000 C 
ATOM      2  C   UNL     1      47.164   6.325  13.242  0.00  0.00    +0.000 A 
ATOM      3  N   UNL     1      47.701   6.201  14.490  0.00  0.00    +0.000 NA
ATOM      4  C   UNL     1      47.539   5.023  15.149  0.00  0.00    +0.000 A 
ATOM      5  C   UNL     1      46.860   3.942  14.625  0.00  0.00    +0.000 A 
ATOM      6  C   UNL     1      46.325   4.081  13.346  0.00  0.00    +0.000 A 
ATOM      7  C   UNL     1      46.466   5.277  12.626  0.00  0.00    +0.000 A 
ENDROOT
BRANCH   4   8
ATOM      8  C   UNL     1      48.155   4.944  16.514  0.00  0.00    +0.000 C 
ATOM      9  N   UNL     1      47.260   4.919  17.549  0.00  0.00    +0.000 N 
ATOM     10  O   UNL     1      49.363   4.908  16.696  0.00  0.00    +0.000 OA
ATOM     11  H   UNL     1      46.268   4.964  17.348  0.00  0.00    +0.000 HD
ATOM     12  H   UNL     1      47.593   4.888  18.502  0.00  0.00    +0.000 HD
ENDBRANCH   4   8
BRANCH   7  13
ATOM     13  O   UNL     1      45.848   5.213  11.408  0.00  0.00    +0.000 OA
BRANCH  13  14
ATOM     14  C   UNL     1      44.428   5.194  11.321  0.00  0.00    +0.000 C 
BRANCH  14  15
ATOM     15  C   UNL     1      43.942   4.022  10.443  0.00  0.00    +0.000 C 
ATOM     16  C   UNL     1      43.510   2.832  11.307  0.00  0.00    +0.000 C 
BRANCH  15  17
ATOM     17  C   UNL     1      44.960   3.686   9.360  0.00  0.00    +0.000 A 
ATOM     18  C   UNL     1      45.543   4.668   8.551  0.00  0.00    +0.000 A 
ATOM     19  C   UNL     1      46.438   4.324   7.533  0.00  0.00    +0.000 A 
ATOM     20  C   UNL     1      46.754   2.986   7.302  0.00  0.00    +0.000 A 
ATOM     21  C   UNL     1      46.183   1.988   8.094  0.00  0.00    +0.000 A 
ATOM     22  C   UNL     1      45.293   2.341   9.119  0.00  0.00    +0.000 A 
BRANCH  21  23
ATOM     23  C   UNL     1      46.497   0.608   7.852  0.00  0.00    +0.000 C 
ATOM     24  N   UNL     1      46.746  -0.509   7.656  0.00  0.00    +0.000 NA
ENDBRANCH  21  23
ENDBRANCH  15  17
ENDBRANCH  14  15
ENDBRANCH  13  14
ENDBRANCH   7  13
TORSDOF 6
ENDMDL
MODEL 5
REMARK VINA RESULT:    -6.589      2.380      6.419
REMARK INTER + INTRA:         -10.066
REMARK INTER:                  -9.172
REMARK INTRA:                  -0.894
REMARK UNBOUND:                -1.165
REMARK  Name = 
REMARK  8 active torsions:
REMARK  status: ('A' for Active; 'I' for Inactive)
REMARK    1  A    between atoms: C_1  and  C_2
REMARK    2  A    between atoms: C_4  and  C_5
REMARK    3  A    between atoms: C_10  and  O_11
REMARK    4  A    between atoms: O_11  and  C_12
REMARK    5  A    between atoms: C_12  and  C_13
REMARK    6  A    between atoms: C_13  and  C_14
REMARK    7  A    between atoms: C_13  and  C_15
REMARK    8  A    between atoms: C_19  and  C_20
REMARK                            x       y       z     vdW  Elec       q    Type
REMARK                         _______ _______ _______ _____ _____    ______ ____
ROOT
ATOM      1  C   UNL     1      43.793   1.988  10.664  0.00  0.00    +0.000 C 
ATOM      2  C   UNL     1      44.691   2.611   9.641  0.00  0.00    +0.000 A 
ATOM      3  N   UNL     1      45.446   1.683   8.985  0.00  0.00    +0.000 NA
ATOM      4  C   UNL     1      46.280   2.110   7.999  0.00  0.00    +0.000 A 
ATOM      5  C   UNL     1      46.406   3.432   7.625  0.00  0.00    +0.000 A 
ATOM      6  C   UNL     1      45.636   4.368   8.310  0.00  0.00    +0.000 A 
ATOM      7  C   UNL     1      44.761   3.978   9.335  0.00  0.00    +0.000 A 
ENDROOT
BRANCH   4   8
ATOM      8  C   UNL     1      47.087   1.046   7.316  0.00  0.00    +0.000 C 
ATOM      9  N   UNL     1      46.781  -0.235   7.686  0.00  0.00    +0.000 N 
ATOM     10  O   UNL     1      47.956   1.298   6.494  0.00  0.00    +0.000 OA
ATOM     11  H   UNL     1      46.061  -0.392   8.381  0.00  0.00    +0.000 HD
ATOM     12  H   UNL     1      47.293  -1.010   7.289  0.00  0.00    +0.000 HD
ENDBRANCH   4   8
BRANCH   7  13
ATOM     13  O   UNL     1      44.083   5.044   9.859  0.00  0.00    +0.000 OA
BRANCH  13  14
ATOM     14  C   UNL     1      44.748   5.976  10.704  0.00  0.00    +0.000 C 
BRANCH  14  15
ATOM     15  C   UNL     1      45.391   5.265  11.913  0.00  0.00    +0.000 C 
ATOM     16  C   UNL     1      44.342   4.951  12.985  0.00  0.00    +0.000 C 
BRANCH  15  17
ATOM     17  C   UNL     1      46.609   6.029  12.418  0.00  0.00    +0.000 A 
ATOM     18  C   UNL     1      47.334   6.904  11.600  0.00  0.00    +0.000 A 
ATOM     19  C   UNL     1      48.477   7.554  12.079  0.00  0.00    +0.000 A 
ATOM     20  C   UNL     1      48.917   7.330  13.382  0.00  0.00    +0.000 A 
ATOM     21  C   UNL     1      48.210   6.459  14.216  0.00  0.00    +0.000 A 
ATOM     22  C   UNL     1      47.061   5.817  13.733  0.00  0.00    +0.000 A 
BRANCH  21  23
ATOM     23  C   UNL     1      48.667   6.215  15.555  0.00  0.00    +0.000 C 
ATOM     24  N   UNL     1      49.033   6.015  16.639  0.00  0.00    +0.000 NA
ENDBRANCH  21  23
ENDBRANCH  15  17
ENDBRANCH  14  15
ENDBRANCH  13  14
ENDBRANCH   7  13
TORSDOF 6
ENDMDL
MODEL 6
REMARK VINA RESULT:    -6.523      2.321      6.499
REMARK INTER + INTRA:          -9.976
REMARK INTER:                  -9.083
REMARK INTRA:                  -0.893
REMARK UNBOUND:                -1.165
REMARK  Name = 
REMARK  8 active torsions:
REMARK  status: ('A' for Active; 'I' for Inactive)
REMARK    1  A    between atoms: C_1  and  C_2
REMARK    2  A    between atoms: C_4  and  C_5
REMARK    3  A    between atoms: C_10  and  O_11
REMARK    4  A    between atoms: O_11  and  C_12
REMARK    5  A    between atoms: C_12  and  C_13
REMARK    6  A    between atoms: C_13  and  C_14
REMARK    7  A    between atoms: C_13  and  C_15
REMARK    8  A    between atoms: C_19  and  C_20
REMARK                            x       y       z     vdW  Elec       q    Type
REMARK                         _______ _______ _______ _____ _____    ______ ____
ROOT
ATOM      1  C   UNL     1      43.855   2.073  10.673  0.00  0.00    +0.000 C 
ATOM      2  C   UNL     1      44.754   2.670   9.635  0.00  0.00    +0.000 A 
ATOM      3  N   UNL     1      45.476   1.722   8.971  0.00  0.00    +0.000 NA
ATOM      4  C   UNL     1      46.306   2.125   7.972  0.00  0.00    +0.000 A 
ATOM      5  C   UNL     1      46.459   3.442   7.591  0.00  0.00    +0.000 A 
ATOM      6  C   UNL     1      45.721   4.399   8.283  0.00  0.00    +0.000 A 
ATOM      7  C   UNL     1      44.852   4.033   9.322  0.00  0.00    +0.000 A 
ENDROOT
BRANCH   4   8
ATOM      8  C   UNL     1      47.077   1.039   7.282  0.00  0.00    +0.000 C 
ATOM      9  N   UNL     1      46.756  -0.233   7.672  0.00  0.00    +0.000 N 
ATOM     10  O   UNL     1      47.931   1.266   6.437  0.00  0.00    +0.000 OA
ATOM     11  H   UNL     1      46.050  -0.369   8.386  0.00  0.00    +0.000 HD
ATOM     12  H   UNL     1      47.245  -1.021   7.272  0.00  0.00    +0.000 HD
ENDBRANCH   4   8
BRANCH   7  13
ATOM     13  O   UNL     1      44.208   5.118   9.851  0.00  0.00    +0.000 OA
BRANCH  13  14
ATOM     14  C   UNL     1      44.906   6.033  10.687  0.00  0.00    +0.000 C 
BRANCH  14  15
ATOM     15  C   UNL     1      45.348   5.356  12.002  0.00  0.00    +0.000 C 
ATOM     16  C   UNL     1      44.166   5.204  12.965  0.00  0.00    +0.000 C 
BRANCH  15  17
ATOM     17  C   UNL     1      46.569   6.048  12.595  0.00  0.00    +0.000 A 
ATOM     18  C   UNL     1      47.141   5.646  13.807  0.00  0.00    +0.000 A 
ATOM     19  C   UNL     1      48.232   6.333  14.350  0.00  0.00    +0.000 A 
ATOM     20  C   UNL     1      48.761   7.441  13.690  0.00  0.00    +0.000 A 
ATOM     21  C   UNL     1      48.205   7.862  12.479  0.00  0.00    +0.000 A 
ATOM     22  C   UNL     1      47.117   7.165  11.937  0.00  0.00    +0.000 A 
BRANCH  21  23
ATOM     23  C   UNL     1      48.739   9.011  11.803  0.00  0.00    +0.000 C 
ATOM     24  N   UNL     1      49.175   9.939  11.258  0.00  0.00    +0.000 NA
ENDBRANCH  21  23
ENDBRANCH  15  17
ENDBRANCH  14  15
ENDBRANCH  13  14
ENDBRANCH   7  13
TORSDOF 6
ENDMDL
MODEL 7
REMARK VINA RESULT:    -6.324      2.313      3.244
REMARK INTER + INTRA:          -9.707
REMARK INTER:                  -9.043
REMARK INTRA:                  -0.664
REMARK UNBOUND:                -1.165
REMARK  Name = 
REMARK  8 active torsions:
REMARK  status: ('A' for Active; 'I' for Inactive)
REMARK    1  A    between atoms: C_1  and  C_2
REMARK    2  A    between atoms: C_4  and  C_5
REMARK    3  A    between atoms: C_10  and  O_11
REMARK    4  A    between atoms: O_11  and  C_12
REMARK    5  A    between atoms: C_12  and  C_13
REMARK    6  A    between atoms: C_13  and  C_14
REMARK    7  A    between atoms: C_13  and  C_15
REMARK    8  A    between atoms: C_19  and  C_20
REMARK                            x       y       z     vdW  Elec       q    Type
REMARK                         _______ _______ _______ _____ _____    ______ ____
ROOT
ATOM      1  C   UNL     1      48.448   7.461  12.467  0.00  0.00    +0.000 C 
ATOM      2  C   UNL     1      47.806   6.334  13.215  0.00  0.00    +0.000 A 
ATOM      3  N   UNL     1      48.325   6.185  14.468  0.00  0.00    +0.000 NA
ATOM      4  C   UNL     1      47.804   5.220  15.272  0.00  0.00    +0.000 A 
ATOM      5  C   UNL     1      46.777   4.380  14.891  0.00  0.00    +0.000 A 
ATOM      6  C   UNL     1      46.264   4.539  13.606  0.00  0.00    +0.000 A 
ATOM      7  C   UNL     1      46.768   5.520  12.739  0.00  0.00    +0.000 A 
ENDROOT
BRANCH   4   8
ATOM      8  C   UNL     1      48.417   5.100  16.635  0.00  0.00    +0.000 C 
ATOM      9  N   UNL     1      47.701   5.686  17.643  0.00  0.00    +0.000 N 
ATOM     10  O   UNL     1      49.478   4.526  16.837  0.00  0.00    +0.000 OA
ATOM     11  H   UNL     1      46.834   6.161  17.423  0.00  0.00    +0.000 HD
ATOM     12  H   UNL     1      48.055   5.669  18.588  0.00  0.00    +0.000 HD
ENDBRANCH   4   8
BRANCH   7  13
ATOM     13  O   UNL     1      46.111   5.525  11.539  0.00  0.00    +0.000 OA
BRANCH  13  14
ATOM     14  C   UNL     1      45.036   6.430  11.311  0.00  0.00    +0.000 C 
BRANCH  14  15
ATOM     15  C   UNL     1      43.819   5.702  10.702  0.00  0.00    +0.000 C 
ATOM     16  C   UNL     1      42.694   5.559  11.732  0.00  0.00    +0.000 C 
BRANCH  15  17
ATOM     17  C   UNL     1      44.236   4.400  10.029  0.00  0.00    +0.000 A 
ATOM     18  C   UNL     1      43.965   3.147  10.591  0.00  0.00    +0.000 A 
ATOM     19  C   UNL     1      44.404   1.972   9.973  0.00  0.00    +0.000 A 
ATOM     20  C   UNL     1      45.130   2.034   8.785  0.00  0.00    +0.000 A 
ATOM     21  C   UNL     1      45.415   3.273   8.206  0.00  0.00    +0.000 A 
ATOM     22  C   UNL     1      44.966   4.447   8.827  0.00  0.00    +0.000 A 
BRANCH  21  23
ATOM     23  C   UNL     1      46.174   3.342   6.990  0.00  0.00    +0.000 C 
ATOM     24  N   UNL     1      46.793   3.397   6.008  0.00  0.00    +0.000 NA
ENDBRANCH  21  23
ENDBRANCH  15  17
ENDBRANCH  14  15
ENDBRANCH  13  14
ENDBRANCH   7  13
TORSDOF 6
ENDMDL
MODEL 8
REMARK VINA RESULT:    -6.151      2.575      4.574
REMARK INTER + INTRA:          -9.473
REMARK INTER:                  -8.655
REMARK INTRA:                  -0.819
REMARK UNBOUND:                -1.165
REMARK  Name = 
REMARK  8 active torsions:
REMARK  status: ('A' for Active; 'I' for Inactive)
REMARK    1  A    between atoms: C_1  and  C_2
REMARK    2  A    between atoms: C_4  and  C_5
REMARK    3  A    between atoms: C_10  and  O_11
REMARK    4  A    between atoms: O_11  and  C_12
REMARK    5  A    between atoms: C_12  and  C_13
REMARK    6  A    between atoms: C_13  and  C_14
REMARK    7  A    between atoms: C_13  and  C_15
REMARK    8  A    between atoms: C_19  and  C_20
REMARK                            x       y       z     vdW  Elec       q    Type
REMARK                         _______ _______ _______ _____ _____    ______ ____
ROOT
ATOM      1  C   UNL     1      49.456   7.443  15.743  0.00  0.00    +0.000 C 
ATOM      2  C   UNL     1      48.556   6.329  15.306  0.00  0.00    +0.000 A 
ATOM      3  N   UNL     1      48.502   5.320  16.223  0.00  0.00    +0.000 NA
ATOM      4  C   UNL     1      47.689   4.260  15.970  0.00  0.00    +0.000 A 
ATOM      5  C   UNL     1      46.913   4.147  14.834  0.00  0.00    +0.000 A 
ATOM      6  C   UNL     1      46.985   5.180  13.904  0.00  0.00    +0.000 A 
ATOM      7  C   UNL     1      47.810   6.295  14.119  0.00  0.00    +0.000 A 
ENDROOT
BRANCH   4   8
ATOM      8  C   UNL     1      47.675   3.180  17.011  0.00  0.00    +0.000 C 
ATOM      9  N   UNL     1      48.899   2.640  17.297  0.00  0.00    +0.000 N 
ATOM     10  O   UNL     1      46.651   2.805  17.564  0.00  0.00    +0.000 OA
ATOM     11  H   UNL     1      49.717   2.976  16.803  0.00  0.00    +0.000 HD
ATOM     12  H   UNL     1      48.974   1.892  17.971  0.00  0.00    +0.000 HD
ENDBRANCH   4   8
BRANCH   7  13
ATOM     13  O   UNL     1      47.715   7.202  13.100  0.00  0.00    +0.000 OA
BRANCH  13  14
ATOM     14  C   UNL     1      47.314   6.785  11.800  0.00  0.00    +0.000 C 
BRANCH  14  15
ATOM     15  C   UNL     1      45.878   7.254  11.487  0.00  0.00    +0.000 C 
ATOM     16  C   UNL     1      45.469   8.416  12.398  0.00  0.00    +0.000 C 
BRANCH  15  17
ATOM     17  C   UNL     1      44.906   6.081  11.475  0.00  0.00    +0.000 A 
ATOM     18  C   UNL     1      43.800   6.017  12.330  0.00  0.00    +0.000 A 
ATOM     19  C   UNL     1      42.953   4.904  12.329  0.00  0.00    +0.000 A 
ATOM     20  C   UNL     1      43.207   3.831  11.476  0.00  0.00    +0.000 A 
ATOM     21  C   UNL     1      44.306   3.871  10.615  0.00  0.00    +0.000 A 
ATOM     22  C   UNL     1      45.147   4.993  10.615  0.00  0.00    +0.000 A 
BRANCH  21  23
ATOM     23  C   UNL     1      44.579   2.762   9.744  0.00  0.00    +0.000 C 
ATOM     24  N   UNL     1      44.804   1.865   9.043  0.00  0.00    +0.000 NA
ENDBRANCH  21  23
ENDBRANCH  15  17
ENDBRANCH  14  15
ENDBRANCH  13  14
ENDBRANCH   7  13
TORSDOF 6
ENDMDL
MODEL 9
REMARK VINA RESULT:    -5.850      2.481      3.036
REMARK INTER + INTRA:          -9.067
REMARK INTER:                  -8.389
REMARK INTRA:                  -0.678
REMARK UNBOUND:                -1.165
REMARK  Name = 
REMARK  8 active torsions:
REMARK  status: ('A' for Active; 'I' for Inactive)
REMARK    1  A    between atoms: C_1  and  C_2
REMARK    2  A    between atoms: C_4  and  C_5
REMARK    3  A    between atoms: C_10  and  O_11
REMARK    4  A    between atoms: O_11  and  C_12
REMARK    5  A    between atoms: C_12  and  C_13
REMARK    6  A    between atoms: C_13  and  C_14
REMARK    7  A    between atoms: C_13  and  C_15
REMARK    8  A    between atoms: C_19  and  C_20
REMARK                            x       y       z     vdW  Elec       q    Type
REMARK                         _______ _______ _______ _____ _____    ______ ____
ROOT
ATOM      1  C   UNL     1      46.425   4.252  13.867  0.00  0.00    +0.000 C 
ATOM      2  C   UNL     1      47.189   5.510  14.147  0.00  0.00    +0.000 A 
ATOM      3  N   UNL     1      48.065   5.361  15.182  0.00  0.00    +0.000 NA
ATOM      4  C   UNL     1      48.852   6.417  15.518  0.00  0.00    +0.000 A 
ATOM      5  C   UNL     1      48.814   7.635  14.869  0.00  0.00    +0.000 A 
ATOM      6  C   UNL     1      47.909   7.773  13.820  0.00  0.00    +0.000 A 
ATOM      7  C   UNL     1      47.075   6.713  13.436  0.00  0.00    +0.000 A 
ENDROOT
BRANCH   4   8
ATOM      8  C   UNL     1      49.791   6.197  16.667  0.00  0.00    +0.000 C 
ATOM      9  N   UNL     1      49.776   7.179  17.620  0.00  0.00    +0.000 N 
ATOM     10  O   UNL     1      50.519   5.218  16.750  0.00  0.00    +0.000 OA
ATOM     11  H   UNL     1      49.164   7.977  17.499  0.00  0.00    +0.000 HD
ATOM     12  H   UNL     1      50.395   7.118  18.415  0.00  0.00    +0.000 HD
ENDBRANCH   4   8
BRANCH   7  13
ATOM     13  O   UNL     1      46.282   7.048  12.373  0.00  0.00    +0.000 OA
BRANCH  13  14
ATOM     14  C   UNL     1      46.386   6.337  11.145  0.00  0.00    +0.000 C 
BRANCH  14  15
ATOM     15  C   UNL     1      44.990   5.980  10.592  0.00  0.00    +0.000 C 
ATOM     16  C   UNL     1      43.916   6.134  11.675  0.00  0.00    +0.000 C 
BRANCH  15  17
ATOM     17  C   UNL     1      45.003   4.625   9.895  0.00  0.00    +0.000 A 
ATOM     18  C   UNL     1      44.467   3.475  10.486  0.00  0.00    +0.000 A 
ATOM     19  C   UNL     1      44.538   2.236   9.841  0.00  0.00    +0.000 A 
ATOM     20  C   UNL     1      45.157   2.128   8.597  0.00  0.00    +0.000 A 
ATOM     21  C   UNL     1      45.701   3.262   7.988  0.00  0.00    +0.000 A 
ATOM     22  C   UNL     1      45.620   4.502   8.637  0.00  0.00    +0.000 A 
BRANCH  21  23
ATOM     23  C   UNL     1      46.351   3.153   6.713  0.00  0.00    +0.000 C 
ATOM     24  N   UNL     1      46.874   3.061   5.680  0.00  0.00    +0.000 NA
ENDBRANCH  21  23
ENDBRANCH  15  17
ENDBRANCH  14  15
ENDBRANCH  13  14
ENDBRANCH   7  13
TORSDOF 6
ENDMDL
