MODEL 1
REMARK VINA RESULT:    -8.214      0.000      0.000
REMARK INTER + INTRA:         -12.558
REMARK INTER:                 -11.576
REMARK INTRA:                  -0.983
REMARK UNBOUND:                -0.983
REMARK  Name = 
REMARK  7 active torsions:
REMARK  status: ('A' for Active; 'I' for Inactive)
REMARK    1  A    between atoms: C_2  and  C_3
REMARK    2  A    between atoms: N_7  and  C_8
REMARK    3  A    between atoms: C_8  and  C_9
REMARK    4  A    between atoms: C_9  and  C_10
REMARK    5  A    between atoms: C_9  and  C_12
REMARK    6  A    between atoms: C_16  and  O_17
REMARK    7  A    between atoms: O_17  and  C_18
REMARK                            x       y       z     vdW  Elec       q    Type
REMARK                         _______ _______ _______ _____ _____    ______ ____
ROOT
ATOM      1  C   UNL     1      43.818   4.313  12.336  0.00  0.00    +0.000 C 
ENDROOT
BRANCH   1   2
ATOM      2  C   UNL     1      45.185   4.963  12.501  0.00  0.00    +0.000 A 
ATOM      3  C   UNL     1      45.667   5.909  11.586  0.00  0.00    +0.000 A 
ATOM      4  C   UNL     1      46.870   6.578  11.820  0.00  0.00    +0.000 A 
ATOM      5  C   UNL     1      47.621   6.304  12.965  0.00  0.00    +0.000 A 
ATOM      6  C   UNL     1      47.179   5.337  13.863  0.00  0.00    +0.000 A 
ATOM      7  C   UNL     1      45.970   4.673  13.629  0.00  0.00    +0.000 A 
BRANCH   6   8
ATOM      8  O   UNL     1      47.811   4.993  15.030  0.00  0.00    +0.000 OA
BRANCH   8   9
ATOM      9  C   UNL     1      47.141   4.130  15.976  0.00  0.00    +0.000 C 
ATOM     10  C   UNL     1      47.146   4.541  17.464  0.00  0.00    +0.000 C 
ATOM     11  N   UNL     1      47.555   3.173  17.841  0.00  0.00    +0.000 NA
ATOM     12  C   UNL     1      47.989   2.929  16.454  0.00  0.00    +0.000 C 
ATOM     13  H   UNL     1      46.782   2.577  18.139  0.00  0.00    +0.000 HD
ENDBRANCH   8   9
ENDBRANCH   6   8
ENDBRANCH   1   2
BRANCH   1  14
ATOM     14  C   UNL     1      42.698   5.248  12.814  0.00  0.00    +0.000 C 
ATOM     15  F   UNL     1      41.991   5.727  11.755  0.00  0.00    +0.000 F 
ENDBRANCH   1  14
BRANCH   1  16
ATOM     16  C   UNL     1      43.571   3.814  10.898  0.00  0.00    +0.000 C 
BRANCH  16  21
ATOM     17  C   UNL     1      46.809   2.408   7.124  0.00  0.00    +0.000 A 
ATOM     18  C   UNL     1      46.404   3.678   7.514  0.00  0.00    +0.000 A 
ATOM     19  C   UNL     1      45.594   3.821   8.640  0.00  0.00    +0.000 A 
ATOM     20  C   UNL     1      45.205   2.697   9.362  0.00  0.00    +0.000 A 
ATOM     21  N   UNL     1      44.488   2.745  10.528  0.00  0.00    +0.000 N 
ATOM     22  N   UNL     1      45.591   1.465   8.984  0.00  0.00    +0.000 NA
ATOM     23  C   UNL     1      46.372   1.336   7.886  0.00  0.00    +0.000 A 
ATOM     24  H   UNL     1      44.217   1.801  10.797  0.00  0.00    +0.000 HD
BRANCH  17  26
ATOM     25  N   UNL     1      48.318   2.050   5.058  0.00  0.00    +0.000 NA
ATOM     26  C   UNL     1      47.643   2.208   5.988  0.00  0.00    +0.000 C 
ENDBRANCH  17  26
ENDBRANCH  16  21
ENDBRANCH   1  16
TORSDOF 7
ENDMDL
MODEL 2
REMARK VINA RESULT:    -7.087      2.419      7.824
REMARK INTER + INTRA:         -10.969
REMARK INTER:                 -10.486
REMARK INTRA:                  -0.484
REMARK UNBOUND:                -0.983
REMARK  Name = 
REMARK  7 active torsions:
REMARK  status: ('A' for Active; 'I' for Inactive)
REMARK    1  A    between atoms: C_2  and  C_3
REMARK    2  A    between atoms: N_7  and  C_8
REMARK    3  A    between atoms: C_8  and  C_9
REMARK    4  A    between atoms: C_9  and  C_10
REMARK    5  A    between atoms: C_9  and  C_12
REMARK    6  A    between atoms: C_16  and  O_17
REMARK    7  A    between atoms: O_17  and  C_18
REMARK                            x       y       z     vdW  Elec       q    Type
REMARK                         _______ _______ _______ _____ _____    ______ ____
ROOT
ATOM      1  C   UNL     1      45.379   6.083  11.119  0.00  0.00    +0.000 C 
ENDROOT
BRANCH   1   2
ATOM      2  C   UNL     1      45.134   4.739  10.445  0.00  0.00    +0.000 A 
ATOM      3  C   UNL     1      44.440   3.706  11.091  0.00  0.00    +0.000 A 
ATOM      4  C   UNL     1      44.125   2.527  10.411  0.00  0.00    +0.000 A 
ATOM      5  C   UNL     1      44.509   2.352   9.080  0.00  0.00    +0.000 A 
ATOM      6  C   UNL     1      45.235   3.350   8.437  0.00  0.00    +0.000 A 
ATOM      7  C   UNL     1      45.544   4.533   9.118  0.00  0.00    +0.000 A 
BRANCH   6   8
ATOM      8  O   UNL     1      45.650   3.310   7.131  0.00  0.00    +0.000 OA
BRANCH   8   9
ATOM      9  C   UNL     1      47.052   3.125   6.832  0.00  0.00    +0.000 C 
ATOM     10  C   UNL     1      47.449   2.829   5.370  0.00  0.00    +0.000 C 
ATOM     11  N   UNL     1      48.301   1.714   5.828  0.00  0.00    +0.000 NA
ATOM     12  C   UNL     1      47.581   1.700   7.113  0.00  0.00    +0.000 C 
ATOM     13  H   UNL     1      49.289   1.955   5.915  0.00  0.00    +0.000 HD
ENDBRANCH   8   9
ENDBRANCH   6   8
ENDBRANCH   1   2
BRANCH   1  14
ATOM     14  C   UNL     1      44.099   6.613  11.779  0.00  0.00    +0.000 C 
ATOM     15  F   UNL     1      43.040   6.498  10.931  0.00  0.00    +0.000 F 
ENDBRANCH   1  14
BRANCH   1  16
ATOM     16  C   UNL     1      46.558   6.038  12.112  0.00  0.00    +0.000 C 
BRANCH  16  21
ATOM     17  C   UNL     1      48.434   4.844  16.776  0.00  0.00    +0.000 A 
ATOM     18  C   UNL     1      48.631   5.987  16.010  0.00  0.00    +0.000 A 
ATOM     19  C   UNL     1      47.931   6.134  14.813  0.00  0.00    +0.000 A 
ATOM     20  C   UNL     1      47.043   5.145  14.401  0.00  0.00    +0.000 A 
ATOM     21  N   UNL     1      46.247   5.244  13.291  0.00  0.00    +0.000 N 
ATOM     22  N   UNL     1      46.853   4.036  15.138  0.00  0.00    +0.000 NA
ATOM     23  C   UNL     1      47.542   3.899  16.296  0.00  0.00    +0.000 A 
ATOM     24  H   UNL     1      45.784   4.351  13.128  0.00  0.00    +0.000 HD
BRANCH  17  26
ATOM     25  N   UNL     1      49.677   4.484  19.012  0.00  0.00    +0.000 NA
ATOM     26  C   UNL     1      49.115   4.649  18.010  0.00  0.00    +0.000 C 
ENDBRANCH  17  26
ENDBRANCH  16  21
ENDBRANCH   1  16
TORSDOF 7
ENDMDL
MODEL 3
REMARK VINA RESULT:    -6.522      3.588      7.493
REMARK INTER + INTRA:         -10.174
REMARK INTER:                  -9.563
REMARK INTRA:                  -0.612
REMARK UNBOUND:                -0.983
REMARK  Name = 
REMARK  7 active torsions:
REMARK  status: ('A' for Active; 'I' for Inactive)
REMARK    1  A    between atoms: C_2  and  C_3
REMARK    2  A    between atoms: N_7  and  C_8
REMARK    3  A    between atoms: C_8  and  C_9
REMARK    4  A    between atoms: C_9  and  C_10
REMARK    5  A    between atoms: C_9  and  C_12
REMARK    6  A    between atoms: C_16  and  O_17
REMARK    7  A    between atoms: O_17  and  C_18
REMARK                            x       y       z     vdW  Elec       q    Type
REMARK                         _______ _______ _______ _____ _____    ______ ____
ROOT
ATOM      1  C   UNL     1      44.982   5.800  11.433  0.00  0.00    +0.000 C 
ENDROOT
BRANCH   1   2
ATOM      2  C   UNL     1      44.958   4.562  10.545  0.00  0.00    +0.000 A 
ATOM      3  C   UNL     1      44.309   3.385  10.941  0.00  0.00    +0.000 A 
ATOM      4  C   UNL     1      44.198   2.304  10.063  0.00  0.00    +0.000 A 
ATOM      5  C   UNL     1      44.745   2.374   8.781  0.00  0.00    +0.000 A 
ATOM      6  C   UNL     1      45.430   3.520   8.387  0.00  0.00    +0.000 A 
ATOM      7  C   UNL     1      45.534   4.604   9.266  0.00  0.00    +0.000 A 
BRANCH   6   8
ATOM      8  O   UNL     1      45.991   3.722   7.152  0.00  0.00    +0.000 OA
BRANCH   8   9
ATOM      9  C   UNL     1      46.502   2.595   6.407  0.00  0.00    +0.000 C 
ATOM     10  C   UNL     1      47.746   1.865   6.957  0.00  0.00    +0.000 C 
ATOM     11  N   UNL     1      48.365   1.909   5.617  0.00  0.00    +0.000 NA
ATOM     12  C   UNL     1      47.425   2.975   5.227  0.00  0.00    +0.000 C 
ATOM     13  H   UNL     1      48.253   1.049   5.080  0.00  0.00    +0.000 HD
ENDBRANCH   8   9
ENDBRANCH   6   8
ENDBRANCH   1   2
BRANCH   1  14
ATOM     14  C   UNL     1      43.561   6.300  11.726  0.00  0.00    +0.000 C 
ATOM     15  F   UNL     1      42.728   6.008  10.691  0.00  0.00    +0.000 F 
ENDBRANCH   1  14
BRANCH   1  16
ATOM     16  C   UNL     1      45.790   5.581  12.729  0.00  0.00    +0.000 C 
BRANCH  16  21
ATOM     17  C   UNL     1      49.760   8.881  12.506  0.00  0.00    +0.000 A 
ATOM     18  C   UNL     1      49.282   8.006  11.538  0.00  0.00    +0.000 A 
ATOM     19  C   UNL     1      48.119   7.279  11.790  0.00  0.00    +0.000 A 
ATOM     20  C   UNL     1      47.449   7.438  12.999  0.00  0.00    +0.000 A 
ATOM     21  N   UNL     1      46.255   6.837  13.299  0.00  0.00    +0.000 N 
ATOM     22  N   UNL     1      47.912   8.280  13.941  0.00  0.00    +0.000 NA
ATOM     23  C   UNL     1      49.045   8.978  13.689  0.00  0.00    +0.000 A 
ATOM     24  H   UNL     1      46.032   7.001  14.279  0.00  0.00    +0.000 HD
BRANCH  17  26
ATOM     25  N   UNL     1      51.900  10.277  12.124  0.00  0.00    +0.000 NA
ATOM     26  C   UNL     1      50.936   9.654  12.296  0.00  0.00    +0.000 C 
ENDBRANCH  17  26
ENDBRANCH  16  21
ENDBRANCH   1  16
TORSDOF 7
ENDMDL
MODEL 4
REMARK VINA RESULT:    -6.502      2.791      7.925
REMARK INTER + INTRA:         -10.146
REMARK INTER:                  -9.713
REMARK INTRA:                  -0.433
REMARK UNBOUND:                -0.983
REMARK  Name = 
REMARK  7 active torsions:
REMARK  status: ('A' for Active; 'I' for Inactive)
REMARK    1  A    between atoms: C_2  and  C_3
REMARK    2  A    between atoms: N_7  and  C_8
REMARK    3  A    between atoms: C_8  and  C_9
REMARK    4  A    between atoms: C_9  and  C_10
REMARK    5  A    between atoms: C_9  and  C_12
REMARK    6  A    between atoms: C_16  and  O_17
REMARK    7  A    between atoms: O_17  and  C_18
REMARK                            x       y       z     vdW  Elec       q    Type
REMARK                         _______ _______ _______ _____ _____    ______ ____
ROOT
ATOM      1  C   UNL     1      46.858   4.551  13.629  0.00  0.00    +0.000 C 
ENDROOT
BRANCH   1   2
ATOM      2  C   UNL     1      45.507   4.391  12.942  0.00  0.00    +0.000 A 
ATOM      3  C   UNL     1      44.421   5.221  13.251  0.00  0.00    +0.000 A 
ATOM      4  C   UNL     1      43.230   5.133  12.527  0.00  0.00    +0.000 A 
ATOM      5  C   UNL     1      43.098   4.206  11.491  0.00  0.00    +0.000 A 
ATOM      6  C   UNL     1      44.152   3.346  11.199  0.00  0.00    +0.000 A 
ATOM      7  C   UNL     1      45.347   3.440  11.922  0.00  0.00    +0.000 A 
BRANCH   6   8
ATOM      8  O   UNL     1      44.156   2.411  10.196  0.00  0.00    +0.000 OA
BRANCH   8   9
ATOM      9  C   UNL     1      44.458   2.817   8.843  0.00  0.00    +0.000 C 
ATOM     10  C   UNL     1      45.861   2.496   8.284  0.00  0.00    +0.000 C 
ATOM     11  N   UNL     1      45.984   3.883   7.794  0.00  0.00    +0.000 NA
ATOM     12  C   UNL     1      44.898   4.292   8.703  0.00  0.00    +0.000 C 
ATOM     13  H   UNL     1      45.755   3.995   6.806  0.00  0.00    +0.000 HD
ENDBRANCH   8   9
ENDBRANCH   6   8
ENDBRANCH   1   2
BRANCH   1  14
ATOM     14  C   UNL     1      47.542   5.859  13.207  0.00  0.00    +0.000 C 
ATOM     15  F   UNL     1      47.208   6.183  11.929  0.00  0.00    +0.000 F 
ENDBRANCH   1  14
BRANCH   1  16
ATOM     16  C   UNL     1      46.759   4.427  15.163  0.00  0.00    +0.000 C 
BRANCH  16  21
ATOM     17  C   UNL     1      51.015   2.816  17.610  0.00  0.00    +0.000 A 
ATOM     18  C   UNL     1      50.372   4.046  17.671  0.00  0.00    +0.000 A 
ATOM     19  C   UNL     1      49.165   4.219  16.994  0.00  0.00    +0.000 A 
ATOM     20  C   UNL     1      48.617   3.164  16.272  0.00  0.00    +0.000 A 
ATOM     21  N   UNL     1      47.396   3.213  15.652  0.00  0.00    +0.000 N 
ATOM     22  N   UNL     1      49.239   1.974  16.206  0.00  0.00    +0.000 NA
ATOM     23  C   UNL     1      50.413   1.817  16.861  0.00  0.00    +0.000 A 
ATOM     24  H   UNL     1      47.272   2.375  15.087  0.00  0.00    +0.000 HD
BRANCH  17  26
ATOM     25  N   UNL     1      53.246   2.402  18.844  0.00  0.00    +0.000 NA
ATOM     26  C   UNL     1      52.243   2.583  18.290  0.00  0.00    +0.000 C 
ENDBRANCH  17  26
ENDBRANCH  16  21
ENDBRANCH   1  16
TORSDOF 7
ENDMDL
MODEL 5
REMARK VINA RESULT:    -6.291      1.960      2.398
REMARK INTER + INTRA:          -9.849
REMARK INTER:                  -9.337
REMARK INTRA:                  -0.511
REMARK UNBOUND:                -0.983
REMARK  Name = 
REMARK  7 active torsions:
REMARK  status: ('A' for Active; 'I' for Inactive)
REMARK    1  A    between atoms: C_2  and  C_3
REMARK    2  A    between atoms: N_7  and  C_8
REMARK    3  A    between atoms: C_8  and  C_9
REMARK    4  A    between atoms: C_9  and  C_10
REMARK    5  A    between atoms: C_9  and  C_12
REMARK    6  A    between atoms: C_16  and  O_17
REMARK    7  A    between atoms: O_17  and  C_18
REMARK                            x       y       z     vdW  Elec       q    Type
REMARK                         _______ _______ _______ _____ _____    ______ ____
ROOT
ATOM      1  C   UNL     1      44.289   4.591  12.268  0.00  0.00    +0.000 C 
ENDROOT
BRANCH   1   2
ATOM      2  C   UNL     1      45.050   5.886  12.016  0.00  0.00    +0.000 A 
ATOM      3  C   UNL     1      44.388   7.081  11.702  0.00  0.00    +0.000 A 
ATOM      4  C   UNL     1      45.096   8.279  11.591  0.00  0.00    +0.000 A 
ATOM      5  C   UNL     1      46.480   8.304  11.776  0.00  0.00    +0.000 A 
ATOM      6  C   UNL     1      47.159   7.119  12.045  0.00  0.00    +0.000 A 
ATOM      7  C   UNL     1      46.446   5.920  12.163  0.00  0.00    +0.000 A 
BRANCH   6   8
ATOM      8  O   UNL     1      48.507   7.013  12.270  0.00  0.00    +0.000 OA
BRANCH   8   9
ATOM      9  C   UNL     1      49.007   7.005  13.625  0.00  0.00    +0.000 C 
ATOM     10  C   UNL     1      48.137   6.345  14.716  0.00  0.00    +0.000 C 
ATOM     11  N   UNL     1      48.330   7.522  15.584  0.00  0.00    +0.000 NA
ATOM     12  C   UNL     1      48.745   8.310  14.410  0.00  0.00    +0.000 C 
ATOM     13  H   UNL     1      49.067   7.408  16.281  0.00  0.00    +0.000 HD
ENDBRANCH   8   9
ENDBRANCH   6   8
ENDBRANCH   1   2
BRANCH   1  14
ATOM     14  C   UNL     1      43.158   4.802  13.284  0.00  0.00    +0.000 C 
ATOM     15  F   UNL     1      42.890   3.646  13.949  0.00  0.00    +0.000 F 
ENDBRANCH   1  14
BRANCH   1  16
ATOM     16  C   UNL     1      43.774   3.945  10.966  0.00  0.00    +0.000 C 
BRANCH  16  21
ATOM     17  C   UNL     1      46.870   2.425   7.118  0.00  0.00    +0.000 A 
ATOM     18  C   UNL     1      46.568   3.708   7.555  0.00  0.00    +0.000 A 
ATOM     19  C   UNL     1      45.778   3.874   8.692  0.00  0.00    +0.000 A 
ATOM     20  C   UNL     1      45.307   2.759   9.378  0.00  0.00    +0.000 A 
ATOM     21  N   UNL     1      44.603   2.822  10.552  0.00  0.00    +0.000 N 
ATOM     22  N   UNL     1      45.593   1.514   8.955  0.00  0.00    +0.000 NA
ATOM     23  C   UNL     1      46.355   1.364   7.846  0.00  0.00    +0.000 A 
ATOM     24  H   UNL     1      44.261   1.892  10.789  0.00  0.00    +0.000 HD
BRANCH  17  26
ATOM     25  N   UNL     1      48.332   2.017   5.027  0.00  0.00    +0.000 NA
ATOM     26  C   UNL     1      47.679   2.200   5.969  0.00  0.00    +0.000 C 
ENDBRANCH  17  26
ENDBRANCH  16  21
ENDBRANCH   1  16
TORSDOF 7
ENDMDL
MODEL 6
REMARK VINA RESULT:    -6.228      3.419      8.445
REMARK INTER + INTRA:          -9.759
REMARK INTER:                  -9.184
REMARK INTRA:                  -0.575
REMARK UNBOUND:                -0.983
REMARK  Name = 
REMARK  7 active torsions:
REMARK  status: ('A' for Active; 'I' for Inactive)
REMARK    1  A    between atoms: C_2  and  C_3
REMARK    2  A    between atoms: N_7  and  C_8
REMARK    3  A    between atoms: C_8  and  C_9
REMARK    4  A    between atoms: C_9  and  C_10
REMARK    5  A    between atoms: C_9  and  C_12
REMARK    6  A    between atoms: C_16  and  O_17
REMARK    7  A    between atoms: O_17  and  C_18
REMARK                            x       y       z     vdW  Elec       q    Type
REMARK                         _______ _______ _______ _____ _____    ______ ____
ROOT
ATOM      1  C   UNL     1      45.752   6.548  11.104  0.00  0.00    +0.000 C 
ENDROOT
BRANCH   1   2
ATOM      2  C   UNL     1      45.373   5.286  10.337  0.00  0.00    +0.000 A 
ATOM      3  C   UNL     1      44.484   4.341  10.867  0.00  0.00    +0.000 A 
ATOM      4  C   UNL     1      44.061   3.254  10.100  0.00  0.00    +0.000 A 
ATOM      5  C   UNL     1      44.529   3.082   8.796  0.00  0.00    +0.000 A 
ATOM      6  C   UNL     1      45.445   3.987   8.269  0.00  0.00    +0.000 A 
ATOM      7  C   UNL     1      45.863   5.080   9.038  0.00  0.00    +0.000 A 
BRANCH   6   8
ATOM      8  O   UNL     1      45.961   3.944   7.000  0.00  0.00    +0.000 OA
BRANCH   8   9
ATOM      9  C   UNL     1      46.455   2.692   6.472  0.00  0.00    +0.000 C 
ATOM     10  C   UNL     1      47.773   2.131   7.048  0.00  0.00    +0.000 C 
ATOM     11  N   UNL     1      48.271   1.895   5.679  0.00  0.00    +0.000 NA
ATOM     12  C   UNL     1      47.255   2.826   5.157  0.00  0.00    +0.000 C 
ATOM     13  H   UNL     1      48.151   0.935   5.354  0.00  0.00    +0.000 HD
ENDBRANCH   8   9
ENDBRANCH   6   8
ENDBRANCH   1   2
BRANCH   1  14
ATOM     14  C   UNL     1      44.549   7.111  11.872  0.00  0.00    +0.000 C 
ATOM     15  F   UNL     1      44.384   6.454  13.052  0.00  0.00    +0.000 F 
ENDBRANCH   1  14
BRANCH   1  16
ATOM     16  C   UNL     1      46.970   6.335  12.025  0.00  0.00    +0.000 C 
BRANCH  16  21
ATOM     17  C   UNL     1      48.912   8.197  16.437  0.00  0.00    +0.000 A 
ATOM     18  C   UNL     1      49.011   6.922  15.895  0.00  0.00    +0.000 A 
ATOM     19  C   UNL     1      48.487   6.675  14.627  0.00  0.00    +0.000 A 
ATOM     20  C   UNL     1      47.878   7.704  13.916  0.00  0.00    +0.000 A 
ATOM     21  N   UNL     1      47.416   7.580  12.632  0.00  0.00    +0.000 N 
ATOM     22  N   UNL     1      47.775   8.940  14.439  0.00  0.00    +0.000 NA
ATOM     23  C   UNL     1      48.281   9.167  15.674  0.00  0.00    +0.000 A 
ATOM     24  H   UNL     1      46.901   8.421  12.377  0.00  0.00    +0.000 HD
BRANCH  17  26
ATOM     25  N   UNL     1      49.875   8.751  18.769  0.00  0.00    +0.000 NA
ATOM     26  C   UNL     1      49.438   8.504  17.723  0.00  0.00    +0.000 C 
ENDBRANCH  17  26
ENDBRANCH  16  21
ENDBRANCH   1  16
TORSDOF 7
ENDMDL
MODEL 7
REMARK VINA RESULT:    -6.109      2.416      7.932
REMARK INTER + INTRA:          -9.592
REMARK INTER:                  -8.913
REMARK INTRA:                  -0.678
REMARK UNBOUND:                -0.983
REMARK  Name = 
REMARK  7 active torsions:
REMARK  status: ('A' for Active; 'I' for Inactive)
REMARK    1  A    between atoms: C_2  and  C_3
REMARK    2  A    between atoms: N_7  and  C_8
REMARK    3  A    between atoms: C_8  and  C_9
REMARK    4  A    between atoms: C_9  and  C_10
REMARK    5  A    between atoms: C_9  and  C_12
REMARK    6  A    between atoms: C_16  and  O_17
REMARK    7  A    between atoms: O_17  and  C_18
REMARK                            x       y       z     vdW  Elec       q    Type
REMARK                         _______ _______ _______ _____ _____    ______ ____
ROOT
ATOM      1  C   UNL     1      46.507   6.708  12.315  0.00  0.00    +0.000 C 
ENDROOT
BRANCH   1   2
ATOM      2  C   UNL     1      45.268   5.885  11.989  0.00  0.00    +0.000 A 
ATOM      3  C   UNL     1      44.094   5.988  12.748  0.00  0.00    +0.000 A 
ATOM      4  C   UNL     1      42.935   5.313  12.361  0.00  0.00    +0.000 A 
ATOM      5  C   UNL     1      42.930   4.512  11.218  0.00  0.00    +0.000 A 
ATOM      6  C   UNL     1      44.098   4.364  10.476  0.00  0.00    +0.000 A 
ATOM      7  C   UNL     1      45.257   5.046  10.863  0.00  0.00    +0.000 A 
BRANCH   6   8
ATOM      8  O   UNL     1      44.218   3.627   9.326  0.00  0.00    +0.000 OA
BRANCH   8   9
ATOM      9  C   UNL     1      45.527   3.202   8.884  0.00  0.00    +0.000 C 
ATOM     10  C   UNL     1      45.855   3.310   7.380  0.00  0.00    +0.000 C 
ATOM     11  N   UNL     1      46.377   1.929   7.394  0.00  0.00    +0.000 NA
ATOM     12  C   UNL     1      45.659   1.679   8.656  0.00  0.00    +0.000 C 
ATOM     13  H   UNL     1      47.392   1.870   7.483  0.00  0.00    +0.000 HD
ENDBRANCH   8   9
ENDBRANCH   6   8
ENDBRANCH   1   2
BRANCH   1  14
ATOM     14  C   UNL     1      46.132   8.024  13.009  0.00  0.00    +0.000 C 
ATOM     15  F   UNL     1      45.967   9.018  12.093  0.00  0.00    +0.000 F 
ENDBRANCH   1  14
BRANCH   1  16
ATOM     16  C   UNL     1      47.549   5.911  13.126  0.00  0.00    +0.000 C 
BRANCH  16  21
ATOM     17  C   UNL     1      48.303   4.593  18.065  0.00  0.00    +0.000 A 
ATOM     18  C   UNL     1      48.750   5.709  17.370  0.00  0.00    +0.000 A 
ATOM     19  C   UNL     1      48.330   5.908  16.055  0.00  0.00    +0.000 A 
ATOM     20  C   UNL     1      47.469   4.994  15.456  0.00  0.00    +0.000 A 
ATOM     21  N   UNL     1      46.934   5.152  14.205  0.00  0.00    +0.000 N 
ATOM     22  N   UNL     1      47.038   3.909  16.124  0.00  0.00    +0.000 NA
ATOM     23  C   UNL     1      47.456   3.722  17.398  0.00  0.00    +0.000 A 
ATOM     24  H   UNL     1      46.442   4.300  13.939  0.00  0.00    +0.000 HD
BRANCH  17  26
ATOM     25  N   UNL     1      49.016   4.156  20.509  0.00  0.00    +0.000 NA
ATOM     26  C   UNL     1      48.693   4.348  19.412  0.00  0.00    +0.000 C 
ENDBRANCH  17  26
ENDBRANCH  16  21
ENDBRANCH   1  16
TORSDOF 7
ENDMDL
MODEL 8
REMARK VINA RESULT:    -5.845      3.483      5.448
REMARK INTER + INTRA:          -9.219
REMARK INTER:                  -8.315
REMARK INTRA:                  -0.904
REMARK UNBOUND:                -0.983
REMARK  Name = 
REMARK  7 active torsions:
REMARK  status: ('A' for Active; 'I' for Inactive)
REMARK    1  A    between atoms: C_2  and  C_3
REMARK    2  A    between atoms: N_7  and  C_8
REMARK    3  A    between atoms: C_8  and  C_9
REMARK    4  A    between atoms: C_9  and  C_10
REMARK    5  A    between atoms: C_9  and  C_12
REMARK    6  A    between atoms: C_16  and  O_17
REMARK    7  A    between atoms: O_17  and  C_18
REMARK                            x       y       z     vdW  Elec       q    Type
REMARK                         _______ _______ _______ _____ _____    ______ ____
ROOT
ATOM      1  C   UNL     1      48.203   8.635  13.747  0.00  0.00    +0.000 C 
ENDROOT
BRANCH   1   2
ATOM      2  C   UNL     1      48.553   8.157  15.150  0.00  0.00    +0.000 A 
ATOM      3  C   UNL     1      48.476   9.009  16.260  0.00  0.00    +0.000 A 
ATOM      4  C   UNL     1      48.687   8.519  17.550  0.00  0.00    +0.000 A 
ATOM      5  C   UNL     1      48.995   7.172  17.755  0.00  0.00    +0.000 A 
ATOM      6  C   UNL     1      49.119   6.321  16.661  0.00  0.00    +0.000 A 
ATOM      7  C   UNL     1      48.899   6.814  15.369  0.00  0.00    +0.000 A 
BRANCH   6   8
ATOM      8  O   UNL     1      49.393   4.980  16.728  0.00  0.00    +0.000 OA
BRANCH   8   9
ATOM      9  C   UNL     1      48.616   4.135  17.606  0.00  0.00    +0.000 C 
ATOM     10  C   UNL     1      48.192   2.744  17.087  0.00  0.00    +0.000 C 
ATOM     11  N   UNL     1      46.811   2.994  17.544  0.00  0.00    +0.000 NA
ATOM     12  C   UNL     1      47.100   4.438  17.605  0.00  0.00    +0.000 C 
ATOM     13  H   UNL     1      46.594   2.582  18.452  0.00  0.00    +0.000 HD
ENDBRANCH   8   9
ENDBRANCH   6   8
ENDBRANCH   1   2
BRANCH   1  14
ATOM     14  C   UNL     1      48.881   9.975  13.432  0.00  0.00    +0.000 C 
ATOM     15  F   UNL     1      50.235   9.847  13.475  0.00  0.00    +0.000 F 
ENDBRANCH   1  14
BRANCH   1  16
ATOM     16  C   UNL     1      48.505   7.573  12.669  0.00  0.00    +0.000 C 
BRANCH  16  21
ATOM     17  C   UNL     1      44.731   4.157  11.780  0.00  0.00    +0.000 A 
ATOM     18  C   UNL     1      45.415   4.433  12.958  0.00  0.00    +0.000 A 
ATOM     19  C   UNL     1      46.333   5.482  12.984  0.00  0.00    +0.000 A 
ATOM     20  C   UNL     1      46.552   6.242  11.840  0.00  0.00    +0.000 A 
ATOM     21  N   UNL     1      47.364   7.345  11.795  0.00  0.00    +0.000 N 
ATOM     22  N   UNL     1      45.895   5.975  10.696  0.00  0.00    +0.000 NA
ATOM     23  C   UNL     1      45.010   4.951  10.679  0.00  0.00    +0.000 A 
ATOM     24  H   UNL     1      47.463   7.651  10.829  0.00  0.00    +0.000 HD
BRANCH  17  26
ATOM     25  N   UNL     1      43.005   2.241  11.635  0.00  0.00    +0.000 NA
ATOM     26  C   UNL     1      43.777   3.104  11.702  0.00  0.00    +0.000 C 
ENDBRANCH  17  26
ENDBRANCH  16  21
ENDBRANCH   1  16
TORSDOF 7
ENDMDL
MODEL 9
REMARK VINA RESULT:    -5.784      3.469      8.027
REMARK INTER + INTRA:          -9.133
REMARK INTER:                  -8.356
REMARK INTRA:                  -0.778
REMARK UNBOUND:                -0.983
REMARK  Name = 
REMARK  7 active torsions:
REMARK  status: ('A' for Active; 'I' for Inactive)
REMARK    1  A    between atoms: C_2  and  C_3
REMARK    2  A    between atoms: N_7  and  C_8
REMARK    3  A    between atoms: C_8  and  C_9
REMARK    4  A    between atoms: C_9  and  C_10
REMARK    5  A    between atoms: C_9  and  C_12
REMARK    6  A    between atoms: C_16  and  O_17
REMARK    7  A    between atoms: O_17  and  C_18
REMARK                            x       y       z     vdW  Elec       q    Type
REMARK                         _______ _______ _______ _____ _____    ______ ____
ROOT
ATOM      1  C   UNL     1      48.334   6.850  13.521  0.00  0.00    +0.000 C 
ENDROOT
BRANCH   1   2
ATOM      2  C   UNL     1      46.986   7.135  12.870  0.00  0.00    +0.000 A 
ATOM      3  C   UNL     1      46.384   8.398  12.946  0.00  0.00    +0.000 A 
ATOM      4  C   UNL     1      45.208   8.669  12.244  0.00  0.00    +0.000 A 
ATOM      5  C   UNL     1      44.605   7.680  11.464  0.00  0.00    +0.000 A 
ATOM      6  C   UNL     1      45.167   6.408  11.411  0.00  0.00    +0.000 A 
ATOM      7  C   UNL     1      46.349   6.140  12.111  0.00  0.00    +0.000 A 
BRANCH   6   8
ATOM      8  O   UNL     1      44.687   5.360  10.668  0.00  0.00    +0.000 OA
BRANCH   8   9
ATOM      9  C   UNL     1      44.673   4.030  11.233  0.00  0.00    +0.000 C 
ATOM     10  C   UNL     1      44.231   2.861  10.327  0.00  0.00    +0.000 C 
ATOM     11  N   UNL     1      43.335   2.373  11.394  0.00  0.00    +0.000 NA
ATOM     12  C   UNL     1      43.401   3.695  12.043  0.00  0.00    +0.000 C 
ATOM     13  H   UNL     1      43.732   1.621  11.958  0.00  0.00    +0.000 HD
ENDBRANCH   8   9
ENDBRANCH   6   8
ENDBRANCH   1   2
BRANCH   1  14
ATOM     14  C   UNL     1      49.488   7.387  12.664  0.00  0.00    +0.000 C 
ATOM     15  F   UNL     1      49.140   7.402  11.349  0.00  0.00    +0.000 F 
ENDBRANCH   1  14
BRANCH   1  16
ATOM     16  C   UNL     1      48.409   7.368  14.972  0.00  0.00    +0.000 C 
BRANCH  16  21
ATOM     17  C   UNL     1      51.419   4.214  17.746  0.00  0.00    +0.000 A 
ATOM     18  C   UNL     1      51.685   5.489  17.259  0.00  0.00    +0.000 A 
ATOM     19  C   UNL     1      50.671   6.199  16.617  0.00  0.00    +0.000 A 
ATOM     20  C   UNL     1      49.409   5.631  16.475  0.00  0.00    +0.000 A 
ATOM     21  N   UNL     1      48.330   6.285  15.941  0.00  0.00    +0.000 N 
ATOM     22  N   UNL     1      49.149   4.396  16.940  0.00  0.00    +0.000 NA
ATOM     23  C   UNL     1      50.142   3.712  17.557  0.00  0.00    +0.000 A 
ATOM     24  H   UNL     1      47.561   5.627  15.826  0.00  0.00    +0.000 HD
BRANCH  17  26
ATOM     25  N   UNL     1      53.222   2.822  18.965  0.00  0.00    +0.000 NA
ATOM     26  C   UNL     1      52.416   3.451  18.418  0.00  0.00    +0.000 C 
ENDBRANCH  17  26
ENDBRANCH  16  21
ENDBRANCH   1  16
TORSDOF 7
ENDMDL
