MODEL 1
REMARK VINA RESULT:    -7.765      0.000      0.000
REMARK INTER + INTRA:         -11.981
REMARK INTER:                 -10.942
REMARK INTRA:                  -1.039
REMARK UNBOUND:                -1.039
REMARK  Name = 
REMARK  10 active torsions:
REMARK  status: ('A' for Active; 'I' for Inactive)
REMARK    1  A    between atoms: C_1  and  O_2
REMARK    2  A    between atoms: O_2  and  C_3
REMARK    3  A    between atoms: C_5  and  C_6
REMARK    4  A    between atoms: C_11  and  N_12
REMARK    5  A    between atoms: N_12  and  C_13
REMARK    6  A    between atoms: C_13  and  C_14
REMARK    7  A    between atoms: C_14  and  C_15
REMARK    8  A    between atoms: C_14  and  C_16
REMARK    9  A    between atoms: C_14  and  C_17
REMARK   10  A    between atoms: C_21  and  C_22
REMARK                            x       y       z     vdW  Elec       q    Type
REMARK                         _______ _______ _______ _____ _____    ______ ____
ROOT
ATOM      1  C   UNL     1      45.032   5.302  13.190  0.00  0.00    +0.000 C 
ENDROOT
BRANCH   1   2
ATOM      2  C   UNL     1      44.951   5.490  11.642  0.00  0.00    +0.000 C 
ATOM      3  C   UNL     1      43.691   6.359  11.385  0.00  0.00    +0.000 C 
ATOM      4  C   UNL     1      46.184   6.292  11.164  0.00  0.00    +0.000 C 
BRANCH   2   5
ATOM      5  C   UNL     1      44.808   4.166  10.855  0.00  0.00    +0.000 A 
ATOM      6  C   UNL     1      43.843   3.197  11.171  0.00  0.00    +0.000 A 
ATOM      7  C   UNL     1      43.711   2.032  10.417  0.00  0.00    +0.000 A 
ATOM      8  C   UNL     1      44.526   1.821   9.310  0.00  0.00    +0.000 A 
ATOM      9  C   UNL     1      45.489   2.765   8.929  0.00  0.00    +0.000 A 
ATOM     10  C   UNL     1      45.629   3.915   9.733  0.00  0.00    +0.000 A 
BRANCH   9  11
ATOM     11  C   UNL     1      46.294   2.580   7.704  0.00  0.00    +0.000 A 
ATOM     12  C   UNL     1      46.279   3.489   6.638  0.00  0.00    +0.000 A 
ATOM     13  C   UNL     1      47.041   3.260   5.495  0.00  0.00    +0.000 A 
ATOM     14  C   UNL     1      47.822   2.118   5.442  0.00  0.00    +0.000 A 
ATOM     15  N   UNL     1      47.879   1.205   6.434  0.00  0.00    +0.000 NA
ATOM     16  C   UNL     1      47.116   1.459   7.527  0.00  0.00    +0.000 A 
ENDBRANCH   9  11
ENDBRANCH   2   5
ENDBRANCH   1   2
BRANCH   1  17
ATOM     17  N   UNL     1      46.091   4.395  13.596  0.00  0.00    +0.000 N 
ATOM     18  H   UNL     1      45.949   3.392  13.518  0.00  0.00    +0.000 HD
BRANCH  17  23
ATOM     19  C   UNL     1      48.629   6.199  15.263  0.00  0.00    +0.000 A 
ATOM     20  C   UNL     1      48.815   5.546  16.466  0.00  0.00    +0.000 A 
ATOM     21  C   UNL     1      48.068   4.394  16.709  0.00  0.00    +0.000 A 
ATOM     22  C   UNL     1      47.161   3.971  15.732  0.00  0.00    +0.000 A 
ATOM     23  C   UNL     1      47.020   4.696  14.559  0.00  0.00    +0.000 A 
ATOM     24  N   UNL     1      47.760   5.790  14.314  0.00  0.00    +0.000 NA
BRANCH  21  25
ATOM     25  C   UNL     1      48.184   3.615  17.986  0.00  0.00    +0.000 C 
ATOM     26  F   UNL     1      47.286   2.599  18.093  0.00  0.00    +0.000 F 
ATOM     27  F   UNL     1      49.413   3.047  18.133  0.00  0.00    +0.000 F 
ATOM     28  F   UNL     1      48.002   4.396  19.087  0.00  0.00    +0.000 F 
ENDBRANCH  21  25
BRANCH  19  30
ATOM     29  C   UNL     1      49.247   7.870  13.748  0.00  0.00    +0.000 C 
ATOM     30  O   UNL     1      49.374   7.344  15.067  0.00  0.00    +0.000 OA
ENDBRANCH  19  30
ENDBRANCH  17  23
ENDBRANCH   1  17
TORSDOF 7
ENDMDL
MODEL 2
REMARK VINA RESULT:    -7.397      2.144      2.841
REMARK INTER + INTRA:         -11.463
REMARK INTER:                 -10.345
REMARK INTRA:                  -1.118
REMARK UNBOUND:                -1.039
REMARK  Name = 
REMARK  10 active torsions:
REMARK  status: ('A' for Active; 'I' for Inactive)
REMARK    1  A    between atoms: C_1  and  O_2
REMARK    2  A    between atoms: O_2  and  C_3
REMARK    3  A    between atoms: C_5  and  C_6
REMARK    4  A    between atoms: C_11  and  N_12
REMARK    5  A    between atoms: N_12  and  C_13
REMARK    6  A    between atoms: C_13  and  C_14
REMARK    7  A    between atoms: C_14  and  C_15
REMARK    8  A    between atoms: C_14  and  C_16
REMARK    9  A    between atoms: C_14  and  C_17
REMARK   10  A    between atoms: C_21  and  C_22
REMARK                            x       y       z     vdW  Elec       q    Type
REMARK                         _______ _______ _______ _____ _____    ______ ____
ROOT
ATOM      1  C   UNL     1      44.889   5.172  13.092  0.00  0.00    +0.000 C 
ENDROOT
BRANCH   1   2
ATOM      2  C   UNL     1      44.677   5.355  11.556  0.00  0.00    +0.000 C 
ATOM      3  C   UNL     1      43.303   6.059  11.398  0.00  0.00    +0.000 C 
ATOM      4  C   UNL     1      45.763   6.309  11.005  0.00  0.00    +0.000 C 
BRANCH   2   5
ATOM      5  C   UNL     1      44.647   4.028  10.763  0.00  0.00    +0.000 A 
ATOM      6  C   UNL     1      43.756   2.986  11.063  0.00  0.00    +0.000 A 
ATOM      7  C   UNL     1      43.724   1.818  10.304  0.00  0.00    +0.000 A 
ATOM      8  C   UNL     1      44.568   1.674   9.207  0.00  0.00    +0.000 A 
ATOM      9  C   UNL     1      45.461   2.691   8.842  0.00  0.00    +0.000 A 
ATOM     10  C   UNL     1      45.500   3.845   9.652  0.00  0.00    +0.000 A 
BRANCH   9  11
ATOM     11  C   UNL     1      46.294   2.574   7.627  0.00  0.00    +0.000 A 
ATOM     12  C   UNL     1      46.253   3.507   6.583  0.00  0.00    +0.000 A 
ATOM     13  C   UNL     1      47.044   3.342   5.449  0.00  0.00    +0.000 A 
ATOM     14  C   UNL     1      47.880   2.239   5.384  0.00  0.00    +0.000 A 
ATOM     15  N   UNL     1      47.964   1.307   6.355  0.00  0.00    +0.000 NA
ATOM     16  C   UNL     1      47.171   1.498   7.439  0.00  0.00    +0.000 A 
ENDBRANCH   9  11
ENDBRANCH   2   5
ENDBRANCH   1   2
BRANCH   1  17
ATOM     17  N   UNL     1      46.167   4.564  13.419  0.00  0.00    +0.000 N 
ATOM     18  H   UNL     1      46.308   3.572  13.249  0.00  0.00    +0.000 HD
BRANCH  17  23
ATOM     19  C   UNL     1      47.779   4.695  16.558  0.00  0.00    +0.000 A 
ATOM     20  C   UNL     1      48.713   5.707  16.450  0.00  0.00    +0.000 A 
ATOM     21  C   UNL     1      48.769   6.423  15.256  0.00  0.00    +0.000 A 
ATOM     22  C   UNL     1      47.890   6.068  14.226  0.00  0.00    +0.000 A 
ATOM     23  C   UNL     1      46.996   5.026  14.409  0.00  0.00    +0.000 A 
ATOM     24  N   UNL     1      46.924   4.354  15.570  0.00  0.00    +0.000 NA
BRANCH  21  25
ATOM     25  C   UNL     1      49.752   7.533  15.029  0.00  0.00    +0.000 C 
ATOM     26  F   UNL     1      49.719   8.047  13.770  0.00  0.00    +0.000 F 
ATOM     27  F   UNL     1      49.544   8.584  15.869  0.00  0.00    +0.000 F 
ATOM     28  F   UNL     1      51.038   7.138  15.241  0.00  0.00    +0.000 F 
ENDBRANCH  21  25
BRANCH  19  30
ATOM     29  C   UNL     1      48.717   2.938  17.784  0.00  0.00    +0.000 C 
ATOM     30  O   UNL     1      47.766   3.999  17.750  0.00  0.00    +0.000 OA
ENDBRANCH  19  30
ENDBRANCH  17  23
ENDBRANCH   1  17
TORSDOF 7
ENDMDL
MODEL 3
REMARK VINA RESULT:    -7.320      2.226      4.196
REMARK INTER + INTRA:         -11.355
REMARK INTER:                  -9.929
REMARK INTRA:                  -1.426
REMARK UNBOUND:                -1.039
REMARK  Name = 
REMARK  10 active torsions:
REMARK  status: ('A' for Active; 'I' for Inactive)
REMARK    1  A    between atoms: C_1  and  O_2
REMARK    2  A    between atoms: O_2  and  C_3
REMARK    3  A    between atoms: C_5  and  C_6
REMARK    4  A    between atoms: C_11  and  N_12
REMARK    5  A    between atoms: N_12  and  C_13
REMARK    6  A    between atoms: C_13  and  C_14
REMARK    7  A    between atoms: C_14  and  C_15
REMARK    8  A    between atoms: C_14  and  C_16
REMARK    9  A    between atoms: C_14  and  C_17
REMARK   10  A    between atoms: C_21  and  C_22
REMARK                            x       y       z     vdW  Elec       q    Type
REMARK                         _______ _______ _______ _____ _____    ______ ____
ROOT
ATOM      1  C   UNL     1      48.940   8.507  14.009  0.00  0.00    +0.000 C 
ENDROOT
BRANCH   1   2
ATOM      2  C   UNL     1      48.664   8.312  12.485  0.00  0.00    +0.000 C 
ATOM      3  C   UNL     1      49.028   9.662  11.811  0.00  0.00    +0.000 C 
ATOM      4  C   UNL     1      49.622   7.232  11.931  0.00  0.00    +0.000 C 
BRANCH   2   5
ATOM      5  C   UNL     1      47.192   7.974  12.152  0.00  0.00    +0.000 A 
ATOM      6  C   UNL     1      46.132   8.850  12.431  0.00  0.00    +0.000 A 
ATOM      7  C   UNL     1      44.820   8.535  12.081  0.00  0.00    +0.000 A 
ATOM      8  C   UNL     1      44.540   7.346  11.417  0.00  0.00    +0.000 A 
ATOM      9  C   UNL     1      45.560   6.443  11.087  0.00  0.00    +0.000 A 
ATOM     10  C   UNL     1      46.872   6.768  11.489  0.00  0.00    +0.000 A 
BRANCH   9  11
ATOM     11  C   UNL     1      45.275   5.222  10.306  0.00  0.00    +0.000 A 
ATOM     12  C   UNL     1      45.750   5.022   9.004  0.00  0.00    +0.000 A 
ATOM     13  C   UNL     1      45.437   3.861   8.301  0.00  0.00    +0.000 A 
ATOM     14  C   UNL     1      44.652   2.905   8.925  0.00  0.00    +0.000 A 
ATOM     15  N   UNL     1      44.164   3.039  10.175  0.00  0.00    +0.000 NA
ATOM     16  C   UNL     1      44.484   4.187  10.823  0.00  0.00    +0.000 A 
ENDBRANCH   9  11
ENDBRANCH   2   5
ENDBRANCH   1   2
BRANCH   1  17
ATOM     17  N   UNL     1      49.530   7.335  14.633  0.00  0.00    +0.000 N 
ATOM     18  H   UNL     1      50.302   6.859  14.175  0.00  0.00    +0.000 HD
BRANCH  17  23
ATOM     19  C   UNL     1      47.487   4.619  15.592  0.00  0.00    +0.000 A 
ATOM     20  C   UNL     1      47.529   4.597  16.973  0.00  0.00    +0.000 A 
ATOM     21  C   UNL     1      48.256   5.593  17.623  0.00  0.00    +0.000 A 
ATOM     22  C   UNL     1      48.916   6.550  16.844  0.00  0.00    +0.000 A 
ATOM     23  C   UNL     1      48.840   6.489  15.461  0.00  0.00    +0.000 A 
ATOM     24  N   UNL     1      48.117   5.544  14.837  0.00  0.00    +0.000 NA
BRANCH  21  25
ATOM     25  C   UNL     1      48.375   5.656  19.117  0.00  0.00    +0.000 C 
ATOM     26  F   UNL     1      47.179   5.691  19.763  0.00  0.00    +0.000 F 
ATOM     27  F   UNL     1      49.046   4.586  19.625  0.00  0.00    +0.000 F 
ATOM     28  F   UNL     1      49.061   6.756  19.535  0.00  0.00    +0.000 F 
ENDBRANCH  21  25
BRANCH  19  30
ATOM     29  C   UNL     1      46.868   3.634  13.563  0.00  0.00    +0.000 C 
ATOM     30  O   UNL     1      46.772   3.606  14.985  0.00  0.00    +0.000 OA
ENDBRANCH  19  30
ENDBRANCH  17  23
ENDBRANCH   1  17
TORSDOF 7
ENDMDL
MODEL 4
REMARK VINA RESULT:    -7.224      4.356      8.611
REMARK INTER + INTRA:         -11.220
REMARK INTER:                 -10.123
REMARK INTRA:                  -1.096
REMARK UNBOUND:                -1.039
REMARK  Name = 
REMARK  10 active torsions:
REMARK  status: ('A' for Active; 'I' for Inactive)
REMARK    1  A    between atoms: C_1  and  O_2
REMARK    2  A    between atoms: O_2  and  C_3
REMARK    3  A    between atoms: C_5  and  C_6
REMARK    4  A    between atoms: C_11  and  N_12
REMARK    5  A    between atoms: N_12  and  C_13
REMARK    6  A    between atoms: C_13  and  C_14
REMARK    7  A    between atoms: C_14  and  C_15
REMARK    8  A    between atoms: C_14  and  C_16
REMARK    9  A    between atoms: C_14  and  C_17
REMARK   10  A    between atoms: C_21  and  C_22
REMARK                            x       y       z     vdW  Elec       q    Type
REMARK                         _______ _______ _______ _____ _____    ______ ____
ROOT
ATOM      1  C   UNL     1      46.175   7.237  12.477  0.00  0.00    +0.000 C 
ENDROOT
BRANCH   1   2
ATOM      2  C   UNL     1      47.545   7.978  12.588  0.00  0.00    +0.000 C 
ATOM      3  C   UNL     1      48.410   7.449  11.412  0.00  0.00    +0.000 C 
ATOM      4  C   UNL     1      47.322   9.492  12.366  0.00  0.00    +0.000 C 
BRANCH   2   5
ATOM      5  C   UNL     1      48.297   7.714  13.913  0.00  0.00    +0.000 A 
ATOM      6  C   UNL     1      49.140   8.665  14.508  0.00  0.00    +0.000 A 
ATOM      7  C   UNL     1      49.772   8.414  15.725  0.00  0.00    +0.000 A 
ATOM      8  C   UNL     1      49.554   7.212  16.390  0.00  0.00    +0.000 A 
ATOM      9  C   UNL     1      48.701   6.235  15.860  0.00  0.00    +0.000 A 
ATOM     10  C   UNL     1      48.107   6.498  14.608  0.00  0.00    +0.000 A 
BRANCH   9  11
ATOM     11  C   UNL     1      48.402   4.997  16.608  0.00  0.00    +0.000 A 
ATOM     12  C   UNL     1      49.359   4.320  17.374  0.00  0.00    +0.000 A 
ATOM     13  C   UNL     1      49.033   3.144  18.046  0.00  0.00    +0.000 A 
ATOM     14  C   UNL     1      47.737   2.667  17.947  0.00  0.00    +0.000 A 
ATOM     15  N   UNL     1      46.771   3.272  17.226  0.00  0.00    +0.000 NA
ATOM     16  C   UNL     1      47.130   4.409  16.579  0.00  0.00    +0.000 A 
ENDBRANCH   9  11
ENDBRANCH   2   5
ENDBRANCH   1   2
BRANCH   1  17
ATOM     17  N   UNL     1      45.751   7.033  11.103  0.00  0.00    +0.000 N 
ATOM     18  H   UNL     1      45.296   7.791  10.601  0.00  0.00    +0.000 HD
BRANCH  17  23
ATOM     19  C   UNL     1      43.955   4.013  10.752  0.00  0.00    +0.000 A 
ATOM     20  C   UNL     1      44.445   3.425   9.601  0.00  0.00    +0.000 A 
ATOM     21  C   UNL     1      45.482   4.068   8.927  0.00  0.00    +0.000 A 
ATOM     22  C   UNL     1      45.959   5.279   9.441  0.00  0.00    +0.000 A 
ATOM     23  C   UNL     1      45.398   5.811  10.591  0.00  0.00    +0.000 A 
ATOM     24  N   UNL     1      44.416   5.178  11.254  0.00  0.00    +0.000 NA
BRANCH  21  25
ATOM     25  C   UNL     1      46.080   3.522   7.664  0.00  0.00    +0.000 C 
ATOM     26  F   UNL     1      45.172   3.305   6.675  0.00  0.00    +0.000 F 
ATOM     27  F   UNL     1      47.017   4.358   7.136  0.00  0.00    +0.000 F 
ATOM     28  F   UNL     1      46.713   2.333   7.863  0.00  0.00    +0.000 F 
ENDBRANCH  21  25
BRANCH  19  30
ATOM     29  C   UNL     1      43.352   2.234  12.145  0.00  0.00    +0.000 C 
ATOM     30  O   UNL     1      42.917   3.355  11.380  0.00  0.00    +0.000 OA
ENDBRANCH  19  30
ENDBRANCH  17  23
ENDBRANCH   1  17
TORSDOF 7
ENDMDL
MODEL 5
REMARK VINA RESULT:    -7.003      3.717      8.162
REMARK INTER + INTRA:         -10.908
REMARK INTER:                  -8.778
REMARK INTRA:                  -2.130
REMARK UNBOUND:                -1.039
REMARK  Name = 
REMARK  10 active torsions:
REMARK  status: ('A' for Active; 'I' for Inactive)
REMARK    1  A    between atoms: C_1  and  O_2
REMARK    2  A    between atoms: O_2  and  C_3
REMARK    3  A    between atoms: C_5  and  C_6
REMARK    4  A    between atoms: C_11  and  N_12
REMARK    5  A    between atoms: N_12  and  C_13
REMARK    6  A    between atoms: C_13  and  C_14
REMARK    7  A    between atoms: C_14  and  C_15
REMARK    8  A    between atoms: C_14  and  C_16
REMARK    9  A    between atoms: C_14  and  C_17
REMARK   10  A    between atoms: C_21  and  C_22
REMARK                            x       y       z     vdW  Elec       q    Type
REMARK                         _______ _______ _______ _____ _____    ______ ____
ROOT
ATOM      1  C   UNL     1      47.208   4.025  16.358  0.00  0.00    +0.000 C 
ENDROOT
BRANCH   1   2
ATOM      2  C   UNL     1      48.531   3.768  17.146  0.00  0.00    +0.000 C 
ATOM      3  C   UNL     1      48.132   3.727  18.645  0.00  0.00    +0.000 C 
ATOM      4  C   UNL     1      49.084   2.374  16.765  0.00  0.00    +0.000 C 
BRANCH   2   5
ATOM      5  C   UNL     1      49.603   4.865  16.949  0.00  0.00    +0.000 A 
ATOM      6  C   UNL     1      50.911   4.743  17.443  0.00  0.00    +0.000 A 
ATOM      7  C   UNL     1      51.867   5.731  17.213  0.00  0.00    +0.000 A 
ATOM      8  C   UNL     1      51.545   6.855  16.460  0.00  0.00    +0.000 A 
ATOM      9  C   UNL     1      50.263   7.019  15.917  0.00  0.00    +0.000 A 
ATOM     10  C   UNL     1      49.303   6.025  16.199  0.00  0.00    +0.000 A 
BRANCH   9  11
ATOM     11  C   UNL     1      49.946   8.169  15.045  0.00  0.00    +0.000 A 
ATOM     12  C   UNL     1      50.272   8.205  13.684  0.00  0.00    +0.000 A 
ATOM     13  C   UNL     1      49.970   9.322  12.908  0.00  0.00    +0.000 A 
ATOM     14  C   UNL     1      49.329  10.390  13.512  0.00  0.00    +0.000 A 
ATOM     15  N   UNL     1      48.989  10.416  14.817  0.00  0.00    +0.000 NA
ATOM     16  C   UNL     1      49.308   9.314  15.542  0.00  0.00    +0.000 A 
ENDBRANCH   9  11
ENDBRANCH   2   5
ENDBRANCH   1   2
BRANCH   1  17
ATOM     17  N   UNL     1      47.197   3.397  15.048  0.00  0.00    +0.000 N 
ATOM     18  H   UNL     1      47.899   2.699  14.822  0.00  0.00    +0.000 HD
BRANCH  17  23
ATOM     19  C   UNL     1      45.302   3.818  12.098  0.00  0.00    +0.000 A 
ATOM     20  C   UNL     1      45.513   5.127  11.709  0.00  0.00    +0.000 A 
ATOM     21  C   UNL     1      46.389   5.903  12.466  0.00  0.00    +0.000 A 
ATOM     22  C   UNL     1      46.994   5.322  13.585  0.00  0.00    +0.000 A 
ATOM     23  C   UNL     1      46.713   4.006  13.919  0.00  0.00    +0.000 A 
ATOM     24  N   UNL     1      45.889   3.251  13.174  0.00  0.00    +0.000 NA
BRANCH  21  25
ATOM     25  C   UNL     1      46.682   7.338  12.138  0.00  0.00    +0.000 C 
ATOM     26  F   UNL     1      47.788   7.510  11.366  0.00  0.00    +0.000 F 
ATOM     27  F   UNL     1      45.657   7.931  11.465  0.00  0.00    +0.000 F 
ATOM     28  F   UNL     1      46.879   8.093  13.254  0.00  0.00    +0.000 F 
ENDBRANCH  21  25
BRANCH  19  30
ATOM     29  C   UNL     1      44.575   3.307   9.934  0.00  0.00    +0.000 C 
ATOM     30  O   UNL     1      44.414   3.088  11.334  0.00  0.00    +0.000 OA
ENDBRANCH  19  30
ENDBRANCH  17  23
ENDBRANCH   1  17
TORSDOF 7
ENDMDL
MODEL 6
REMARK VINA RESULT:    -6.977      2.380      4.498
REMARK INTER + INTRA:         -10.871
REMARK INTER:                  -9.540
REMARK INTRA:                  -1.330
REMARK UNBOUND:                -1.039
REMARK  Name = 
REMARK  10 active torsions:
REMARK  status: ('A' for Active; 'I' for Inactive)
REMARK    1  A    between atoms: C_1  and  O_2
REMARK    2  A    between atoms: O_2  and  C_3
REMARK    3  A    between atoms: C_5  and  C_6
REMARK    4  A    between atoms: C_11  and  N_12
REMARK    5  A    between atoms: N_12  and  C_13
REMARK    6  A    between atoms: C_13  and  C_14
REMARK    7  A    between atoms: C_14  and  C_15
REMARK    8  A    between atoms: C_14  and  C_16
REMARK    9  A    between atoms: C_14  and  C_17
REMARK   10  A    between atoms: C_21  and  C_22
REMARK                            x       y       z     vdW  Elec       q    Type
REMARK                         _______ _______ _______ _____ _____    ______ ____
ROOT
ATOM      1  C   UNL     1      49.635   7.384  13.814  0.00  0.00    +0.000 C 
ENDROOT
BRANCH   1   2
ATOM      2  C   UNL     1      49.038   8.261  12.668  0.00  0.00    +0.000 C 
ATOM      3  C   UNL     1      49.184   9.733  13.139  0.00  0.00    +0.000 C 
ATOM      4  C   UNL     1      49.898   8.084  11.395  0.00  0.00    +0.000 C 
BRANCH   2   5
ATOM      5  C   UNL     1      47.546   7.981  12.375  0.00  0.00    +0.000 A 
ATOM      6  C   UNL     1      46.532   8.912  12.651  0.00  0.00    +0.000 A 
ATOM      7  C   UNL     1      45.200   8.647  12.337  0.00  0.00    +0.000 A 
ATOM      8  C   UNL     1      44.853   7.453  11.714  0.00  0.00    +0.000 A 
ATOM      9  C   UNL     1      45.824   6.496  11.389  0.00  0.00    +0.000 A 
ATOM     10  C   UNL     1      47.158   6.772  11.755  0.00  0.00    +0.000 A 
BRANCH   9  11
ATOM     11  C   UNL     1      45.467   5.268  10.650  0.00  0.00    +0.000 A 
ATOM     12  C   UNL     1      45.681   5.117   9.274  0.00  0.00    +0.000 A 
ATOM     13  C   UNL     1      45.309   3.946   8.619  0.00  0.00    +0.000 A 
ATOM     14  C   UNL     1      44.731   2.931   9.363  0.00  0.00    +0.000 A 
ATOM     15  N   UNL     1      44.498   3.015  10.688  0.00  0.00    +0.000 NA
ATOM     16  C   UNL     1      44.867   4.175  11.289  0.00  0.00    +0.000 A 
ENDBRANCH   9  11
ENDBRANCH   2   5
ENDBRANCH   1   2
BRANCH   1  17
ATOM     17  N   UNL     1      49.164   7.776  15.131  0.00  0.00    +0.000 N 
ATOM     18  H   UNL     1      49.412   8.690  15.501  0.00  0.00    +0.000 HD
BRANCH  17  23
ATOM     19  C   UNL     1      48.565   6.602  18.408  0.00  0.00    +0.000 A 
ATOM     20  C   UNL     1      48.212   5.274  18.264  0.00  0.00    +0.000 A 
ATOM     21  C   UNL     1      48.224   4.728  16.981  0.00  0.00    +0.000 A 
ATOM     22  C   UNL     1      48.575   5.555  15.909  0.00  0.00    +0.000 A 
ATOM     23  C   UNL     1      48.897   6.884  16.138  0.00  0.00    +0.000 A 
ATOM     24  N   UNL     1      48.911   7.403  17.377  0.00  0.00    +0.000 NA
BRANCH  21  25
ATOM     25  C   UNL     1      47.849   3.300  16.711  0.00  0.00    +0.000 C 
ATOM     26  F   UNL     1      46.780   2.867  17.433  0.00  0.00    +0.000 F 
ATOM     27  F   UNL     1      47.528   3.091  15.404  0.00  0.00    +0.000 F 
ATOM     28  F   UNL     1      48.865   2.437  16.987  0.00  0.00    +0.000 F 
ENDBRANCH  21  25
BRANCH  19  30
ATOM     29  C   UNL     1      47.448   6.584  20.463  0.00  0.00    +0.000 C 
ATOM     30  O   UNL     1      48.525   7.110  19.690  0.00  0.00    +0.000 OA
ENDBRANCH  19  30
ENDBRANCH  17  23
ENDBRANCH   1  17
TORSDOF 7
ENDMDL
MODEL 7
REMARK VINA RESULT:    -6.900      3.480      5.717
REMARK INTER + INTRA:         -10.763
REMARK INTER:                  -8.407
REMARK INTRA:                  -2.356
REMARK UNBOUND:                -1.039
REMARK  Name = 
REMARK  10 active torsions:
REMARK  status: ('A' for Active; 'I' for Inactive)
REMARK    1  A    between atoms: C_1  and  O_2
REMARK    2  A    between atoms: O_2  and  C_3
REMARK    3  A    between atoms: C_5  and  C_6
REMARK    4  A    between atoms: C_11  and  N_12
REMARK    5  A    between atoms: N_12  and  C_13
REMARK    6  A    between atoms: C_13  and  C_14
REMARK    7  A    between atoms: C_14  and  C_15
REMARK    8  A    between atoms: C_14  and  C_16
REMARK    9  A    between atoms: C_14  and  C_17
REMARK   10  A    between atoms: C_21  and  C_22
REMARK                            x       y       z     vdW  Elec       q    Type
REMARK                         _______ _______ _______ _____ _____    ______ ____
ROOT
ATOM      1  C   UNL     1      46.175   4.176  12.433  0.00  0.00    +0.000 C 
ENDROOT
BRANCH   1   2
ATOM      2  C   UNL     1      45.266   5.291  11.824  0.00  0.00    +0.000 C 
ATOM      3  C   UNL     1      45.193   4.995  10.303  0.00  0.00    +0.000 C 
ATOM      4  C   UNL     1      43.838   5.152  12.402  0.00  0.00    +0.000 C 
BRANCH   2   5
ATOM      5  C   UNL     1      45.810   6.725  12.025  0.00  0.00    +0.000 A 
ATOM      6  C   UNL     1      45.040   7.756  12.585  0.00  0.00    +0.000 A 
ATOM      7  C   UNL     1      45.572   9.027  12.792  0.00  0.00    +0.000 A 
ATOM      8  C   UNL     1      46.898   9.292  12.466  0.00  0.00    +0.000 A 
ATOM      9  C   UNL     1      47.725   8.295  11.929  0.00  0.00    +0.000 A 
ATOM     10  C   UNL     1      47.149   7.029  11.693  0.00  0.00    +0.000 A 
BRANCH   9  11
ATOM     11  C   UNL     1      49.155   8.552  11.665  0.00  0.00    +0.000 A 
ATOM     12  C   UNL     1      50.034   7.563  11.202  0.00  0.00    +0.000 A 
ATOM     13  C   UNL     1      51.379   7.850  10.987  0.00  0.00    +0.000 A 
ATOM     14  C   UNL     1      51.826   9.138  11.231  0.00  0.00    +0.000 A 
ATOM     15  N   UNL     1      51.031  10.132  11.677  0.00  0.00    +0.000 NA
ATOM     16  C   UNL     1      49.729   9.811  11.883  0.00  0.00    +0.000 A 
ENDBRANCH   9  11
ENDBRANCH   2   5
ENDBRANCH   1   2
BRANCH   1  17
ATOM     17  N   UNL     1      45.957   3.983  13.856  0.00  0.00    +0.000 N 
ATOM     18  H   UNL     1      45.010   3.877  14.208  0.00  0.00    +0.000 HD
BRANCH  17  23
ATOM     19  C   UNL     1      47.761   4.071  16.891  0.00  0.00    +0.000 A 
ATOM     20  C   UNL     1      48.580   5.181  16.800  0.00  0.00    +0.000 A 
ATOM     21  C   UNL     1      48.480   5.977  15.660  0.00  0.00    +0.000 A 
ATOM     22  C   UNL     1      47.572   5.602  14.664  0.00  0.00    +0.000 A 
ATOM     23  C   UNL     1      46.802   4.461  14.824  0.00  0.00    +0.000 A 
ATOM     24  N   UNL     1      46.879   3.709  15.935  0.00  0.00    +0.000 NA
BRANCH  21  25
ATOM     25  C   UNL     1      49.329   7.198  15.456  0.00  0.00    +0.000 C 
ATOM     26  F   UNL     1      50.216   7.084  14.431  0.00  0.00    +0.000 F 
ATOM     27  F   UNL     1      48.582   8.304  15.185  0.00  0.00    +0.000 F 
ATOM     28  F   UNL     1      50.064   7.508  16.559  0.00  0.00    +0.000 F 
ENDBRANCH  21  25
BRANCH  19  30
ATOM     29  C   UNL     1      48.722   3.912  19.017  0.00  0.00    +0.000 C 
ATOM     30  O   UNL     1      47.901   3.299  18.026  0.00  0.00    +0.000 OA
ENDBRANCH  19  30
ENDBRANCH  17  23
ENDBRANCH   1  17
TORSDOF 7
ENDMDL
MODEL 8
REMARK VINA RESULT:    -6.781      2.967      5.166
REMARK INTER + INTRA:         -10.595
REMARK INTER:                  -9.100
REMARK INTRA:                  -1.495
REMARK UNBOUND:                -1.039
REMARK  Name = 
REMARK  10 active torsions:
REMARK  status: ('A' for Active; 'I' for Inactive)
REMARK    1  A    between atoms: C_1  and  O_2
REMARK    2  A    between atoms: O_2  and  C_3
REMARK    3  A    between atoms: C_5  and  C_6
REMARK    4  A    between atoms: C_11  and  N_12
REMARK    5  A    between atoms: N_12  and  C_13
REMARK    6  A    between atoms: C_13  and  C_14
REMARK    7  A    between atoms: C_14  and  C_15
REMARK    8  A    between atoms: C_14  and  C_16
REMARK    9  A    between atoms: C_14  and  C_17
REMARK   10  A    between atoms: C_21  and  C_22
REMARK                            x       y       z     vdW  Elec       q    Type
REMARK                         _______ _______ _______ _____ _____    ______ ____
ROOT
ATOM      1  C   UNL     1      50.190   8.697  13.620  0.00  0.00    +0.000 C 
ENDROOT
BRANCH   1   2
ATOM      2  C   UNL     1      49.468   8.587  12.240  0.00  0.00    +0.000 C 
ATOM      3  C   UNL     1      49.595   9.986  11.581  0.00  0.00    +0.000 C 
ATOM      4  C   UNL     1      50.227   7.575  11.350  0.00  0.00    +0.000 C 
BRANCH   2   5
ATOM      5  C   UNL     1      47.968   8.223  12.343  0.00  0.00    +0.000 A 
ATOM      6  C   UNL     1      47.026   9.062  12.957  0.00  0.00    +0.000 A 
ATOM      7  C   UNL     1      45.674   8.726  12.998  0.00  0.00    +0.000 A 
ATOM      8  C   UNL     1      45.227   7.552  12.400  0.00  0.00    +0.000 A 
ATOM      9  C   UNL     1      46.117   6.687  11.748  0.00  0.00    +0.000 A 
ATOM     10  C   UNL     1      47.484   7.032  11.757  0.00  0.00    +0.000 A 
BRANCH   9  11
ATOM     11  C   UNL     1      45.630   5.486  11.039  0.00  0.00    +0.000 A 
ATOM     12  C   UNL     1      45.629   5.374   9.643  0.00  0.00    +0.000 A 
ATOM     13  C   UNL     1      45.141   4.227   9.021  0.00  0.00    +0.000 A 
ATOM     14  C   UNL     1      44.668   3.197   9.816  0.00  0.00    +0.000 A 
ATOM     15  N   UNL     1      44.642   3.245  11.164  0.00  0.00    +0.000 NA
ATOM     16  C   UNL     1      45.118   4.381  11.732  0.00  0.00    +0.000 A 
ENDBRANCH   9  11
ENDBRANCH   2   5
ENDBRANCH   1   2
BRANCH   1  17
ATOM     17  N   UNL     1      50.270   7.427  14.320  0.00  0.00    +0.000 N 
ATOM     18  H   UNL     1      50.467   6.578  13.797  0.00  0.00    +0.000 HD
BRANCH  17  23
ATOM     19  C   UNL     1      48.836   5.509  16.915  0.00  0.00    +0.000 A 
ATOM     20  C   UNL     1      48.394   6.426  17.850  0.00  0.00    +0.000 A 
ATOM     21  C   UNL     1      48.549   7.781  17.562  0.00  0.00    +0.000 A 
ATOM     22  C   UNL     1      49.156   8.139  16.353  0.00  0.00    +0.000 A 
ATOM     23  C   UNL     1      49.589   7.155  15.478  0.00  0.00    +0.000 A 
ATOM     24  N   UNL     1      49.416   5.850  15.744  0.00  0.00    +0.000 NA
BRANCH  21  25
ATOM     25  C   UNL     1      48.114   8.860  18.510  0.00  0.00    +0.000 C 
ATOM     26  F   UNL     1      49.142   9.459  19.169  0.00  0.00    +0.000 F 
ATOM     27  F   UNL     1      47.440   9.859  17.878  0.00  0.00    +0.000 F 
ATOM     28  F   UNL     1      47.270   8.393  19.472  0.00  0.00    +0.000 F 
ENDBRANCH  21  25
BRANCH  19  30
ATOM     29  C   UNL     1      47.706   3.517  16.441  0.00  0.00    +0.000 C 
ATOM     30  O   UNL     1      48.681   4.178  17.244  0.00  0.00    +0.000 OA
ENDBRANCH  19  30
ENDBRANCH  17  23
ENDBRANCH   1  17
TORSDOF 7
ENDMDL
MODEL 9
REMARK VINA RESULT:    -6.751      4.485      8.629
REMARK INTER + INTRA:         -10.553
REMARK INTER:                  -9.086
REMARK INTRA:                  -1.467
REMARK UNBOUND:                -1.039
REMARK  Name = 
REMARK  10 active torsions:
REMARK  status: ('A' for Active; 'I' for Inactive)
REMARK    1  A    between atoms: C_1  and  O_2
REMARK    2  A    between atoms: O_2  and  C_3
REMARK    3  A    between atoms: C_5  and  C_6
REMARK    4  A    between atoms: C_11  and  N_12
REMARK    5  A    between atoms: N_12  and  C_13
REMARK    6  A    between atoms: C_13  and  C_14
REMARK    7  A    between atoms: C_14  and  C_15
REMARK    8  A    between atoms: C_14  and  C_16
REMARK    9  A    between atoms: C_14  and  C_17
REMARK   10  A    between atoms: C_21  and  C_22
REMARK                            x       y       z     vdW  Elec       q    Type
REMARK                         _______ _______ _______ _____ _____    ______ ____
ROOT
ATOM      1  C   UNL     1      48.682   8.392  15.142  0.00  0.00    +0.000 C 
ENDROOT
BRANCH   1   2
ATOM      2  C   UNL     1      49.953   8.212  16.031  0.00  0.00    +0.000 C 
ATOM      3  C   UNL     1      51.082   7.752  15.070  0.00  0.00    +0.000 C 
ATOM      4  C   UNL     1      50.361   9.585  16.615  0.00  0.00    +0.000 C 
BRANCH   2   5
ATOM      5  C   UNL     1      49.794   7.156  17.149  0.00  0.00    +0.000 A 
ATOM      6  C   UNL     1      48.897   7.314  18.217  0.00  0.00    +0.000 A 
ATOM      7  C   UNL     1      48.745   6.325  19.188  0.00  0.00    +0.000 A 
ATOM      8  C   UNL     1      49.470   5.141  19.099  0.00  0.00    +0.000 A 
ATOM      9  C   UNL     1      50.360   4.915  18.041  0.00  0.00    +0.000 A 
ATOM     10  C   UNL     1      50.525   5.948  17.095  0.00  0.00    +0.000 A 
BRANCH   9  11
ATOM     11  C   UNL     1      51.064   3.623  17.900  0.00  0.00    +0.000 A 
ATOM     12  C   UNL     1      52.409   3.447  18.247  0.00  0.00    +0.000 A 
ATOM     13  C   UNL     1      53.033   2.214  18.077  0.00  0.00    +0.000 A 
ATOM     14  C   UNL     1      52.289   1.164  17.566  0.00  0.00    +0.000 A 
ATOM     15  N   UNL     1      50.992   1.270  17.213  0.00  0.00    +0.000 NA
ATOM     16  C   UNL     1      50.422   2.489  17.386  0.00  0.00    +0.000 A 
ENDBRANCH   9  11
ENDBRANCH   2   5
ENDBRANCH   1   2
BRANCH   1  17
ATOM     17  N   UNL     1      48.749   7.642  13.899  0.00  0.00    +0.000 N 
ATOM     18  H   UNL     1      49.124   8.087  13.066  0.00  0.00    +0.000 HD
BRANCH  17  23
ATOM     19  C   UNL     1      46.916   4.649  14.283  0.00  0.00    +0.000 A 
ATOM     20  C   UNL     1      46.082   4.584  13.184  0.00  0.00    +0.000 A 
ATOM     21  C   UNL     1      46.180   5.593  12.227  0.00  0.00    +0.000 A 
ATOM     22  C   UNL     1      47.103   6.623  12.438  0.00  0.00    +0.000 A 
ATOM     23  C   UNL     1      47.889   6.624  13.580  0.00  0.00    +0.000 A 
ATOM     24  N   UNL     1      47.812   5.637  14.488  0.00  0.00    +0.000 NA
BRANCH  21  25
ATOM     25  C   UNL     1      45.316   5.625  11.000  0.00  0.00    +0.000 C 
ATOM     26  F   UNL     1      44.655   4.461  10.763  0.00  0.00    +0.000 F 
ATOM     27  F   UNL     1      44.360   6.593  11.070  0.00  0.00    +0.000 F 
ATOM     28  F   UNL     1      46.030   5.890   9.871  0.00  0.00    +0.000 F 
ENDBRANCH  21  25
BRANCH  19  30
ATOM     29  C   UNL     1      47.151   4.046  16.531  0.00  0.00    +0.000 C 
ATOM     30  O   UNL     1      46.777   3.641  15.216  0.00  0.00    +0.000 OA
ENDBRANCH  19  30
ENDBRANCH  17  23
ENDBRANCH   1  17
TORSDOF 7
ENDMDL
