MODEL 1
REMARK VINA RESULT:    -7.351      0.000      0.000
REMARK INTER + INTRA:         -10.147
REMARK INTER:                  -9.500
REMARK INTRA:                  -0.647
REMARK UNBOUND:                -0.647
REMARK  Name = 
REMARK  6 active torsions:
REMARK  status: ('A' for Active; 'I' for Inactive)
REMARK    1  A    between atoms: C_1  and  O_2
REMARK    2  A    between atoms: O_2  and  C_3
REMARK    3  A    between atoms: C_3  and  C_4
REMARK    4  A    between atoms: C_4  and  N_5
REMARK    5  A    between atoms: C_4  and  C_15
REMARK    6  A    between atoms: C_9  and  C_10
REMARK                            x       y       z     vdW  Elec       q    Type
REMARK                         _______ _______ _______ _____ _____    ______ ____
ROOT
ATOM      1  N   UNL     1      44.102   4.823  10.274  0.00  0.00    +0.000 N 
ATOM      2  C   UNL     1      44.867   4.118   9.356  0.00  0.00    +0.000 A 
ATOM      3  C   UNL     1      44.794   2.728   9.377  0.00  0.00    +0.000 A 
ATOM      4  C   UNL     1      45.633   1.976   8.553  0.00  0.00    +0.000 A 
ATOM      5  C   UNL     1      46.503   2.621   7.678  0.00  0.00    +0.000 A 
ATOM      6  C   UNL     1      46.470   4.007   7.680  0.00  0.00    +0.000 A 
ATOM      7  N   UNL     1      45.690   4.761   8.504  0.00  0.00    +0.000 NA
ATOM      8  H   UNL     1      43.105   4.712  10.144  0.00  0.00    +0.000 HD
ENDROOT
BRANCH   5   9
ATOM      9  C   UNL     1      47.421   1.806   6.844  0.00  0.00    +0.000 C 
ATOM     10  N   UNL     1      48.554   2.387   6.337  0.00  0.00    +0.000 N 
ATOM     11  O   UNL     1      47.186   0.627   6.611  0.00  0.00    +0.000 OA
ATOM     12  H   UNL     1      48.835   3.345   6.450  0.00  0.00    +0.000 HD
ATOM     13  H   UNL     1      49.159   1.783   5.790  0.00  0.00    +0.000 HD
ENDBRANCH   5   9
BRANCH   1  14
ATOM     14  C   UNL     1      44.556   6.144  10.712  0.00  0.00    +0.000 C 
BRANCH  14  15
ATOM     15  C   UNL     1      45.528   5.953  11.882  0.00  0.00    +0.000 A 
ATOM     16  C   UNL     1      45.177   5.093  12.934  0.00  0.00    +0.000 A 
ATOM     17  C   UNL     1      46.095   4.779  13.937  0.00  0.00    +0.000 A 
ATOM     18  C   UNL     1      47.374   5.331  13.908  0.00  0.00    +0.000 A 
ATOM     19  C   UNL     1      47.726   6.216  12.891  0.00  0.00    +0.000 A 
ATOM     20  C   UNL     1      46.809   6.533  11.887  0.00  0.00    +0.000 A 
ENDBRANCH  14  15
BRANCH  14  21
ATOM     21  C   UNL     1      43.429   7.120  11.128  0.00  0.00    +0.000 C 
BRANCH  21  23
ATOM     22  C   UNL     1      43.001   9.429  10.698  0.00  0.00    +0.000 C 
ATOM     23  O   UNL     1      43.952   8.460  11.094  0.00  0.00    +0.000 OA
ENDBRANCH  21  23
ENDBRANCH  14  21
ENDBRANCH   1  14
TORSDOF 5
ENDMDL
MODEL 2
REMARK VINA RESULT:    -6.748      2.879      6.440
REMARK INTER + INTRA:          -9.368
REMARK INTER:                  -8.683
REMARK INTRA:                  -0.685
REMARK UNBOUND:                -0.647
REMARK  Name = 
REMARK  6 active torsions:
REMARK  status: ('A' for Active; 'I' for Inactive)
REMARK    1  A    between atoms: C_1  and  O_2
REMARK    2  A    between atoms: O_2  and  C_3
REMARK    3  A    between atoms: C_3  and  C_4
REMARK    4  A    between atoms: C_4  and  N_5
REMARK    5  A    between atoms: C_4  and  C_15
REMARK    6  A    between atoms: C_9  and  C_10
REMARK                            x       y       z     vdW  Elec       q    Type
REMARK                         _______ _______ _______ _____ _____    ______ ____
ROOT
ATOM      1  N   UNL     1      45.634   5.564  10.424  0.00  0.00    +0.000 N 
ATOM      2  C   UNL     1      46.302   5.840  11.609  0.00  0.00    +0.000 A 
ATOM      3  C   UNL     1      47.379   6.721  11.561  0.00  0.00    +0.000 A 
ATOM      4  C   UNL     1      48.151   6.936  12.704  0.00  0.00    +0.000 A 
ATOM      5  C   UNL     1      47.809   6.308  13.899  0.00  0.00    +0.000 A 
ATOM      6  C   UNL     1      46.687   5.493  13.872  0.00  0.00    +0.000 A 
ATOM      7  N   UNL     1      45.944   5.236  12.759  0.00  0.00    +0.000 NA
ATOM      8  H   UNL     1      45.169   6.367  10.022  0.00  0.00    +0.000 HD
ENDROOT
BRANCH   5   9
ATOM      9  C   UNL     1      48.669   6.511  15.091  0.00  0.00    +0.000 C 
ATOM     10  N   UNL     1      48.128   6.345  16.339  0.00  0.00    +0.000 N 
ATOM     11  O   UNL     1      49.849   6.815  14.976  0.00  0.00    +0.000 OA
ATOM     12  H   UNL     1      47.172   6.114  16.550  0.00  0.00    +0.000 HD
ATOM     13  H   UNL     1      48.761   6.476  17.121  0.00  0.00    +0.000 HD
ENDBRANCH   5   9
BRANCH   1  14
ATOM     14  C   UNL     1      44.954   4.277  10.275  0.00  0.00    +0.000 C 
BRANCH  14  15
ATOM     15  C   UNL     1      45.545   3.559   9.057  0.00  0.00    +0.000 A 
ATOM     16  C   UNL     1      46.135   4.316   8.032  0.00  0.00    +0.000 A 
ATOM     17  C   UNL     1      46.815   3.692   6.985  0.00  0.00    +0.000 A 
ATOM     18  C   UNL     1      46.905   2.303   6.942  0.00  0.00    +0.000 A 
ATOM     19  C   UNL     1      46.293   1.536   7.931  0.00  0.00    +0.000 A 
ATOM     20  C   UNL     1      45.611   2.156   8.979  0.00  0.00    +0.000 A 
ENDBRANCH  14  15
BRANCH  14  21
ATOM     21  C   UNL     1      43.415   4.363  10.130  0.00  0.00    +0.000 C 
BRANCH  21  23
ATOM     22  C   UNL     1      43.375   2.770  11.909  0.00  0.00    +0.000 C 
ATOM     23  O   UNL     1      42.817   3.954  11.374  0.00  0.00    +0.000 OA
ENDBRANCH  21  23
ENDBRANCH  14  21
ENDBRANCH   1  14
TORSDOF 5
ENDMDL
MODEL 3
REMARK VINA RESULT:    -5.659      4.937      7.996
REMARK INTER + INTRA:          -7.960
REMARK INTER:                  -7.564
REMARK INTRA:                  -0.396
REMARK UNBOUND:                -0.647
REMARK  Name = 
REMARK  6 active torsions:
REMARK  status: ('A' for Active; 'I' for Inactive)
REMARK    1  A    between atoms: C_1  and  O_2
REMARK    2  A    between atoms: O_2  and  C_3
REMARK    3  A    between atoms: C_3  and  C_4
REMARK    4  A    between atoms: C_4  and  N_5
REMARK    5  A    between atoms: C_4  and  C_15
REMARK    6  A    between atoms: C_9  and  C_10
REMARK                            x       y       z     vdW  Elec       q    Type
REMARK                         _______ _______ _______ _____ _____    ______ ____
ROOT
ATOM      1  N   UNL     1      46.901   3.985  14.616  0.00  0.00    +0.000 N 
ATOM      2  C   UNL     1      47.556   4.186  15.824  0.00  0.00    +0.000 A 
ATOM      3  C   UNL     1      47.476   3.181  16.784  0.00  0.00    +0.000 A 
ATOM      4  C   UNL     1      48.018   3.389  18.053  0.00  0.00    +0.000 A 
ATOM      5  C   UNL     1      48.681   4.582  18.336  0.00  0.00    +0.000 A 
ATOM      6  C   UNL     1      48.765   5.504  17.304  0.00  0.00    +0.000 A 
ATOM      7  N   UNL     1      48.208   5.339  16.071  0.00  0.00    +0.000 NA
ATOM      8  H   UNL     1      47.272   3.215  14.076  0.00  0.00    +0.000 HD
ENDROOT
BRANCH   5   9
ATOM      9  C   UNL     1      49.209   4.805  19.704  0.00  0.00    +0.000 C 
ATOM     10  N   UNL     1      48.748   4.027  20.733  0.00  0.00    +0.000 N 
ATOM     11  O   UNL     1      50.053   5.665  19.924  0.00  0.00    +0.000 OA
ATOM     12  H   UNL     1      48.048   3.307  20.669  0.00  0.00    +0.000 HD
ATOM     13  H   UNL     1      49.155   4.205  21.645  0.00  0.00    +0.000 HD
ENDBRANCH   5   9
BRANCH   1  14
ATOM     14  C   UNL     1      46.438   5.147  13.857  0.00  0.00    +0.000 C 
BRANCH  14  15
ATOM     15  C   UNL     1      45.189   4.738  13.068  0.00  0.00    +0.000 A 
ATOM     16  C   UNL     1      44.154   5.670  12.889  0.00  0.00    +0.000 A 
ATOM     17  C   UNL     1      43.075   5.386  12.052  0.00  0.00    +0.000 A 
ATOM     18  C   UNL     1      43.009   4.161  11.391  0.00  0.00    +0.000 A 
ATOM     19  C   UNL     1      44.009   3.211  11.587  0.00  0.00    +0.000 A 
ATOM     20  C   UNL     1      45.090   3.492  12.425  0.00  0.00    +0.000 A 
ENDBRANCH  14  15
BRANCH  14  21
ATOM     21  C   UNL     1      47.483   5.760  12.895  0.00  0.00    +0.000 C 
BRANCH  21  23
ATOM     22  C   UNL     1      47.093   8.007  12.186  0.00  0.00    +0.000 C 
ATOM     23  O   UNL     1      47.611   7.162  13.195  0.00  0.00    +0.000 OA
ENDBRANCH  21  23
ENDBRANCH  14  21
ENDBRANCH   1  14
TORSDOF 5
ENDMDL
MODEL 4
REMARK VINA RESULT:    -5.462      3.134      4.486
REMARK INTER + INTRA:          -7.705
REMARK INTER:                  -7.023
REMARK INTRA:                  -0.683
REMARK UNBOUND:                -0.647
REMARK  Name = 
REMARK  6 active torsions:
REMARK  status: ('A' for Active; 'I' for Inactive)
REMARK    1  A    between atoms: C_1  and  O_2
REMARK    2  A    between atoms: O_2  and  C_3
REMARK    3  A    between atoms: C_3  and  C_4
REMARK    4  A    between atoms: C_4  and  N_5
REMARK    5  A    between atoms: C_4  and  C_15
REMARK    6  A    between atoms: C_9  and  C_10
REMARK                            x       y       z     vdW  Elec       q    Type
REMARK                         _______ _______ _______ _____ _____    ______ ____
ROOT
ATOM      1  N   UNL     1      46.006   7.534  13.148  0.00  0.00    +0.000 N 
ATOM      2  C   UNL     1      45.390   6.406  12.625  0.00  0.00    +0.000 A 
ATOM      3  C   UNL     1      45.342   5.262  13.418  0.00  0.00    +0.000 A 
ATOM      4  C   UNL     1      44.838   4.073  12.890  0.00  0.00    +0.000 A 
ATOM      5  C   UNL     1      44.340   4.049  11.589  0.00  0.00    +0.000 A 
ATOM      6  C   UNL     1      44.372   5.246  10.890  0.00  0.00    +0.000 A 
ATOM      7  N   UNL     1      44.897   6.408  11.371  0.00  0.00    +0.000 NA
ATOM      8  H   UNL     1      45.535   7.917  13.956  0.00  0.00    +0.000 HD
ENDROOT
BRANCH   5   9
ATOM      9  C   UNL     1      43.852   2.764  11.028  0.00  0.00    +0.000 C 
ATOM     10  N   UNL     1      44.468   2.243   9.921  0.00  0.00    +0.000 N 
ATOM     11  O   UNL     1      42.917   2.163  11.543  0.00  0.00    +0.000 OA
ATOM     12  H   UNL     1      45.229   2.658   9.411  0.00  0.00    +0.000 HD
ATOM     13  H   UNL     1      44.111   1.354   9.589  0.00  0.00    +0.000 HD
ENDBRANCH   5   9
BRANCH   1  14
ATOM     14  C   UNL     1      46.615   8.500  12.233  0.00  0.00    +0.000 C 
BRANCH  14  15
ATOM     15  C   UNL     1      48.137   8.419  12.391  0.00  0.00    +0.000 A 
ATOM     16  C   UNL     1      48.960   9.089  11.471  0.00  0.00    +0.000 A 
ATOM     17  C   UNL     1      50.339   9.163  11.670  0.00  0.00    +0.000 A 
ATOM     18  C   UNL     1      50.916   8.559  12.785  0.00  0.00    +0.000 A 
ATOM     19  C   UNL     1      50.119   7.859  13.686  0.00  0.00    +0.000 A 
ATOM     20  C   UNL     1      48.739   7.781  13.490  0.00  0.00    +0.000 A 
ENDBRANCH  14  15
BRANCH  14  21
ATOM     21  C   UNL     1      46.150   9.965  12.422  0.00  0.00    +0.000 C 
BRANCH  21  23
ATOM     22  C   UNL     1      44.164   9.950  11.096  0.00  0.00    +0.000 C 
ATOM     23  O   UNL     1      44.711   9.992  12.400  0.00  0.00    +0.000 OA
ENDBRANCH  21  23
ENDBRANCH  14  21
ENDBRANCH   1  14
TORSDOF 5
ENDMDL
MODEL 5
REMARK VINA RESULT:    -5.431      2.651      4.070
REMARK INTER + INTRA:          -7.665
REMARK INTER:                  -7.080
REMARK INTRA:                  -0.585
REMARK UNBOUND:                -0.647
REMARK  Name = 
REMARK  6 active torsions:
REMARK  status: ('A' for Active; 'I' for Inactive)
REMARK    1  A    between atoms: C_1  and  O_2
REMARK    2  A    between atoms: O_2  and  C_3
REMARK    3  A    between atoms: C_3  and  C_4
REMARK    4  A    between atoms: C_4  and  N_5
REMARK    5  A    between atoms: C_4  and  C_15
REMARK    6  A    between atoms: C_9  and  C_10
REMARK                            x       y       z     vdW  Elec       q    Type
REMARK                         _______ _______ _______ _____ _____    ______ ____
ROOT
ATOM      1  N   UNL     1      46.400   6.330  13.636  0.00  0.00    +0.000 N 
ATOM      2  C   UNL     1      45.890   5.620  12.558  0.00  0.00    +0.000 A 
ATOM      3  C   UNL     1      45.301   4.384  12.811  0.00  0.00    +0.000 A 
ATOM      4  C   UNL     1      44.881   3.584  11.747  0.00  0.00    +0.000 A 
ATOM      5  C   UNL     1      45.008   4.048  10.440  0.00  0.00    +0.000 A 
ATOM      6  C   UNL     1      45.551   5.314  10.281  0.00  0.00    +0.000 A 
ATOM      7  N   UNL     1      46.005   6.094  11.302  0.00  0.00    +0.000 NA
ATOM      8  H   UNL     1      45.697   6.619  14.302  0.00  0.00    +0.000 HD
ENDROOT
BRANCH   5   9
ATOM      9  C   UNL     1      44.600   3.165   9.320  0.00  0.00    +0.000 C 
ATOM     10  N   UNL     1      44.235   3.728   8.125  0.00  0.00    +0.000 N 
ATOM     11  O   UNL     1      44.593   1.946   9.444  0.00  0.00    +0.000 OA
ATOM     12  H   UNL     1      44.187   4.711   7.919  0.00  0.00    +0.000 HD
ATOM     13  H   UNL     1      43.984   3.082   7.385  0.00  0.00    +0.000 HD
ENDBRANCH   5   9
BRANCH   1  14
ATOM     14  C   UNL     1      47.506   7.262  13.412  0.00  0.00    +0.000 C 
BRANCH  14  15
ATOM     15  C   UNL     1      48.611   6.949  14.427  0.00  0.00    +0.000 A 
ATOM     16  C   UNL     1      49.861   7.576  14.298  0.00  0.00    +0.000 A 
ATOM     17  C   UNL     1      50.837   7.432  15.284  0.00  0.00    +0.000 A 
ATOM     18  C   UNL     1      50.582   6.650  16.409  0.00  0.00    +0.000 A 
ATOM     19  C   UNL     1      49.361   5.990  16.534  0.00  0.00    +0.000 A 
ATOM     20  C   UNL     1      48.383   6.131  15.548  0.00  0.00    +0.000 A 
ENDBRANCH  14  15
BRANCH  14  21
ATOM     21  C   UNL     1      47.128   8.760  13.503  0.00  0.00    +0.000 C 
BRANCH  21  23
ATOM     22  C   UNL     1      45.387   9.631  12.120  0.00  0.00    +0.000 C 
ATOM     23  O   UNL     1      45.712   8.887  13.278  0.00  0.00    +0.000 OA
ENDBRANCH  21  23
ENDBRANCH  14  21
ENDBRANCH   1  14
TORSDOF 5
ENDMDL
MODEL 6
REMARK VINA RESULT:    -5.316      2.039      2.973
REMARK INTER + INTRA:          -7.516
REMARK INTER:                  -6.844
REMARK INTRA:                  -0.672
REMARK UNBOUND:                -0.647
REMARK  Name = 
REMARK  6 active torsions:
REMARK  status: ('A' for Active; 'I' for Inactive)
REMARK    1  A    between atoms: C_1  and  O_2
REMARK    2  A    between atoms: O_2  and  C_3
REMARK    3  A    between atoms: C_3  and  C_4
REMARK    4  A    between atoms: C_4  and  N_5
REMARK    5  A    between atoms: C_4  and  C_15
REMARK    6  A    between atoms: C_9  and  C_10
REMARK                            x       y       z     vdW  Elec       q    Type
REMARK                         _______ _______ _______ _____ _____    ______ ____
ROOT
ATOM      1  N   UNL     1      45.105   6.543  12.512  0.00  0.00    +0.000 N 
ATOM      2  C   UNL     1      45.046   5.500  11.599  0.00  0.00    +0.000 A 
ATOM      3  C   UNL     1      44.857   4.211  12.092  0.00  0.00    +0.000 A 
ATOM      4  C   UNL     1      44.909   3.121  11.223  0.00  0.00    +0.000 A 
ATOM      5  C   UNL     1      45.098   3.331   9.859  0.00  0.00    +0.000 A 
ATOM      6  C   UNL     1      45.219   4.649   9.445  0.00  0.00    +0.000 A 
ATOM      7  N   UNL     1      45.213   5.725  10.281  0.00  0.00    +0.000 NA
ATOM      8  H   UNL     1      44.244   6.689  13.020  0.00  0.00    +0.000 HD
ENDROOT
BRANCH   5   9
ATOM      9  C   UNL     1      45.198   2.157   8.956  0.00  0.00    +0.000 C 
ATOM     10  N   UNL     1      46.253   2.072   8.087  0.00  0.00    +0.000 N 
ATOM     11  O   UNL     1      44.359   1.265   8.983  0.00  0.00    +0.000 OA
ATOM     12  H   UNL     1      46.986   2.751   7.969  0.00  0.00    +0.000 HD
ATOM     13  H   UNL     1      46.287   1.242   7.505  0.00  0.00    +0.000 HD
ENDBRANCH   5   9
BRANCH   1  14
ATOM     14  C   UNL     1      45.869   7.744  12.170  0.00  0.00    +0.000 C 
BRANCH  14  15
ATOM     15  C   UNL     1      47.323   7.529  12.605  0.00  0.00    +0.000 A 
ATOM     16  C   UNL     1      48.359   7.807  11.700  0.00  0.00    +0.000 A 
ATOM     17  C   UNL     1      49.693   7.768  12.107  0.00  0.00    +0.000 A 
ATOM     18  C   UNL     1      50.010   7.439  13.423  0.00  0.00    +0.000 A 
ATOM     19  C   UNL     1      48.996   7.123  14.324  0.00  0.00    +0.000 A 
ATOM     20  C   UNL     1      47.660   7.160  13.919  0.00  0.00    +0.000 A 
ENDBRANCH  14  15
BRANCH  14  21
ATOM     21  C   UNL     1      45.332   9.059  12.785  0.00  0.00    +0.000 C 
BRANCH  21  23
ATOM     22  C   UNL     1      44.047   9.622  10.853  0.00  0.00    +0.000 C 
ATOM     23  O   UNL     1      45.099   9.998  11.720  0.00  0.00    +0.000 OA
ENDBRANCH  21  23
ENDBRANCH  14  21
ENDBRANCH   1  14
TORSDOF 5
ENDMDL
MODEL 7
REMARK VINA RESULT:    -5.293      4.440      6.762
REMARK INTER + INTRA:          -7.487
REMARK INTER:                  -6.912
REMARK INTRA:                  -0.575
REMARK UNBOUND:                -0.647
REMARK  Name = 
REMARK  6 active torsions:
REMARK  status: ('A' for Active; 'I' for Inactive)
REMARK    1  A    between atoms: C_1  and  O_2
REMARK    2  A    between atoms: O_2  and  C_3
REMARK    3  A    between atoms: C_3  and  C_4
REMARK    4  A    between atoms: C_4  and  N_5
REMARK    5  A    between atoms: C_4  and  C_15
REMARK    6  A    between atoms: C_9  and  C_10
REMARK                            x       y       z     vdW  Elec       q    Type
REMARK                         _______ _______ _______ _____ _____    ______ ____
ROOT
ATOM      1  N   UNL     1      46.805   6.127  13.985  0.00  0.00    +0.000 N 
ATOM      2  C   UNL     1      47.515   7.134  13.348  0.00  0.00    +0.000 A 
ATOM      3  C   UNL     1      47.087   8.447  13.526  0.00  0.00    +0.000 A 
ATOM      4  C   UNL     1      47.698   9.479  12.812  0.00  0.00    +0.000 A 
ATOM      5  C   UNL     1      48.766   9.196  11.964  0.00  0.00    +0.000 A 
ATOM      6  C   UNL     1      49.166   7.871  11.891  0.00  0.00    +0.000 A 
ATOM      7  N   UNL     1      48.558   6.842  12.546  0.00  0.00    +0.000 NA
ATOM      8  H   UNL     1      46.846   6.175  14.994  0.00  0.00    +0.000 HD
ENDROOT
BRANCH   5   9
ATOM      9  C   UNL     1      49.373  10.299  11.177  0.00  0.00    +0.000 C 
ATOM     10  N   UNL     1      48.553  11.186  10.530  0.00  0.00    +0.000 N 
ATOM     11  O   UNL     1      50.588  10.432  11.106  0.00  0.00    +0.000 OA
ATOM     12  H   UNL     1      47.548  11.162  10.506  0.00  0.00    +0.000 HD
ATOM     13  H   UNL     1      49.016  11.932  10.022  0.00  0.00    +0.000 HD
ENDBRANCH   5   9
BRANCH   1  14
ATOM     14  C   UNL     1      46.793   4.786  13.399  0.00  0.00    +0.000 C 
BRANCH  14  15
ATOM     15  C   UNL     1      45.394   4.522  12.832  0.00  0.00    +0.000 A 
ATOM     16  C   UNL     1      44.422   5.533  12.900  0.00  0.00    +0.000 A 
ATOM     17  C   UNL     1      43.190   5.384  12.263  0.00  0.00    +0.000 A 
ATOM     18  C   UNL     1      42.907   4.216  11.558  0.00  0.00    +0.000 A 
ATOM     19  C   UNL     1      43.845   3.187  11.513  0.00  0.00    +0.000 A 
ATOM     20  C   UNL     1      45.078   3.333  12.150  0.00  0.00    +0.000 A 
ENDBRANCH  14  15
BRANCH  14  21
ATOM     21  C   UNL     1      47.184   3.644  14.368  0.00  0.00    +0.000 C 
BRANCH  21  23
ATOM     22  C   UNL     1      47.551   3.546  16.725  0.00  0.00    +0.000 C 
ATOM     23  O   UNL     1      46.699   3.975  15.682  0.00  0.00    +0.000 OA
ENDBRANCH  21  23
ENDBRANCH  14  21
ENDBRANCH   1  14
TORSDOF 5
ENDMDL
MODEL 8
REMARK VINA RESULT:    -5.158      4.741      7.263
REMARK INTER + INTRA:          -7.313
REMARK INTER:                  -6.718
REMARK INTRA:                  -0.595
REMARK UNBOUND:                -0.647
REMARK  Name = 
REMARK  6 active torsions:
REMARK  status: ('A' for Active; 'I' for Inactive)
REMARK    1  A    between atoms: C_1  and  O_2
REMARK    2  A    between atoms: O_2  and  C_3
REMARK    3  A    between atoms: C_3  and  C_4
REMARK    4  A    between atoms: C_4  and  N_5
REMARK    5  A    between atoms: C_4  and  C_15
REMARK    6  A    between atoms: C_9  and  C_10
REMARK                            x       y       z     vdW  Elec       q    Type
REMARK                         _______ _______ _______ _____ _____    ______ ____
ROOT
ATOM      1  N   UNL     1      48.204   5.457  15.962  0.00  0.00    +0.000 N 
ATOM      2  C   UNL     1      47.491   5.366  14.775  0.00  0.00    +0.000 A 
ATOM      3  C   UNL     1      47.717   6.338  13.803  0.00  0.00    +0.000 A 
ATOM      4  C   UNL     1      46.940   6.354  12.644  0.00  0.00    +0.000 A 
ATOM      5  C   UNL     1      45.977   5.368  12.442  0.00  0.00    +0.000 A 
ATOM      6  C   UNL     1      45.859   4.404  13.433  0.00  0.00    +0.000 A 
ATOM      7  N   UNL     1      46.578   4.393  14.590  0.00  0.00    +0.000 NA
ATOM      8  H   UNL     1      49.202   5.343  15.848  0.00  0.00    +0.000 HD
ENDROOT
BRANCH   5   9
ATOM      9  C   UNL     1      45.128   5.428  11.227  0.00  0.00    +0.000 C 
ATOM     10  N   UNL     1      44.673   6.644  10.790  0.00  0.00    +0.000 N 
ATOM     11  O   UNL     1      44.837   4.412  10.607  0.00  0.00    +0.000 OA
ATOM     12  H   UNL     1      44.835   7.534  11.229  0.00  0.00    +0.000 HD
ATOM     13  H   UNL     1      44.113   6.634   9.945  0.00  0.00    +0.000 HD
ENDBRANCH   5   9
BRANCH   1  14
ATOM     14  C   UNL     1      47.622   4.899  17.183  0.00  0.00    +0.000 C 
BRANCH  14  15
ATOM     15  C   UNL     1      47.809   5.917  18.314  0.00  0.00    +0.000 A 
ATOM     16  C   UNL     1      48.300   7.198  18.011  0.00  0.00    +0.000 A 
ATOM     17  C   UNL     1      48.341   8.195  18.985  0.00  0.00    +0.000 A 
ATOM     18  C   UNL     1      47.901   7.924  20.279  0.00  0.00    +0.000 A 
ATOM     19  C   UNL     1      47.447   6.649  20.605  0.00  0.00    +0.000 A 
ATOM     20  C   UNL     1      47.406   5.648  19.633  0.00  0.00    +0.000 A 
ENDBRANCH  14  15
BRANCH  14  21
ATOM     21  C   UNL     1      48.200   3.530  17.618  0.00  0.00    +0.000 C 
BRANCH  21  23
ATOM     22  C   UNL     1      50.567   3.219  17.580  0.00  0.00    +0.000 C 
ATOM     23  O   UNL     1      49.371   3.258  16.826  0.00  0.00    +0.000 OA
ENDBRANCH  21  23
ENDBRANCH  14  21
ENDBRANCH   1  14
TORSDOF 5
ENDMDL
MODEL 9
REMARK VINA RESULT:    -4.926      2.721      4.479
REMARK INTER + INTRA:          -7.013
REMARK INTER:                  -7.298
REMARK INTRA:                   0.285
REMARK UNBOUND:                -0.647
REMARK  Name = 
REMARK  6 active torsions:
REMARK  status: ('A' for Active; 'I' for Inactive)
REMARK    1  A    between atoms: C_1  and  O_2
REMARK    2  A    between atoms: O_2  and  C_3
REMARK    3  A    between atoms: C_3  and  C_4
REMARK    4  A    between atoms: C_4  and  N_5
REMARK    5  A    between atoms: C_4  and  C_15
REMARK    6  A    between atoms: C_9  and  C_10
REMARK                            x       y       z     vdW  Elec       q    Type
REMARK                         _______ _______ _______ _____ _____    ______ ____
ROOT
ATOM      1  N   UNL     1      44.876   7.004  12.939  0.00  0.00    +0.000 N 
ATOM      2  C   UNL     1      44.759   6.105  11.887  0.00  0.00    +0.000 A 
ATOM      3  C   UNL     1      43.705   5.196  11.922  0.00  0.00    +0.000 A 
ATOM      4  C   UNL     1      43.616   4.200  10.948  0.00  0.00    +0.000 A 
ATOM      5  C   UNL     1      44.553   4.152   9.919  0.00  0.00    +0.000 A 
ATOM      6  C   UNL     1      45.535   5.132   9.928  0.00  0.00    +0.000 A 
ATOM      7  N   UNL     1      45.665   6.087  10.890  0.00  0.00    +0.000 NA
ATOM      8  H   UNL     1      44.104   7.653  13.008  0.00  0.00    +0.000 HD
ENDROOT
BRANCH   5   9
ATOM      9  C   UNL     1      44.471   3.058   8.920  0.00  0.00    +0.000 C 
ATOM     10  N   UNL     1      44.439   3.373   7.586  0.00  0.00    +0.000 N 
ATOM     11  O   UNL     1      44.439   1.884   9.267  0.00  0.00    +0.000 OA
ATOM     12  H   UNL     1      44.442   4.298   7.192  0.00  0.00    +0.000 HD
ATOM     13  H   UNL     1      44.402   2.590   6.944  0.00  0.00    +0.000 HD
ENDBRANCH   5   9
BRANCH   1  14
ATOM     14  C   UNL     1      46.199   7.529  13.279  0.00  0.00    +0.000 C 
BRANCH  14  15
ATOM     15  C   UNL     1      46.352   8.907  12.626  0.00  0.00    +0.000 A 
ATOM     16  C   UNL     1      47.633   9.364  12.277  0.00  0.00    +0.000 A 
ATOM     17  C   UNL     1      47.797  10.541  11.547  0.00  0.00    +0.000 A 
ATOM     18  C   UNL     1      46.683  11.286  11.165  0.00  0.00    +0.000 A 
ATOM     19  C   UNL     1      45.407  10.867  11.536  0.00  0.00    +0.000 A 
ATOM     20  C   UNL     1      45.240   9.689  12.268  0.00  0.00    +0.000 A 
ENDBRANCH  14  15
BRANCH  14  21
ATOM     21  C   UNL     1      47.387   6.626  12.869  0.00  0.00    +0.000 C 
BRANCH  21  23
ATOM     22  C   UNL     1      47.126   4.785  14.368  0.00  0.00    +0.000 C 
ATOM     23  O   UNL     1      47.868   5.945  14.043  0.00  0.00    +0.000 OA
ENDBRANCH  21  23
ENDBRANCH  14  21
ENDBRANCH   1  14
TORSDOF 5
ENDMDL
