MODEL 1
REMARK VINA RESULT:    -7.562      0.000      0.000
REMARK INTER + INTRA:         -10.067
REMARK INTER:                  -9.330
REMARK INTRA:                  -0.737
REMARK UNBOUND:                -0.737
REMARK  Name = 
REMARK  5 active torsions:
REMARK  status: ('A' for Active; 'I' for Inactive)
REMARK    1  A    between atoms: C_1  and  C_2
REMARK    2  A    between atoms: C_4  and  C_5
REMARK    3  A    between atoms: N_10  and  C_11
REMARK    4  A    between atoms: C_11  and  C_12
REMARK    5  A    between atoms: C_16  and  C_17
REMARK                            x       y       z     vdW  Elec       q    Type
REMARK                         _______ _______ _______ _____ _____    ______ ____
ROOT
ATOM      1  C   UNL     1      48.273   5.176  20.745  0.00  0.00    +0.000 C 
ATOM      2  C   UNL     1      48.683   4.933  19.324  0.00  0.00    +0.000 A 
ATOM      3  C   UNL     1      49.096   3.695  18.906  0.00  0.00    +0.000 A 
ATOM      4  C   UNL     1      49.429   3.612  17.576  0.00  0.00    +0.000 A 
ATOM      5  N   UNL     1      49.357   4.644  16.692  0.00  0.00    +0.000 NA
ATOM      6  C   UNL     1      48.919   5.802  17.190  0.00  0.00    +0.000 A 
ATOM      7  N   UNL     1      48.697   6.901  16.377  0.00  0.00    +0.000 N 
ATOM      8  N   UNL     1      48.601   5.986  18.480  0.00  0.00    +0.000 NA
ATOM      9  H   UNL     1      48.603   7.713  16.977  0.00  0.00    +0.000 HD
ENDROOT
BRANCH   4  10
ATOM     10  C   UNL     1      49.891   2.296  17.033  0.00  0.00    +0.000 C 
ATOM     11  N   UNL     1      50.918   1.704  17.713  0.00  0.00    +0.000 N 
ATOM     12  O   UNL     1      49.388   1.777  16.042  0.00  0.00    +0.000 OA
ATOM     13  H   UNL     1      51.338   2.179  18.504  0.00  0.00    +0.000 HD
ATOM     14  H   UNL     1      51.296   0.828  17.382  0.00  0.00    +0.000 HD
ENDBRANCH   4  10
BRANCH   7  15
ATOM     15  C   UNL     1      49.556   7.062  15.229  0.00  0.00    +0.000 C 
BRANCH  15  16
ATOM     16  C   UNL     1      48.733   7.032  13.955  0.00  0.00    +0.000 A 
ATOM     17  C   UNL     1      49.146   7.693  12.793  0.00  0.00    +0.000 A 
ATOM     18  C   UNL     1      48.391   7.599  11.622  0.00  0.00    +0.000 A 
ATOM     19  C   UNL     1      47.217   6.843  11.599  0.00  0.00    +0.000 A 
ATOM     20  C   UNL     1      46.766   6.166  12.744  0.00  0.00    +0.000 A 
ATOM     21  C   UNL     1      47.532   6.302  13.920  0.00  0.00    +0.000 A 
BRANCH  20  22
ATOM     22  C   UNL     1      45.562   5.311  12.716  0.00  0.00    +0.000 A 
ATOM     23  C   UNL     1      44.270   5.835  12.870  0.00  0.00    +0.000 A 
ATOM     24  C   UNL     1      43.158   4.996  12.879  0.00  0.00    +0.000 A 
ATOM     25  C   UNL     1      43.359   3.637  12.718  0.00  0.00    +0.000 A 
ATOM     26  N   UNL     1      44.574   3.077  12.563  0.00  0.00    +0.000 NA
ATOM     27  C   UNL     1      45.635   3.922  12.572  0.00  0.00    +0.000 A 
ENDBRANCH  20  22
ENDBRANCH  15  16
ENDBRANCH   7  15
TORSDOF 4
ENDMDL
MODEL 2
REMARK VINA RESULT:    -7.375      2.182      2.663
REMARK INTER + INTRA:          -9.836
REMARK INTER:                  -9.145
REMARK INTRA:                  -0.691
REMARK UNBOUND:                -0.737
REMARK  Name = 
REMARK  5 active torsions:
REMARK  status: ('A' for Active; 'I' for Inactive)
REMARK    1  A    between atoms: C_1  and  C_2
REMARK    2  A    between atoms: C_4  and  C_5
REMARK    3  A    between atoms: N_10  and  C_11
REMARK    4  A    between atoms: C_11  and  C_12
REMARK    5  A    between atoms: C_16  and  C_17
REMARK                            x       y       z     vdW  Elec       q    Type
REMARK                         _______ _______ _______ _____ _____    ______ ____
ROOT
ATOM      1  C   UNL     1      49.722   6.975  19.284  0.00  0.00    +0.000 C 
ATOM      2  C   UNL     1      49.189   6.431  17.994  0.00  0.00    +0.000 A 
ATOM      3  C   UNL     1      48.726   5.144  17.904  0.00  0.00    +0.000 A 
ATOM      4  C   UNL     1      48.253   4.782  16.665  0.00  0.00    +0.000 A 
ATOM      5  N   UNL     1      48.211   5.602  15.580  0.00  0.00    +0.000 NA
ATOM      6  C   UNL     1      48.661   6.843  15.776  0.00  0.00    +0.000 A 
ATOM      7  N   UNL     1      48.574   7.808  14.787  0.00  0.00    +0.000 N 
ATOM      8  N   UNL     1      49.168   7.277  16.939  0.00  0.00    +0.000 NA
ATOM      9  H   UNL     1      49.174   8.580  15.057  0.00  0.00    +0.000 HD
ENDROOT
BRANCH   4  10
ATOM     10  C   UNL     1      47.727   3.393  16.476  0.00  0.00    +0.000 C 
ATOM     11  N   UNL     1      47.010   2.886  17.522  0.00  0.00    +0.000 N 
ATOM     12  O   UNL     1      47.925   2.745  15.454  0.00  0.00    +0.000 OA
ATOM     13  H   UNL     1      46.900   3.431  18.370  0.00  0.00    +0.000 HD
ATOM     14  H   UNL     1      46.652   1.943  17.471  0.00  0.00    +0.000 HD
ENDBRANCH   4  10
BRANCH   7  15
ATOM     15  C   UNL     1      48.691   7.369  13.418  0.00  0.00    +0.000 C 
BRANCH  15  16
ATOM     16  C   UNL     1      47.328   7.376  12.751  0.00  0.00    +0.000 A 
ATOM     17  C   UNL     1      46.485   8.492  12.805  0.00  0.00    +0.000 A 
ATOM     18  C   UNL     1      45.260   8.485  12.134  0.00  0.00    +0.000 A 
ATOM     19  C   UNL     1      44.866   7.363  11.401  0.00  0.00    +0.000 A 
ATOM     20  C   UNL     1      45.681   6.221  11.323  0.00  0.00    +0.000 A 
ATOM     21  C   UNL     1      46.898   6.246  12.034  0.00  0.00    +0.000 A 
BRANCH  20  22
ATOM     22  C   UNL     1      45.304   5.055  10.500  0.00  0.00    +0.000 A 
ATOM     23  C   UNL     1      45.620   4.970   9.136  0.00  0.00    +0.000 A 
ATOM     24  C   UNL     1      45.214   3.874   8.377  0.00  0.00    +0.000 A 
ATOM     25  C   UNL     1      44.507   2.866   9.006  0.00  0.00    +0.000 A 
ATOM     26  N   UNL     1      44.178   2.890  10.313  0.00  0.00    +0.000 NA
ATOM     27  C   UNL     1      44.577   3.978  11.017  0.00  0.00    +0.000 A 
ENDBRANCH  20  22
ENDBRANCH  15  16
ENDBRANCH   7  15
TORSDOF 4
ENDMDL
MODEL 3
REMARK VINA RESULT:    -7.039      2.845      7.071
REMARK INTER + INTRA:          -9.422
REMARK INTER:                  -8.641
REMARK INTRA:                  -0.782
REMARK UNBOUND:                -0.737
REMARK  Name = 
REMARK  5 active torsions:
REMARK  status: ('A' for Active; 'I' for Inactive)
REMARK    1  A    between atoms: C_1  and  C_2
REMARK    2  A    between atoms: C_4  and  C_5
REMARK    3  A    between atoms: N_10  and  C_11
REMARK    4  A    between atoms: C_11  and  C_12
REMARK    5  A    between atoms: C_16  and  C_17
REMARK                            x       y       z     vdW  Elec       q    Type
REMARK                         _______ _______ _______ _____ _____    ______ ____
ROOT
ATOM      1  C   UNL     1      45.281   3.485   7.365  0.00  0.00    +0.000 C 
ATOM      2  C   UNL     1      45.124   3.907   8.794  0.00  0.00    +0.000 A 
ATOM      3  C   UNL     1      44.361   3.180   9.670  0.00  0.00    +0.000 A 
ATOM      4  C   UNL     1      44.316   3.674  10.951  0.00  0.00    +0.000 A 
ATOM      5  N   UNL     1      44.972   4.788  11.376  0.00  0.00    +0.000 NA
ATOM      6  C   UNL     1      45.709   5.412  10.455  0.00  0.00    +0.000 A 
ATOM      7  N   UNL     1      46.511   6.493  10.782  0.00  0.00    +0.000 N 
ATOM      8  N   UNL     1      45.789   5.022   9.175  0.00  0.00    +0.000 NA
ATOM      9  H   UNL     1      46.783   6.945   9.916  0.00  0.00    +0.000 HD
ENDROOT
BRANCH   4  10
ATOM     10  C   UNL     1      43.505   2.942  11.974  0.00  0.00    +0.000 C 
ATOM     11  N   UNL     1      43.462   3.514  13.214  0.00  0.00    +0.000 N 
ATOM     12  O   UNL     1      42.918   1.894  11.725  0.00  0.00    +0.000 OA
ATOM     13  H   UNL     1      43.992   4.359  13.398  0.00  0.00    +0.000 HD
ATOM     14  H   UNL     1      42.956   3.056  13.958  0.00  0.00    +0.000 HD
ENDBRANCH   4  10
BRANCH   7  15
ATOM     15  C   UNL     1      46.051   7.368  11.833  0.00  0.00    +0.000 C 
BRANCH  15  16
ATOM     16  C   UNL     1      47.084   7.436  12.941  0.00  0.00    +0.000 A 
ATOM     17  C   UNL     1      47.886   8.567  13.134  0.00  0.00    +0.000 A 
ATOM     18  C   UNL     1      48.789   8.618  14.198  0.00  0.00    +0.000 A 
ATOM     19  C   UNL     1      48.898   7.541  15.082  0.00  0.00    +0.000 A 
ATOM     20  C   UNL     1      48.113   6.387  14.923  0.00  0.00    +0.000 A 
ATOM     21  C   UNL     1      47.232   6.351  13.823  0.00  0.00    +0.000 A 
BRANCH  20  22
ATOM     22  C   UNL     1      48.173   5.270  15.886  0.00  0.00    +0.000 A 
ATOM     23  C   UNL     1      49.184   5.170  16.853  0.00  0.00    +0.000 A 
ATOM     24  C   UNL     1      49.235   4.082  17.722  0.00  0.00    +0.000 A 
ATOM     25  C   UNL     1      48.256   3.111  17.614  0.00  0.00    +0.000 A 
ATOM     26  N   UNL     1      47.260   3.153  16.709  0.00  0.00    +0.000 NA
ATOM     27  C   UNL     1      47.249   4.220  15.871  0.00  0.00    +0.000 A 
ENDBRANCH  20  22
ENDBRANCH  15  16
ENDBRANCH   7  15
TORSDOF 4
ENDMDL
MODEL 4
REMARK VINA RESULT:    -6.921      4.236      6.541
REMARK INTER + INTRA:          -9.276
REMARK INTER:                  -8.567
REMARK INTRA:                  -0.709
REMARK UNBOUND:                -0.737
REMARK  Name = 
REMARK  5 active torsions:
REMARK  status: ('A' for Active; 'I' for Inactive)
REMARK    1  A    between atoms: C_1  and  C_2
REMARK    2  A    between atoms: C_4  and  C_5
REMARK    3  A    between atoms: N_10  and  C_11
REMARK    4  A    between atoms: C_11  and  C_12
REMARK    5  A    between atoms: C_16  and  C_17
REMARK                            x       y       z     vdW  Elec       q    Type
REMARK                         _______ _______ _______ _____ _____    ______ ____
ROOT
ATOM      1  C   UNL     1      45.659  10.350  11.754  0.00  0.00    +0.000 C 
ATOM      2  C   UNL     1      46.421   9.152  12.234  0.00  0.00    +0.000 A 
ATOM      3  C   UNL     1      47.791   9.151  12.275  0.00  0.00    +0.000 A 
ATOM      4  C   UNL     1      48.358   7.993  12.749  0.00  0.00    +0.000 A 
ATOM      5  N   UNL     1      47.659   6.904  13.173  0.00  0.00    +0.000 NA
ATOM      6  C   UNL     1      46.330   7.012  13.117  0.00  0.00    +0.000 A 
ATOM      7  N   UNL     1      45.503   6.021  13.617  0.00  0.00    +0.000 N 
ATOM      8  N   UNL     1      45.690   8.090  12.642  0.00  0.00    +0.000 NA
ATOM      9  H   UNL     1      44.569   6.194  13.264  0.00  0.00    +0.000 HD
ENDROOT
BRANCH   4  10
ATOM     10  C   UNL     1      49.850   7.905  12.829  0.00  0.00    +0.000 C 
ATOM     11  N   UNL     1      50.469   7.367  11.737  0.00  0.00    +0.000 N 
ATOM     12  O   UNL     1      50.483   8.285  13.809  0.00  0.00    +0.000 OA
ATOM     13  H   UNL     1      49.914   7.025  10.960  0.00  0.00    +0.000 HD
ATOM     14  H   UNL     1      51.472   7.253  11.737  0.00  0.00    +0.000 HD
ENDBRANCH   4  10
BRANCH   7  15
ATOM     15  C   UNL     1      45.969   4.658  13.527  0.00  0.00    +0.000 C 
BRANCH  15  16
ATOM     16  C   UNL     1      45.187   3.911  12.463  0.00  0.00    +0.000 A 
ATOM     17  C   UNL     1      43.878   3.470  12.682  0.00  0.00    +0.000 A 
ATOM     18  C   UNL     1      43.168   2.833  11.662  0.00  0.00    +0.000 A 
ATOM     19  C   UNL     1      43.758   2.632  10.412  0.00  0.00    +0.000 A 
ATOM     20  C   UNL     1      45.071   3.058  10.151  0.00  0.00    +0.000 A 
ATOM     21  C   UNL     1      45.774   3.671  11.208  0.00  0.00    +0.000 A 
BRANCH  20  22
ATOM     22  C   UNL     1      45.683   2.910   8.816  0.00  0.00    +0.000 A 
ATOM     23  C   UNL     1      46.151   1.677   8.340  0.00  0.00    +0.000 A 
ATOM     24  C   UNL     1      46.761   1.578   7.091  0.00  0.00    +0.000 A 
ATOM     25  C   UNL     1      46.880   2.725   6.328  0.00  0.00    +0.000 A 
ATOM     26  N   UNL     1      46.448   3.936   6.728  0.00  0.00    +0.000 NA
ATOM     27  C   UNL     1      45.871   3.997   7.955  0.00  0.00    +0.000 A 
ENDBRANCH  20  22
ENDBRANCH  15  16
ENDBRANCH   7  15
TORSDOF 4
ENDMDL
MODEL 5
REMARK VINA RESULT:    -6.843      4.247      6.507
REMARK INTER + INTRA:          -9.180
REMARK INTER:                  -8.657
REMARK INTRA:                  -0.523
REMARK UNBOUND:                -0.737
REMARK  Name = 
REMARK  5 active torsions:
REMARK  status: ('A' for Active; 'I' for Inactive)
REMARK    1  A    between atoms: C_1  and  C_2
REMARK    2  A    between atoms: C_4  and  C_5
REMARK    3  A    between atoms: N_10  and  C_11
REMARK    4  A    between atoms: C_11  and  C_12
REMARK    5  A    between atoms: C_16  and  C_17
REMARK                            x       y       z     vdW  Elec       q    Type
REMARK                         _______ _______ _______ _____ _____    ______ ____
ROOT
ATOM      1  C   UNL     1      50.480   8.721  13.464  0.00  0.00    +0.000 C 
ATOM      2  C   UNL     1      49.047   8.326  13.279  0.00  0.00    +0.000 A 
ATOM      3  C   UNL     1      48.115   9.225  12.830  0.00  0.00    +0.000 A 
ATOM      4  C   UNL     1      46.843   8.725  12.693  0.00  0.00    +0.000 A 
ATOM      5  N   UNL     1      46.483   7.439  12.955  0.00  0.00    +0.000 NA
ATOM      6  C   UNL     1      47.467   6.634  13.362  0.00  0.00    +0.000 A 
ATOM      7  N   UNL     1      47.258   5.279  13.558  0.00  0.00    +0.000 N 
ATOM      8  N   UNL     1      48.730   7.040  13.554  0.00  0.00    +0.000 NA
ATOM      9  H   UNL     1      48.049   4.920  14.082  0.00  0.00    +0.000 HD
ENDROOT
BRANCH   4  10
ATOM     10  C   UNL     1      45.761   9.638  12.207  0.00  0.00    +0.000 C 
ATOM     11  N   UNL     1      44.501   9.109  12.198  0.00  0.00    +0.000 N 
ATOM     12  O   UNL     1      45.982  10.786  11.837  0.00  0.00    +0.000 OA
ATOM     13  H   UNL     1      44.358   8.144  12.472  0.00  0.00    +0.000 HD
ATOM     14  H   UNL     1      43.730   9.663  11.855  0.00  0.00    +0.000 HD
ENDBRANCH   4  10
BRANCH   7  15
ATOM     15  C   UNL     1      45.956   4.868  14.023  0.00  0.00    +0.000 C 
BRANCH  15  16
ATOM     16  C   UNL     1      45.027   4.652  12.843  0.00  0.00    +0.000 A 
ATOM     17  C   UNL     1      43.677   5.015  12.890  0.00  0.00    +0.000 A 
ATOM     18  C   UNL     1      42.862   4.853  11.767  0.00  0.00    +0.000 A 
ATOM     19  C   UNL     1      43.390   4.328  10.585  0.00  0.00    +0.000 A 
ATOM     20  C   UNL     1      44.740   3.949  10.496  0.00  0.00    +0.000 A 
ATOM     21  C   UNL     1      45.530   4.096  11.653  0.00  0.00    +0.000 A 
BRANCH  20  22
ATOM     22  C   UNL     1      45.324   3.454   9.233  0.00  0.00    +0.000 A 
ATOM     23  C   UNL     1      45.546   2.089   8.998  0.00  0.00    +0.000 A 
ATOM     24  C   UNL     1      46.137   1.658   7.812  0.00  0.00    +0.000 A 
ATOM     25  C   UNL     1      46.486   2.607   6.869  0.00  0.00    +0.000 A 
ATOM     26  N   UNL     1      46.294   3.930   7.037  0.00  0.00    +0.000 NA
ATOM     27  C   UNL     1      45.728   4.315   8.209  0.00  0.00    +0.000 A 
ENDBRANCH  20  22
ENDBRANCH  15  16
ENDBRANCH   7  15
TORSDOF 4
ENDMDL
MODEL 6
REMARK VINA RESULT:    -6.768      1.971      4.200
REMARK INTER + INTRA:          -9.088
REMARK INTER:                  -8.436
REMARK INTRA:                  -0.652
REMARK UNBOUND:                -0.737
REMARK  Name = 
REMARK  5 active torsions:
REMARK  status: ('A' for Active; 'I' for Inactive)
REMARK    1  A    between atoms: C_1  and  C_2
REMARK    2  A    between atoms: C_4  and  C_5
REMARK    3  A    between atoms: N_10  and  C_11
REMARK    4  A    between atoms: C_11  and  C_12
REMARK    5  A    between atoms: C_16  and  C_17
REMARK                            x       y       z     vdW  Elec       q    Type
REMARK                         _______ _______ _______ _____ _____    ______ ____
ROOT
ATOM      1  C   UNL     1      48.270   5.937  19.838  0.00  0.00    +0.000 C 
ATOM      2  C   UNL     1      48.464   5.021  18.668  0.00  0.00    +0.000 A 
ATOM      3  C   UNL     1      49.510   4.137  18.625  0.00  0.00    +0.000 A 
ATOM      4  C   UNL     1      49.559   3.348  17.501  0.00  0.00    +0.000 A 
ATOM      5  N   UNL     1      48.654   3.389  16.485  0.00  0.00    +0.000 NA
ATOM      6  C   UNL     1      47.658   4.264  16.632  0.00  0.00    +0.000 A 
ATOM      7  N   UNL     1      46.614   4.331  15.725  0.00  0.00    +0.000 N 
ATOM      8  N   UNL     1      47.545   5.096  17.678  0.00  0.00    +0.000 NA
ATOM      9  H   UNL     1      46.115   5.197  15.894  0.00  0.00    +0.000 HD
ENDROOT
BRANCH   4  10
ATOM     10  C   UNL     1      50.670   2.354  17.370  0.00  0.00    +0.000 C 
ATOM     11  N   UNL     1      51.766   2.586  18.152  0.00  0.00    +0.000 N 
ATOM     12  O   UNL     1      50.610   1.393  16.610  0.00  0.00    +0.000 OA
ATOM     13  H   UNL     1      51.801   3.412  18.738  0.00  0.00    +0.000 HD
ATOM     14  H   UNL     1      52.563   1.969  18.090  0.00  0.00    +0.000 HD
ENDBRANCH   4  10
BRANCH   7  15
ATOM     15  C   UNL     1      46.912   4.034  14.346  0.00  0.00    +0.000 C 
BRANCH  15  16
ATOM     16  C   UNL     1      46.574   5.228  13.472  0.00  0.00    +0.000 A 
ATOM     17  C   UNL     1      45.255   5.535  13.120  0.00  0.00    +0.000 A 
ATOM     18  C   UNL     1      44.975   6.673  12.360  0.00  0.00    +0.000 A 
ATOM     19  C   UNL     1      46.009   7.515  11.945  0.00  0.00    +0.000 A 
ATOM     20  C   UNL     1      47.347   7.242  12.275  0.00  0.00    +0.000 A 
ATOM     21  C   UNL     1      47.603   6.072  13.018  0.00  0.00    +0.000 A 
BRANCH  20  22
ATOM     22  C   UNL     1      48.441   8.159  11.899  0.00  0.00    +0.000 A 
ATOM     23  C   UNL     1      49.752   7.709  11.685  0.00  0.00    +0.000 A 
ATOM     24  C   UNL     1      50.771   8.606  11.370  0.00  0.00    +0.000 A 
ATOM     25  C   UNL     1      50.453   9.947  11.260  0.00  0.00    +0.000 A 
ATOM     26  N   UNL     1      49.213  10.438  11.450  0.00  0.00    +0.000 NA
ATOM     27  C   UNL     1      48.249   9.538  11.768  0.00  0.00    +0.000 A 
ENDBRANCH  20  22
ENDBRANCH  15  16
ENDBRANCH   7  15
TORSDOF 4
ENDMDL
MODEL 7
REMARK VINA RESULT:    -6.706      3.470      5.278
REMARK INTER + INTRA:          -9.011
REMARK INTER:                  -8.453
REMARK INTRA:                  -0.557
REMARK UNBOUND:                -0.737
REMARK  Name = 
REMARK  5 active torsions:
REMARK  status: ('A' for Active; 'I' for Inactive)
REMARK    1  A    between atoms: C_1  and  C_2
REMARK    2  A    between atoms: C_4  and  C_5
REMARK    3  A    between atoms: N_10  and  C_11
REMARK    4  A    between atoms: C_11  and  C_12
REMARK    5  A    between atoms: C_16  and  C_17
REMARK                            x       y       z     vdW  Elec       q    Type
REMARK                         _______ _______ _______ _____ _____    ______ ____
ROOT
ATOM      1  C   UNL     1      50.049   6.155  17.205  0.00  0.00    +0.000 C 
ATOM      2  C   UNL     1      49.651   6.629  15.840  0.00  0.00    +0.000 A 
ATOM      3  C   UNL     1      50.510   7.366  15.066  0.00  0.00    +0.000 A 
ATOM      4  C   UNL     1      50.021   7.722  13.832  0.00  0.00    +0.000 A 
ATOM      5  N   UNL     1      48.792   7.382  13.358  0.00  0.00    +0.000 NA
ATOM      6  C   UNL     1      48.040   6.642  14.175  0.00  0.00    +0.000 A 
ATOM      7  N   UNL     1      46.814   6.139  13.773  0.00  0.00    +0.000 N 
ATOM      8  N   UNL     1      48.420   6.274  15.407  0.00  0.00    +0.000 NA
ATOM      9  H   UNL     1      46.325   5.823  14.603  0.00  0.00    +0.000 HD
ENDROOT
BRANCH   4  10
ATOM     10  C   UNL     1      50.892   8.528  12.921  0.00  0.00    +0.000 C 
ATOM     11  N   UNL     1      52.203   8.148  12.868  0.00  0.00    +0.000 N 
ATOM     12  O   UNL     1      50.466   9.472  12.263  0.00  0.00    +0.000 OA
ATOM     13  H   UNL     1      52.533   7.390  13.455  0.00  0.00    +0.000 HD
ATOM     14  H   UNL     1      52.851   8.668  12.294  0.00  0.00    +0.000 HD
ENDBRANCH   4  10
BRANCH   7  15
ATOM     15  C   UNL     1      46.040   6.933  12.850  0.00  0.00    +0.000 C 
BRANCH  15  16
ATOM     16  C   UNL     1      45.122   6.039  12.038  0.00  0.00    +0.000 A 
ATOM     17  C   UNL     1      43.733   6.064  12.204  0.00  0.00    +0.000 A 
ATOM     18  C   UNL     1      42.913   5.267  11.401  0.00  0.00    +0.000 A 
ATOM     19  C   UNL     1      43.473   4.440  10.425  0.00  0.00    +0.000 A 
ATOM     20  C   UNL     1      44.862   4.384  10.228  0.00  0.00    +0.000 A 
ATOM     21  C   UNL     1      45.667   5.176  11.072  0.00  0.00    +0.000 A 
BRANCH  20  22
ATOM     22  C   UNL     1      45.461   3.563   9.157  0.00  0.00    +0.000 A 
ATOM     23  C   UNL     1      45.987   4.129   7.987  0.00  0.00    +0.000 A 
ATOM     24  C   UNL     1      46.509   3.323   6.977  0.00  0.00    +0.000 A 
ATOM     25  C   UNL     1      46.507   1.953   7.164  0.00  0.00    +0.000 A 
ATOM     26  N   UNL     1      46.020   1.352   8.267  0.00  0.00    +0.000 NA
ATOM     27  C   UNL     1      45.508   2.167   9.224  0.00  0.00    +0.000 A 
ENDBRANCH  20  22
ENDBRANCH  15  16
ENDBRANCH   7  15
TORSDOF 4
ENDMDL
MODEL 8
REMARK VINA RESULT:    -6.479      5.021      7.984
REMARK INTER + INTRA:          -8.731
REMARK INTER:                  -8.102
REMARK INTRA:                  -0.629
REMARK UNBOUND:                -0.737
REMARK  Name = 
REMARK  5 active torsions:
REMARK  status: ('A' for Active; 'I' for Inactive)
REMARK    1  A    between atoms: C_1  and  C_2
REMARK    2  A    between atoms: C_4  and  C_5
REMARK    3  A    between atoms: N_10  and  C_11
REMARK    4  A    between atoms: C_11  and  C_12
REMARK    5  A    between atoms: C_16  and  C_17
REMARK                            x       y       z     vdW  Elec       q    Type
REMARK                         _______ _______ _______ _____ _____    ______ ____
ROOT
ATOM      1  C   UNL     1      45.371   3.263   7.142  0.00  0.00    +0.000 C 
ATOM      2  C   UNL     1      45.162   3.716   8.554  0.00  0.00    +0.000 A 
ATOM      3  C   UNL     1      44.422   2.973   9.436  0.00  0.00    +0.000 A 
ATOM      4  C   UNL     1      44.324   3.500  10.702  0.00  0.00    +0.000 A 
ATOM      5  N   UNL     1      44.908   4.660  11.106  0.00  0.00    +0.000 NA
ATOM      6  C   UNL     1      45.629   5.298  10.181  0.00  0.00    +0.000 A 
ATOM      7  N   UNL     1      46.362   6.431  10.491  0.00  0.00    +0.000 N 
ATOM      8  N   UNL     1      45.756   4.876   8.915  0.00  0.00    +0.000 NA
ATOM      9  H   UNL     1      46.626   6.873   9.618  0.00  0.00    +0.000 HD
ENDROOT
BRANCH   4  10
ATOM     10  C   UNL     1      43.534   2.752  11.730  0.00  0.00    +0.000 C 
ATOM     11  N   UNL     1      43.718   3.155  13.023  0.00  0.00    +0.000 N 
ATOM     12  O   UNL     1      42.772   1.835  11.441  0.00  0.00    +0.000 OA
ATOM     13  H   UNL     1      44.385   3.889  13.233  0.00  0.00    +0.000 HD
ATOM     14  H   UNL     1      43.236   2.674  13.769  0.00  0.00    +0.000 HD
ENDBRANCH   4  10
BRANCH   7  15
ATOM     15  C   UNL     1      45.833   7.308  11.506  0.00  0.00    +0.000 C 
BRANCH  15  16
ATOM     16  C   UNL     1      46.967   7.922  12.306  0.00  0.00    +0.000 A 
ATOM     17  C   UNL     1      46.754   8.507  13.559  0.00  0.00    +0.000 A 
ATOM     18  C   UNL     1      47.830   9.014  14.292  0.00  0.00    +0.000 A 
ATOM     19  C   UNL     1      49.128   8.939  13.782  0.00  0.00    +0.000 A 
ATOM     20  C   UNL     1      49.384   8.362  12.527  0.00  0.00    +0.000 A 
ATOM     21  C   UNL     1      48.277   7.885  11.796  0.00  0.00    +0.000 A 
BRANCH  20  22
ATOM     22  C   UNL     1      50.758   8.219  12.006  0.00  0.00    +0.000 A 
ATOM     23  C   UNL     1      51.033   7.572  10.792  0.00  0.00    +0.000 A 
ATOM     24  C   UNL     1      52.345   7.418  10.348  0.00  0.00    +0.000 A 
ATOM     25  C   UNL     1      53.366   7.932  11.126  0.00  0.00    +0.000 A 
ATOM     26  N   UNL     1      53.164   8.566  12.297  0.00  0.00    +0.000 NA
ATOM     27  C   UNL     1      51.875   8.686  12.706  0.00  0.00    +0.000 A 
ENDBRANCH  20  22
ENDBRANCH  15  16
ENDBRANCH   7  15
TORSDOF 4
ENDMDL
MODEL 9
REMARK VINA RESULT:    -6.233      3.459      6.812
REMARK INTER + INTRA:          -8.427
REMARK INTER:                  -7.658
REMARK INTRA:                  -0.769
REMARK UNBOUND:                -0.737
REMARK  Name = 
REMARK  5 active torsions:
REMARK  status: ('A' for Active; 'I' for Inactive)
REMARK    1  A    between atoms: C_1  and  C_2
REMARK    2  A    between atoms: C_4  and  C_5
REMARK    3  A    between atoms: N_10  and  C_11
REMARK    4  A    between atoms: C_11  and  C_12
REMARK    5  A    between atoms: C_16  and  C_17
REMARK                            x       y       z     vdW  Elec       q    Type
REMARK                         _______ _______ _______ _____ _____    ______ ____
ROOT
ATOM      1  C   UNL     1      44.147   2.699  10.312  0.00  0.00    +0.000 C 
ATOM      2  C   UNL     1      44.760   3.731  11.209  0.00  0.00    +0.000 A 
ATOM      3  C   UNL     1      45.528   3.370  12.285  0.00  0.00    +0.000 A 
ATOM      4  C   UNL     1      46.038   4.419  13.012  0.00  0.00    +0.000 A 
ATOM      5  N   UNL     1      45.839   5.733  12.723  0.00  0.00    +0.000 NA
ATOM      6  C   UNL     1      45.098   5.982  11.640  0.00  0.00    +0.000 A 
ATOM      7  N   UNL     1      44.909   7.272  11.174  0.00  0.00    +0.000 N 
ATOM      8  N   UNL     1      44.534   5.025  10.888  0.00  0.00    +0.000 NA
ATOM      9  H   UNL     1      44.144   7.249  10.510  0.00  0.00    +0.000 HD
ENDROOT
BRANCH   4  10
ATOM     10  C   UNL     1      46.889   4.116  14.205  0.00  0.00    +0.000 C 
ATOM     11  N   UNL     1      46.950   5.099  15.152  0.00  0.00    +0.000 N 
ATOM     12  O   UNL     1      47.499   3.059  14.331  0.00  0.00    +0.000 OA
ATOM     13  H   UNL     1      46.467   5.977  14.999  0.00  0.00    +0.000 HD
ATOM     14  H   UNL     1      47.530   4.971  15.969  0.00  0.00    +0.000 HD
ENDBRANCH   4  10
BRANCH   7  15
ATOM     15  C   UNL     1      44.864   8.332  12.151  0.00  0.00    +0.000 C 
BRANCH  15  16
ATOM     16  C   UNL     1      45.996   9.313  11.907  0.00  0.00    +0.000 A 
ATOM     17  C   UNL     1      45.757  10.622  11.474  0.00  0.00    +0.000 A 
ATOM     18  C   UNL     1      46.818  11.515  11.312  0.00  0.00    +0.000 A 
ATOM     19  C   UNL     1      48.128  11.110  11.582  0.00  0.00    +0.000 A 
ATOM     20  C   UNL     1      48.410   9.805  12.016  0.00  0.00    +0.000 A 
ATOM     21  C   UNL     1      47.324   8.916  12.143  0.00  0.00    +0.000 A 
BRANCH  20  22
ATOM     22  C   UNL     1      49.782   9.384  12.366  0.00  0.00    +0.000 A 
ATOM     23  C   UNL     1      50.692   8.926  11.402  0.00  0.00    +0.000 A 
ATOM     24  C   UNL     1      51.966   8.498  11.771  0.00  0.00    +0.000 A 
ATOM     25  C   UNL     1      52.313   8.549  13.108  0.00  0.00    +0.000 A 
ATOM     26  N   UNL     1      51.485   8.983  14.078  0.00  0.00    +0.000 NA
ATOM     27  C   UNL     1      50.248   9.379  13.684  0.00  0.00    +0.000 A 
ENDBRANCH  20  22
ENDBRANCH  15  16
ENDBRANCH   7  15
TORSDOF 4
ENDMDL
