MODEL 1
REMARK VINA RESULT:    -7.777      0.000      0.000
REMARK INTER + INTRA:         -11.362
REMARK INTER:                 -10.504
REMARK INTRA:                  -0.857
REMARK UNBOUND:                -0.857
REMARK  Name = 
REMARK  6 active torsions:
REMARK  status: ('A' for Active; 'I' for Inactive)
REMARK    1  A    between atoms: C_2  and  C_25
REMARK    2  A    between atoms: N_3  and  C_4
REMARK    3  A    between atoms: C_4  and  C_5
REMARK    4  A    between atoms: C_8  and  C_9
REMARK    5  A    between atoms: C_9  and  N_10
REMARK    6  A    between atoms: C_11  and  C_13
REMARK                            x       y       z     vdW  Elec       q    Type
REMARK                         _______ _______ _______ _____ _____    ______ ____
ROOT
ATOM      1  C   UNL     1      44.873   6.004  11.034  0.00  0.00    +0.000 A 
ATOM      2  C   UNL     1      44.471   7.300  11.380  0.00  0.00    +0.000 A 
ATOM      3  C   UNL     1      45.246   8.079  12.248  0.00  0.00    +0.000 A 
ATOM      4  C   UNL     1      46.447   7.584  12.770  0.00  0.00    +0.000 A 
ATOM      5  C   UNL     1      46.836   6.278  12.442  0.00  0.00    +0.000 A 
ATOM      6  C   UNL     1      46.064   5.500  11.575  0.00  0.00    +0.000 A 
ENDROOT
BRANCH   1   7
ATOM      7  C   UNL     1      44.046   5.169  10.096  0.00  0.00    +0.000 C 
BRANCH   7  10
ATOM      8  O   UNL     1      44.486   2.450  10.307  0.00  0.00    +0.000 OA
ATOM      9  C   UNL     1      45.010   3.032   9.357  0.00  0.00    +0.000 C 
ATOM     10  N   UNL     1      44.859   4.397   9.189  0.00  0.00    +0.000 N 
ATOM     11  H   UNL     1      45.282   4.824   8.371  0.00  0.00    +0.000 HD
BRANCH   9  12
ATOM     12  C   UNL     1      45.813   2.380   8.324  0.00  0.00    +0.000 A 
ATOM     13  N   UNL     1      46.109   1.091   8.334  0.00  0.00    +0.000 NA
ATOM     14  C   UNL     1      46.890   0.797   7.229  0.00  0.00    +0.000 A 
ATOM     15  C   UNL     1      47.189   1.859   6.407  0.00  0.00    +0.000 A 
ATOM     16  S   UNL     1      46.454   3.285   7.014  0.00  0.00    +0.000 S 
ENDBRANCH   9  12
ENDBRANCH   7  10
ENDBRANCH   1   7
BRANCH   4  17
ATOM     17  C   UNL     1      47.290   8.415  13.704  0.00  0.00    +0.000 C 
BRANCH  17  18
ATOM     18  N   UNL     1      47.709   7.638  14.843  0.00  0.00    +0.000 N 
ATOM     19  C   UNL     1      48.982   7.139  14.948  0.00  0.00    +0.000 C 
ATOM     20  O   UNL     1      49.847   7.369  14.108  0.00  0.00    +0.000 OA
ATOM     21  H   UNL     1      46.971   7.235  15.409  0.00  0.00    +0.000 HD
BRANCH  19  22
ATOM     22  C   UNL     1      49.274   6.366  16.163  0.00  0.00    +0.000 A 
ATOM     23  C   UNL     1      50.308   6.759  17.002  0.00  0.00    +0.000 A 
ATOM     24  S   UNL     1      50.449   5.799  18.406  0.00  0.00    +0.000 S 
ATOM     25  C   UNL     1      49.172   4.790  17.913  0.00  0.00    +0.000 A 
ATOM     26  N   UNL     1      48.777   3.734  18.674  0.00  0.00    +0.000 NA
ATOM     27  C   UNL     1      47.819   3.035  18.163  0.00  0.00    +0.000 A 
ATOM     28  N   UNL     1      47.220   3.296  16.957  0.00  0.00    +0.000 N 
ATOM     29  C   UNL     1      47.570   4.361  16.165  0.00  0.00    +0.000 A 
ATOM     30  O   UNL     1      46.995   4.581  15.104  0.00  0.00    +0.000 OA
ATOM     31  C   UNL     1      48.641   5.182  16.697  0.00  0.00    +0.000 A 
ATOM     32  H   UNL     1      46.475   2.709  16.611  0.00  0.00    +0.000 HD
ENDBRANCH  19  22
ENDBRANCH  17  18
ENDBRANCH   4  17
TORSDOF 6
ENDMDL
MODEL 2
REMARK VINA RESULT:    -7.268      4.713      9.411
REMARK INTER + INTRA:         -10.675
REMARK INTER:                  -9.860
REMARK INTRA:                  -0.814
REMARK UNBOUND:                -0.857
REMARK  Name = 
REMARK  6 active torsions:
REMARK  status: ('A' for Active; 'I' for Inactive)
REMARK    1  A    between atoms: C_2  and  C_25
REMARK    2  A    between atoms: N_3  and  C_4
REMARK    3  A    between atoms: C_4  and  C_5
REMARK    4  A    between atoms: C_8  and  C_9
REMARK    5  A    between atoms: C_9  and  N_10
REMARK    6  A    between atoms: C_11  and  C_13
REMARK                            x       y       z     vdW  Elec       q    Type
REMARK                         _______ _______ _______ _____ _____    ______ ____
ROOT
ATOM      1  C   UNL     1      51.379   2.958  17.778  0.00  0.00    +0.000 A 
ATOM      2  C   UNL     1      50.693   1.965  17.068  0.00  0.00    +0.000 A 
ATOM      3  C   UNL     1      49.329   2.104  16.785  0.00  0.00    +0.000 A 
ATOM      4  C   UNL     1      48.630   3.248  17.189  0.00  0.00    +0.000 A 
ATOM      5  C   UNL     1      49.312   4.230  17.919  0.00  0.00    +0.000 A 
ATOM      6  C   UNL     1      50.674   4.093  18.202  0.00  0.00    +0.000 A 
ENDROOT
BRANCH   1   7
ATOM      7  C   UNL     1      52.846   2.814  18.076  0.00  0.00    +0.000 C 
BRANCH   7  10
ATOM      8  O   UNL     1      54.709   1.231  16.790  0.00  0.00    +0.000 OA
ATOM      9  C   UNL     1      54.157   0.755  17.782  0.00  0.00    +0.000 C 
ATOM     10  N   UNL     1      53.195   1.473  18.473  0.00  0.00    +0.000 N 
ATOM     11  H   UNL     1      52.795   1.050  19.304  0.00  0.00    +0.000 HD
BRANCH   9  12
ATOM     12  C   UNL     1      54.443  -0.565  18.340  0.00  0.00    +0.000 A 
ATOM     13  N   UNL     1      54.284  -0.869  19.617  0.00  0.00    +0.000 NA
ATOM     14  C   UNL     1      54.653  -2.187  19.819  0.00  0.00    +0.000 A 
ATOM     15  C   UNL     1      55.101  -2.862  18.706  0.00  0.00    +0.000 A 
ATOM     16  S   UNL     1      55.042  -1.826  17.340  0.00  0.00    +0.000 S 
ENDBRANCH   9  12
ENDBRANCH   7  10
ENDBRANCH   1   7
BRANCH   4  17
ATOM     17  C   UNL     1      47.162   3.408  16.887  0.00  0.00    +0.000 C 
BRANCH  17  18
ATOM     18  N   UNL     1      46.951   4.450  15.914  0.00  0.00    +0.000 N 
ATOM     19  C   UNL     1      47.019   4.205  14.567  0.00  0.00    +0.000 C 
ATOM     20  O   UNL     1      47.211   3.080  14.114  0.00  0.00    +0.000 OA
ATOM     21  H   UNL     1      47.038   5.402  16.249  0.00  0.00    +0.000 HD
BRANCH  19  22
ATOM     22  C   UNL     1      46.780   5.358  13.688  0.00  0.00    +0.000 A 
ATOM     23  C   UNL     1      47.802   6.266  13.445  0.00  0.00    +0.000 A 
ATOM     24  S   UNL     1      47.375   7.492  12.337  0.00  0.00    +0.000 S 
ATOM     25  C   UNL     1      45.792   6.886  12.189  0.00  0.00    +0.000 A 
ATOM     26  N   UNL     1      44.880   7.493  11.383  0.00  0.00    +0.000 NA
ATOM     27  C   UNL     1      43.710   6.946  11.394  0.00  0.00    +0.000 A 
ATOM     28  N   UNL     1      43.369   5.847  12.138  0.00  0.00    +0.000 N 
ATOM     29  C   UNL     1      44.261   5.188  12.948  0.00  0.00    +0.000 A 
ATOM     30  O   UNL     1      43.929   4.191  13.581  0.00  0.00    +0.000 OA
ATOM     31  C   UNL     1      45.593   5.761  12.970  0.00  0.00    +0.000 A 
ATOM     32  H   UNL     1      42.434   5.466  12.103  0.00  0.00    +0.000 HD
ENDBRANCH  19  22
ENDBRANCH  17  18
ENDBRANCH   4  17
TORSDOF 6
ENDMDL
MODEL 3
REMARK VINA RESULT:    -6.965      1.742      2.018
REMARK INTER + INTRA:         -10.265
REMARK INTER:                  -9.354
REMARK INTRA:                  -0.911
REMARK UNBOUND:                -0.857
REMARK  Name = 
REMARK  6 active torsions:
REMARK  status: ('A' for Active; 'I' for Inactive)
REMARK    1  A    between atoms: C_2  and  C_25
REMARK    2  A    between atoms: N_3  and  C_4
REMARK    3  A    between atoms: C_4  and  C_5
REMARK    4  A    between atoms: C_8  and  C_9
REMARK    5  A    between atoms: C_9  and  N_10
REMARK    6  A    between atoms: C_11  and  C_13
REMARK                            x       y       z     vdW  Elec       q    Type
REMARK                         _______ _______ _______ _____ _____    ______ ____
ROOT
ATOM      1  C   UNL     1      45.048   6.277  11.538  0.00  0.00    +0.000 A 
ATOM      2  C   UNL     1      44.818   7.657  11.609  0.00  0.00    +0.000 A 
ATOM      3  C   UNL     1      45.632   8.476  12.400  0.00  0.00    +0.000 A 
ATOM      4  C   UNL     1      46.705   7.933  13.119  0.00  0.00    +0.000 A 
ATOM      5  C   UNL     1      46.920   6.550  13.065  0.00  0.00    +0.000 A 
ATOM      6  C   UNL     1      46.108   5.732  12.275  0.00  0.00    +0.000 A 
ENDROOT
BRANCH   1   7
ATOM      7  C   UNL     1      44.180   5.397  10.682  0.00  0.00    +0.000 C 
BRANCH   7  10
ATOM      8  O   UNL     1      44.742   2.717  10.318  0.00  0.00    +0.000 OA
ATOM      9  C   UNL     1      45.115   3.494   9.438  0.00  0.00    +0.000 C 
ATOM     10  N   UNL     1      44.893   4.856   9.552  0.00  0.00    +0.000 N 
ATOM     11  H   UNL     1      45.189   5.450   8.784  0.00  0.00    +0.000 HD
BRANCH   9  12
ATOM     12  C   UNL     1      45.798   3.093   8.210  0.00  0.00    +0.000 A 
ATOM     13  N   UNL     1      46.036   3.918   7.204  0.00  0.00    +0.000 NA
ATOM     14  C   UNL     1      46.683   3.226   6.194  0.00  0.00    +0.000 A 
ATOM     15  C   UNL     1      46.914   1.891   6.435  0.00  0.00    +0.000 A 
ATOM     16  S   UNL     1      46.325   1.474   7.991  0.00  0.00    +0.000 S 
ENDBRANCH   9  12
ENDBRANCH   7  10
ENDBRANCH   1   7
BRANCH   4  17
ATOM     17  C   UNL     1      47.589   8.807  13.972  0.00  0.00    +0.000 C 
BRANCH  17  18
ATOM     18  N   UNL     1      47.765   8.231  15.282  0.00  0.00    +0.000 N 
ATOM     19  C   UNL     1      48.348   8.932  16.307  0.00  0.00    +0.000 C 
ATOM     20  O   UNL     1      48.702  10.100  16.183  0.00  0.00    +0.000 OA
ATOM     21  H   UNL     1      47.714   7.221  15.339  0.00  0.00    +0.000 HD
BRANCH  19  22
ATOM     22  C   UNL     1      48.462   8.224  17.589  0.00  0.00    +0.000 A 
ATOM     23  C   UNL     1      48.114   8.867  18.769  0.00  0.00    +0.000 A 
ATOM     24  S   UNL     1      48.228   7.869  20.149  0.00  0.00    +0.000 S 
ATOM     25  C   UNL     1      48.802   6.561  19.225  0.00  0.00    +0.000 A 
ATOM     26  N   UNL     1      49.113   5.372  19.808  0.00  0.00    +0.000 NA
ATOM     27  C   UNL     1      49.568   4.479  18.994  0.00  0.00    +0.000 A 
ATOM     28  N   UNL     1      49.740   4.668  17.647  0.00  0.00    +0.000 N 
ATOM     29  C   UNL     1      49.420   5.842  17.011  0.00  0.00    +0.000 A 
ATOM     30  O   UNL     1      49.562   5.968  15.799  0.00  0.00    +0.000 OA
ATOM     31  C   UNL     1      48.900   6.879  17.882  0.00  0.00    +0.000 A 
ATOM     32  H   UNL     1      50.102   3.929  17.062  0.00  0.00    +0.000 HD
ENDBRANCH  19  22
ENDBRANCH  17  18
ENDBRANCH   4  17
TORSDOF 6
ENDMDL
MODEL 4
REMARK VINA RESULT:    -6.890      4.672      9.178
REMARK INTER + INTRA:         -10.164
REMARK INTER:                  -9.113
REMARK INTRA:                  -1.051
REMARK UNBOUND:                -0.857
REMARK  Name = 
REMARK  6 active torsions:
REMARK  status: ('A' for Active; 'I' for Inactive)
REMARK    1  A    between atoms: C_2  and  C_25
REMARK    2  A    between atoms: N_3  and  C_4
REMARK    3  A    between atoms: C_4  and  C_5
REMARK    4  A    between atoms: C_8  and  C_9
REMARK    5  A    between atoms: C_9  and  N_10
REMARK    6  A    between atoms: C_11  and  C_13
REMARK                            x       y       z     vdW  Elec       q    Type
REMARK                         _______ _______ _______ _____ _____    ______ ____
ROOT
ATOM      1  C   UNL     1      51.552   3.105  17.737  0.00  0.00    +0.000 A 
ATOM      2  C   UNL     1      50.786   2.059  17.206  0.00  0.00    +0.000 A 
ATOM      3  C   UNL     1      49.409   2.212  17.010  0.00  0.00    +0.000 A 
ATOM      4  C   UNL     1      48.774   3.421  17.322  0.00  0.00    +0.000 A 
ATOM      5  C   UNL     1      49.537   4.457  17.875  0.00  0.00    +0.000 A 
ATOM      6  C   UNL     1      50.912   4.306  18.071  0.00  0.00    +0.000 A 
ENDROOT
BRANCH   1   7
ATOM      7  C   UNL     1      53.033   2.945  17.941  0.00  0.00    +0.000 C 
BRANCH   7  10
ATOM      8  O   UNL     1      54.299   1.113  19.576  0.00  0.00    +0.000 OA
ATOM      9  C   UNL     1      54.116   0.787  18.403  0.00  0.00    +0.000 C 
ATOM     10  N   UNL     1      53.509   1.654  17.511  0.00  0.00    +0.000 N 
ATOM     11  H   UNL     1      53.350   1.325  16.564  0.00  0.00    +0.000 HD
BRANCH   9  12
ATOM     12  C   UNL     1      54.489  -0.505  17.832  0.00  0.00    +0.000 A 
ATOM     13  N   UNL     1      54.846  -0.670  16.568  0.00  0.00    +0.000 NA
ATOM     14  C   UNL     1      55.123  -2.008  16.346  0.00  0.00    +0.000 A 
ATOM     15  C   UNL     1      54.961  -2.842  17.430  0.00  0.00    +0.000 A 
ATOM     16  S   UNL     1      54.463  -1.927  18.793  0.00  0.00    +0.000 S 
ENDBRANCH   9  12
ENDBRANCH   7  10
ENDBRANCH   1   7
BRANCH   4  17
ATOM     17  C   UNL     1      47.291   3.596  17.113  0.00  0.00    +0.000 C 
BRANCH  17  18
ATOM     18  N   UNL     1      47.032   4.565  16.078  0.00  0.00    +0.000 N 
ATOM     19  C   UNL     1      47.087   4.234  14.749  0.00  0.00    +0.000 C 
ATOM     20  O   UNL     1      47.307   3.089  14.367  0.00  0.00    +0.000 OA
ATOM     21  H   UNL     1      47.095   5.539  16.349  0.00  0.00    +0.000 HD
BRANCH  19  22
ATOM     22  C   UNL     1      46.799   5.319  13.802  0.00  0.00    +0.000 A 
ATOM     23  C   UNL     1      45.677   5.248  12.986  0.00  0.00    +0.000 A 
ATOM     24  S   UNL     1      45.452   6.631  12.012  0.00  0.00    +0.000 S 
ATOM     25  C   UNL     1      46.877   7.348  12.603  0.00  0.00    +0.000 A 
ATOM     26  N   UNL     1      47.285   8.568  12.161  0.00  0.00    +0.000 NA
ATOM     27  C   UNL     1      48.400   8.976  12.669  0.00  0.00    +0.000 A 
ATOM     28  N   UNL     1      49.145   8.273  13.581  0.00  0.00    +0.000 N 
ATOM     29  C   UNL     1      48.763   7.049  14.072  0.00  0.00    +0.000 A 
ATOM     30  O   UNL     1      49.441   6.459  14.907  0.00  0.00    +0.000 OA
ATOM     31  C   UNL     1      47.513   6.546  13.534  0.00  0.00    +0.000 A 
ATOM     32  H   UNL     1      50.011   8.647  13.941  0.00  0.00    +0.000 HD
ENDBRANCH  19  22
ENDBRANCH  17  18
ENDBRANCH   4  17
TORSDOF 6
ENDMDL
MODEL 5
REMARK VINA RESULT:    -6.808      3.463      8.367
REMARK INTER + INTRA:         -10.054
REMARK INTER:                  -9.006
REMARK INTRA:                  -1.048
REMARK UNBOUND:                -0.857
REMARK  Name = 
REMARK  6 active torsions:
REMARK  status: ('A' for Active; 'I' for Inactive)
REMARK    1  A    between atoms: C_2  and  C_25
REMARK    2  A    between atoms: N_3  and  C_4
REMARK    3  A    between atoms: C_4  and  C_5
REMARK    4  A    between atoms: C_8  and  C_9
REMARK    5  A    between atoms: C_9  and  N_10
REMARK    6  A    between atoms: C_11  and  C_13
REMARK                            x       y       z     vdW  Elec       q    Type
REMARK                         _______ _______ _______ _____ _____    ______ ____
ROOT
ATOM      1  C   UNL     1      49.686   4.576  17.536  0.00  0.00    +0.000 A 
ATOM      2  C   UNL     1      50.478   5.656  17.127  0.00  0.00    +0.000 A 
ATOM      3  C   UNL     1      50.028   6.537  16.137  0.00  0.00    +0.000 A 
ATOM      4  C   UNL     1      48.767   6.367  15.551  0.00  0.00    +0.000 A 
ATOM      5  C   UNL     1      47.985   5.272  15.944  0.00  0.00    +0.000 A 
ATOM      6  C   UNL     1      48.434   4.393  16.933  0.00  0.00    +0.000 A 
ENDROOT
BRANCH   1   7
ATOM      7  C   UNL     1      50.165   3.633  18.605  0.00  0.00    +0.000 C 
BRANCH   7  10
ATOM      8  O   UNL     1      50.921   1.318  17.300  0.00  0.00    +0.000 OA
ATOM      9  C   UNL     1      51.821   2.050  17.713  0.00  0.00    +0.000 C 
ATOM     10  N   UNL     1      51.530   3.218  18.397  0.00  0.00    +0.000 N 
ATOM     11  H   UNL     1      52.307   3.804  18.687  0.00  0.00    +0.000 HD
BRANCH   9  12
ATOM     12  C   UNL     1      53.249   1.795  17.531  0.00  0.00    +0.000 A 
ATOM     13  N   UNL     1      53.745   0.611  17.217  0.00  0.00    +0.000 NA
ATOM     14  C   UNL     1      55.123   0.704  17.133  0.00  0.00    +0.000 A 
ATOM     15  C   UNL     1      55.658   1.945  17.398  0.00  0.00    +0.000 A 
ATOM     16  S   UNL     1      54.396   3.054  17.745  0.00  0.00    +0.000 S 
ENDBRANCH   9  12
ENDBRANCH   7  10
ENDBRANCH   1   7
BRANCH   4  17
ATOM     17  C   UNL     1      48.271   7.311  14.485  0.00  0.00    +0.000 C 
BRANCH  17  18
ATOM     18  N   UNL     1      47.031   6.841  13.923  0.00  0.00    +0.000 N 
ATOM     19  C   UNL     1      46.853   6.718  12.568  0.00  0.00    +0.000 C 
ATOM     20  O   UNL     1      47.751   6.950  11.765  0.00  0.00    +0.000 OA
ATOM     21  H   UNL     1      46.219   6.881  14.527  0.00  0.00    +0.000 HD
BRANCH  19  22
ATOM     22  C   UNL     1      45.539   6.224  12.133  0.00  0.00    +0.000 A 
ATOM     23  C   UNL     1      44.617   7.104  11.581  0.00  0.00    +0.000 A 
ATOM     24  S   UNL     1      43.182   6.345  11.054  0.00  0.00    +0.000 S 
ATOM     25  C   UNL     1      43.719   4.825  11.598  0.00  0.00    +0.000 A 
ATOM     26  N   UNL     1      42.944   3.716  11.459  0.00  0.00    +0.000 NA
ATOM     27  C   UNL     1      43.462   2.637  11.946  0.00  0.00    +0.000 A 
ATOM     28  N   UNL     1      44.686   2.568  12.560  0.00  0.00    +0.000 N 
ATOM     29  C   UNL     1      45.512   3.656  12.703  0.00  0.00    +0.000 A 
ATOM     30  O   UNL     1      46.612   3.553  13.234  0.00  0.00    +0.000 OA
ATOM     31  C   UNL     1      44.977   4.894  12.169  0.00  0.00    +0.000 A 
ATOM     32  H   UNL     1      45.036   1.693  12.922  0.00  0.00    +0.000 HD
ENDBRANCH  19  22
ENDBRANCH  17  18
ENDBRANCH   4  17
TORSDOF 6
ENDMDL
MODEL 6
REMARK VINA RESULT:    -6.702      4.724      7.359
REMARK INTER + INTRA:          -9.910
REMARK INTER:                  -9.072
REMARK INTRA:                  -0.838
REMARK UNBOUND:                -0.857
REMARK  Name = 
REMARK  6 active torsions:
REMARK  status: ('A' for Active; 'I' for Inactive)
REMARK    1  A    between atoms: C_2  and  C_25
REMARK    2  A    between atoms: N_3  and  C_4
REMARK    3  A    between atoms: C_4  and  C_5
REMARK    4  A    between atoms: C_8  and  C_9
REMARK    5  A    between atoms: C_9  and  N_10
REMARK    6  A    between atoms: C_11  and  C_13
REMARK                            x       y       z     vdW  Elec       q    Type
REMARK                         _______ _______ _______ _____ _____    ______ ____
ROOT
ATOM      1  C   UNL     1      50.397   8.710  11.265  0.00  0.00    +0.000 A 
ATOM      2  C   UNL     1      49.492   9.776  11.363  0.00  0.00    +0.000 A 
ATOM      3  C   UNL     1      48.239   9.595  11.958  0.00  0.00    +0.000 A 
ATOM      4  C   UNL     1      47.873   8.350  12.486  0.00  0.00    +0.000 A 
ATOM      5  C   UNL     1      48.770   7.280  12.367  0.00  0.00    +0.000 A 
ATOM      6  C   UNL     1      50.022   7.459  11.773  0.00  0.00    +0.000 A 
ENDROOT
BRANCH   1   7
ATOM      7  C   UNL     1      51.747   8.906  10.633  0.00  0.00    +0.000 C 
BRANCH   7  10
ATOM      8  O   UNL     1      53.218   9.017   8.297  0.00  0.00    +0.000 OA
ATOM      9  C   UNL     1      52.922   7.900   8.722  0.00  0.00    +0.000 C 
ATOM     10  N   UNL     1      52.168   7.755   9.874  0.00  0.00    +0.000 N 
ATOM     11  H   UNL     1      51.980   6.812  10.201  0.00  0.00    +0.000 HD
BRANCH   9  12
ATOM     12  C   UNL     1      53.322   6.641   8.098  0.00  0.00    +0.000 A 
ATOM     13  N   UNL     1      52.603   6.021   7.176  0.00  0.00    +0.000 NA
ATOM     14  C   UNL     1      53.251   4.856   6.803  0.00  0.00    +0.000 A 
ATOM     15  C   UNL     1      54.437   4.596   7.451  0.00  0.00    +0.000 A 
ATOM     16  S   UNL     1      54.781   5.861   8.558  0.00  0.00    +0.000 S 
ENDBRANCH   9  12
ENDBRANCH   7  10
ENDBRANCH   1   7
BRANCH   4  17
ATOM     17  C   UNL     1      46.526   8.145  13.132  0.00  0.00    +0.000 C 
BRANCH  17  18
ATOM     18  N   UNL     1      46.012   6.832  12.835  0.00  0.00    +0.000 N 
ATOM     19  C   UNL     1      45.100   6.623  11.832  0.00  0.00    +0.000 C 
ATOM     20  O   UNL     1      44.711   7.529  11.101  0.00  0.00    +0.000 OA
ATOM     21  H   UNL     1      46.119   6.132  13.559  0.00  0.00    +0.000 HD
BRANCH  19  22
ATOM     22  C   UNL     1      44.662   5.234  11.637  0.00  0.00    +0.000 A 
ATOM     23  C   UNL     1      43.978   4.574  12.650  0.00  0.00    +0.000 A 
ATOM     24  S   UNL     1      43.474   3.002  12.219  0.00  0.00    +0.000 S 
ATOM     25  C   UNL     1      44.202   3.126  10.687  0.00  0.00    +0.000 A 
ATOM     26  N   UNL     1      44.150   2.097   9.799  0.00  0.00    +0.000 NA
ATOM     27  C   UNL     1      44.774   2.316   8.690  0.00  0.00    +0.000 A 
ATOM     28  N   UNL     1      45.444   3.472   8.387  0.00  0.00    +0.000 N 
ATOM     29  C   UNL     1      45.506   4.545   9.242  0.00  0.00    +0.000 A 
ATOM     30  O   UNL     1      46.093   5.575   8.928  0.00  0.00    +0.000 OA
ATOM     31  C   UNL     1      44.817   4.351  10.504  0.00  0.00    +0.000 A 
ATOM     32  H   UNL     1      45.914   3.582   7.500  0.00  0.00    +0.000 HD
ENDBRANCH  19  22
ENDBRANCH  17  18
ENDBRANCH   4  17
TORSDOF 6
ENDMDL
MODEL 7
REMARK VINA RESULT:    -6.541      2.693      4.360
REMARK INTER + INTRA:          -9.693
REMARK INTER:                  -8.598
REMARK INTRA:                  -1.094
REMARK UNBOUND:                -0.857
REMARK  Name = 
REMARK  6 active torsions:
REMARK  status: ('A' for Active; 'I' for Inactive)
REMARK    1  A    between atoms: C_2  and  C_25
REMARK    2  A    between atoms: N_3  and  C_4
REMARK    3  A    between atoms: C_4  and  C_5
REMARK    4  A    between atoms: C_8  and  C_9
REMARK    5  A    between atoms: C_9  and  N_10
REMARK    6  A    between atoms: C_11  and  C_13
REMARK                            x       y       z     vdW  Elec       q    Type
REMARK                         _______ _______ _______ _____ _____    ______ ____
ROOT
ATOM      1  C   UNL     1      45.267   4.906  11.418  0.00  0.00    +0.000 A 
ATOM      2  C   UNL     1      45.372   3.954  12.440  0.00  0.00    +0.000 A 
ATOM      3  C   UNL     1      46.134   4.217  13.585  0.00  0.00    +0.000 A 
ATOM      4  C   UNL     1      46.789   5.446  13.738  0.00  0.00    +0.000 A 
ATOM      5  C   UNL     1      46.702   6.388  12.705  0.00  0.00    +0.000 A 
ATOM      6  C   UNL     1      45.941   6.127  11.562  0.00  0.00    +0.000 A 
ENDROOT
BRANCH   1   7
ATOM      7  C   UNL     1      44.442   4.628  10.192  0.00  0.00    +0.000 C 
BRANCH   7  10
ATOM      8  O   UNL     1      44.981   2.046   9.369  0.00  0.00    +0.000 OA
ATOM      9  C   UNL     1      45.458   2.962   8.697  0.00  0.00    +0.000 C 
ATOM     10  N   UNL     1      45.255   4.284   9.052  0.00  0.00    +0.000 N 
ATOM     11  H   UNL     1      45.640   5.002   8.446  0.00  0.00    +0.000 HD
BRANCH   9  12
ATOM     12  C   UNL     1      46.253   2.776   7.485  0.00  0.00    +0.000 A 
ATOM     13  N   UNL     1      46.291   3.652   6.495  0.00  0.00    +0.000 NA
ATOM     14  C   UNL     1      47.123   3.173   5.498  0.00  0.00    +0.000 A 
ATOM     15  C   UNL     1      47.691   1.941   5.731  0.00  0.00    +0.000 A 
ATOM     16  S   UNL     1      47.193   1.356   7.265  0.00  0.00    +0.000 S 
ENDBRANCH   9  12
ENDBRANCH   7  10
ENDBRANCH   1   7
BRANCH   4  17
ATOM     17  C   UNL     1      47.610   5.740  14.968  0.00  0.00    +0.000 C 
BRANCH  17  18
ATOM     18  N   UNL     1      48.423   6.913  14.770  0.00  0.00    +0.000 N 
ATOM     19  C   UNL     1      49.675   7.026  15.319  0.00  0.00    +0.000 C 
ATOM     20  O   UNL     1      50.192   6.118  15.962  0.00  0.00    +0.000 OA
ATOM     21  H   UNL     1      47.939   7.750  14.467  0.00  0.00    +0.000 HD
BRANCH  19  22
ATOM     22  C   UNL     1      50.394   8.275  15.035  0.00  0.00    +0.000 A 
ATOM     23  C   UNL     1      50.784   9.103  16.080  0.00  0.00    +0.000 A 
ATOM     24  S   UNL     1      51.681  10.464  15.574  0.00  0.00    +0.000 S 
ATOM     25  C   UNL     1      51.527  10.027  13.937  0.00  0.00    +0.000 A 
ATOM     26  N   UNL     1      52.071  10.791  12.952  0.00  0.00    +0.000 NA
ATOM     27  C   UNL     1      51.849  10.359  11.755  0.00  0.00    +0.000 A 
ATOM     28  N   UNL     1      51.132   9.230  11.454  0.00  0.00    +0.000 N 
ATOM     29  C   UNL     1      50.583   8.416  12.415  0.00  0.00    +0.000 A 
ATOM     30  O   UNL     1      49.970   7.398  12.111  0.00  0.00    +0.000 OA
ATOM     31  C   UNL     1      50.807   8.856  13.779  0.00  0.00    +0.000 A 
ATOM     32  H   UNL     1      50.992   8.944  10.496  0.00  0.00    +0.000 HD
ENDBRANCH  19  22
ENDBRANCH  17  18
ENDBRANCH   4  17
TORSDOF 6
ENDMDL
MODEL 8
REMARK VINA RESULT:    -6.457      3.749      9.614
REMARK INTER + INTRA:          -9.580
REMARK INTER:                  -8.742
REMARK INTRA:                  -0.838
REMARK UNBOUND:                -0.857
REMARK  Name = 
REMARK  6 active torsions:
REMARK  status: ('A' for Active; 'I' for Inactive)
REMARK    1  A    between atoms: C_2  and  C_25
REMARK    2  A    between atoms: N_3  and  C_4
REMARK    3  A    between atoms: C_4  and  C_5
REMARK    4  A    between atoms: C_8  and  C_9
REMARK    5  A    between atoms: C_9  and  N_10
REMARK    6  A    between atoms: C_11  and  C_13
REMARK                            x       y       z     vdW  Elec       q    Type
REMARK                         _______ _______ _______ _____ _____    ______ ____
ROOT
ATOM      1  C   UNL     1      51.431   3.672  17.691  0.00  0.00    +0.000 A 
ATOM      2  C   UNL     1      50.604   4.802  17.715  0.00  0.00    +0.000 A 
ATOM      3  C   UNL     1      49.238   4.692  17.429  0.00  0.00    +0.000 A 
ATOM      4  C   UNL     1      48.669   3.447  17.135  0.00  0.00    +0.000 A 
ATOM      5  C   UNL     1      49.502   2.321  17.089  0.00  0.00    +0.000 A 
ATOM      6  C   UNL     1      50.866   2.430  17.374  0.00  0.00    +0.000 A 
ENDROOT
BRANCH   1   7
ATOM      7  C   UNL     1      52.897   3.787  18.005  0.00  0.00    +0.000 C 
BRANCH   7  10
ATOM      8  O   UNL     1      53.976   5.454  19.926  0.00  0.00    +0.000 OA
ATOM      9  C   UNL     1      53.954   5.872  18.768  0.00  0.00    +0.000 C 
ATOM     10  N   UNL     1      53.410   5.110  17.748  0.00  0.00    +0.000 N 
ATOM     11  H   UNL     1      53.447   5.485  16.806  0.00  0.00    +0.000 HD
BRANCH   9  12
ATOM     12  C   UNL     1      54.485   7.164  18.341  0.00  0.00    +0.000 A 
ATOM     13  N   UNL     1      54.155   7.749  17.201  0.00  0.00    +0.000 NA
ATOM     14  C   UNL     1      54.838   8.947  17.092  0.00  0.00    +0.000 A 
ATOM     15  C   UNL     1      55.686   9.252  18.133  0.00  0.00    +0.000 A 
ATOM     16  S   UNL     1      55.620   8.009  19.314  0.00  0.00    +0.000 S 
ENDBRANCH   9  12
ENDBRANCH   7  10
ENDBRANCH   1   7
BRANCH   4  17
ATOM     17  C   UNL     1      47.199   3.318  16.828  0.00  0.00    +0.000 C 
BRANCH  17  18
ATOM     18  N   UNL     1      46.784   4.325  15.885  0.00  0.00    +0.000 N 
ATOM     19  C   UNL     1      46.836   4.112  14.531  0.00  0.00    +0.000 C 
ATOM     20  O   UNL     1      47.188   3.039  14.049  0.00  0.00    +0.000 OA
ATOM     21  H   UNL     1      46.730   5.274  16.234  0.00  0.00    +0.000 HD
BRANCH  19  22
ATOM     22  C   UNL     1      46.380   5.223  13.685  0.00  0.00    +0.000 A 
ATOM     23  C   UNL     1      47.201   6.325  13.486  0.00  0.00    +0.000 A 
ATOM     24  S   UNL     1      46.547   7.477  12.410  0.00  0.00    +0.000 S 
ATOM     25  C   UNL     1      45.119   6.572  12.218  0.00  0.00    +0.000 A 
ATOM     26  N   UNL     1      44.112   7.010  11.417  0.00  0.00    +0.000 NA
ATOM     27  C   UNL     1      43.076   6.240  11.391  0.00  0.00    +0.000 A 
ATOM     28  N   UNL     1      42.955   5.071  12.095  0.00  0.00    +0.000 N 
ATOM     29  C   UNL     1      43.953   4.577  12.899  0.00  0.00    +0.000 A 
ATOM     30  O   UNL     1      43.822   3.513  13.494  0.00  0.00    +0.000 OA
ATOM     31  C   UNL     1      45.143   5.404  12.960  0.00  0.00    +0.000 A 
ATOM     32  H   UNL     1      42.116   4.512  12.033  0.00  0.00    +0.000 HD
ENDBRANCH  19  22
ENDBRANCH  17  18
ENDBRANCH   4  17
TORSDOF 6
ENDMDL
MODEL 9
REMARK VINA RESULT:    -6.354      5.621      7.977
REMARK INTER + INTRA:          -9.440
REMARK INTER:                  -8.515
REMARK INTRA:                  -0.926
REMARK UNBOUND:                -0.857
REMARK  Name = 
REMARK  6 active torsions:
REMARK  status: ('A' for Active; 'I' for Inactive)
REMARK    1  A    between atoms: C_2  and  C_25
REMARK    2  A    between atoms: N_3  and  C_4
REMARK    3  A    between atoms: C_4  and  C_5
REMARK    4  A    between atoms: C_8  and  C_9
REMARK    5  A    between atoms: C_9  and  N_10
REMARK    6  A    between atoms: C_11  and  C_13
REMARK                            x       y       z     vdW  Elec       q    Type
REMARK                         _______ _______ _______ _____ _____    ______ ____
ROOT
ATOM      1  C   UNL     1      48.875   6.996  13.696  0.00  0.00    +0.000 A 
ATOM      2  C   UNL     1      48.779   7.165  12.309  0.00  0.00    +0.000 A 
ATOM      3  C   UNL     1      49.743   7.904  11.612  0.00  0.00    +0.000 A 
ATOM      4  C   UNL     1      50.831   8.471  12.287  0.00  0.00    +0.000 A 
ATOM      5  C   UNL     1      50.913   8.321  13.677  0.00  0.00    +0.000 A 
ATOM      6  C   UNL     1      49.952   7.584  14.374  0.00  0.00    +0.000 A 
ENDROOT
BRANCH   1   7
ATOM      7  C   UNL     1      47.845   6.196  14.445  0.00  0.00    +0.000 C 
BRANCH   7  10
ATOM      8  O   UNL     1      46.919   3.610  14.147  0.00  0.00    +0.000 OA
ATOM      9  C   UNL     1      46.322   4.495  13.532  0.00  0.00    +0.000 C 
ATOM     10  N   UNL     1      46.734   5.815  13.609  0.00  0.00    +0.000 N 
ATOM     11  H   UNL     1      46.188   6.511  13.111  0.00  0.00    +0.000 HD
BRANCH   9  12
ATOM     12  C   UNL     1      45.147   4.276  12.692  0.00  0.00    +0.000 A 
ATOM     13  N   UNL     1      44.353   3.224  12.807  0.00  0.00    +0.000 NA
ATOM     14  C   UNL     1      43.347   3.310  11.860  0.00  0.00    +0.000 A 
ATOM     15  C   UNL     1      43.396   4.409  11.031  0.00  0.00    +0.000 A 
ATOM     16  S   UNL     1      44.734   5.394  11.456  0.00  0.00    +0.000 S 
ENDBRANCH   9  12
ENDBRANCH   7  10
ENDBRANCH   1   7
BRANCH   4  17
ATOM     17  C   UNL     1      51.875   9.267  11.545  0.00  0.00    +0.000 C 
BRANCH  17  18
ATOM     18  N   UNL     1      52.112   8.707  10.239  0.00  0.00    +0.000 N 
ATOM     19  C   UNL     1      53.250   8.988   9.527  0.00  0.00    +0.000 C 
ATOM     20  O   UNL     1      54.151   9.686   9.982  0.00  0.00    +0.000 OA
ATOM     21  H   UNL     1      51.301   8.344   9.751  0.00  0.00    +0.000 HD
BRANCH  19  22
ATOM     22  C   UNL     1      53.362   8.348   8.210  0.00  0.00    +0.000 A 
ATOM     23  C   UNL     1      53.337   9.123   7.058  0.00  0.00    +0.000 A 
ATOM     24  S   UNL     1      53.565   8.224   5.626  0.00  0.00    +0.000 S 
ATOM     25  C   UNL     1      53.647   6.761   6.490  0.00  0.00    +0.000 A 
ATOM     26  N   UNL     1      53.824   5.575   5.848  0.00  0.00    +0.000 NA
ATOM     27  C   UNL     1      53.833   4.543   6.624  0.00  0.00    +0.000 A 
ATOM     28  N   UNL     1      53.682   4.589   7.985  0.00  0.00    +0.000 N 
ATOM     29  C   UNL     1      53.522   5.764   8.679  0.00  0.00    +0.000 A 
ATOM     30  O   UNL     1      53.415   5.771   9.901  0.00  0.00    +0.000 OA
ATOM     31  C   UNL     1      53.507   6.955   7.852  0.00  0.00    +0.000 A 
ATOM     32  H   UNL     1      53.697   3.744   8.538  0.00  0.00    +0.000 HD
ENDBRANCH  19  22
ENDBRANCH  17  18
ENDBRANCH   4  17
TORSDOF 6
ENDMDL
