MODEL 1
REMARK VINA RESULT:    -7.955      0.000      0.000
REMARK INTER + INTRA:         -11.196
REMARK INTER:                 -10.280
REMARK INTRA:                  -0.916
REMARK UNBOUND:                -0.916
REMARK  Name = 
REMARK  6 active torsions:
REMARK  status: ('A' for Active; 'I' for Inactive)
REMARK    1  A    between atoms: C_1  and  C_2
REMARK    2  A    between atoms: N_9  and  C_10
REMARK    3  A    between atoms: C_10  and  C_11
REMARK    4  A    between atoms: C_14  and  C_15
REMARK    5  A    between atoms: C_15  and  N_16
REMARK    6  A    between atoms: C_17  and  C_19
REMARK                            x       y       z     vdW  Elec       q    Type
REMARK                         _______ _______ _______ _____ _____    ______ ____
ROOT
ATOM      1  C   UNL     1      44.746   4.718  11.899  0.00  0.00    +0.000 C 
ATOM      2  C   UNL     1      45.346   5.810  11.006  0.00  0.00    +0.000 C 
ATOM      3  C   UNL     1      45.901   6.963  11.829  0.00  0.00    +0.000 C 
ATOM      4  C   UNL     1      46.961   6.483  12.829  0.00  0.00    +0.000 C 
ATOM      5  C   UNL     1      46.392   5.373  13.725  0.00  0.00    +0.000 C 
ATOM      6  C   UNL     1      45.790   4.223  12.914  0.00  0.00    +0.000 C 
ENDROOT
BRANCH   1   7
ATOM      7  C   UNL     1      44.214   3.560  11.047  0.00  0.00    +0.000 C 
BRANCH   7  16
ATOM      8  C   UNL     1      46.422   4.265   7.279  0.00  0.00    +0.000 C 
ATOM      9  C   UNL     1      46.693   2.809   7.443  0.00  0.00    +0.000 A 
ATOM     10  C   UNL     1      47.632   2.052   6.759  0.00  0.00    +0.000 A 
ATOM     11  C   UNL     1      47.451   0.700   7.110  0.00  0.00    +0.000 A 
ATOM     12  C   UNL     1      46.385   0.652   7.973  0.00  0.00    +0.000 A 
ATOM     13  N   UNL     1      45.925   1.937   8.223  0.00  0.00    +0.000 N 
ATOM     14  C   UNL     1      44.854   2.197   9.106  0.00  0.00    +0.000 C 
ATOM     15  O   UNL     1      43.909   1.426   9.158  0.00  0.00    +0.000 OA
ATOM     16  N   UNL     1      45.106   3.258   9.941  0.00  0.00    +0.000 N 
ATOM     17  H   UNL     1      46.029   3.674   9.944  0.00  0.00    +0.000 HD
ENDBRANCH   7  16
ENDBRANCH   1   7
BRANCH   4  18
ATOM     18  C   UNL     1      47.475   7.650  13.681  0.00  0.00    +0.000 C 
BRANCH  18  19
ATOM     19  N   UNL     1      47.943   7.195  14.974  0.00  0.00    +0.000 N 
ATOM     20  C   UNL     1      49.274   7.015  15.254  0.00  0.00    +0.000 C 
ATOM     21  O   UNL     1      50.148   7.144  14.401  0.00  0.00    +0.000 OA
ATOM     22  H   UNL     1      47.278   7.222  15.741  0.00  0.00    +0.000 HD
BRANCH  20  23
ATOM     23  C   UNL     1      49.609   6.635  16.630  0.00  0.00    +0.000 A 
ATOM     24  C   UNL     1      50.348   7.503  17.423  0.00  0.00    +0.000 A 
ATOM     25  S   UNL     1      50.554   6.956  19.025  0.00  0.00    +0.000 S 
ATOM     26  C   UNL     1      49.626   5.560  18.724  0.00  0.00    +0.000 A 
ATOM     27  N   UNL     1      49.320   4.691  19.724  0.00  0.00    +0.000 NA
ATOM     28  C   UNL     1      48.584   3.696  19.356  0.00  0.00    +0.000 A 
ATOM     29  N   UNL     1      48.166   3.467  18.071  0.00  0.00    +0.000 N 
ATOM     30  C   UNL     1      48.519   4.268  17.015  0.00  0.00    +0.000 A 
ATOM     31  O   UNL     1      48.266   3.956  15.858  0.00  0.00    +0.000 OA
ATOM     32  C   UNL     1      49.253   5.466  17.396  0.00  0.00    +0.000 A 
ATOM     33  H   UNL     1      47.648   2.626  17.844  0.00  0.00    +0.000 HD
ENDBRANCH  20  23
ENDBRANCH  18  19
ENDBRANCH   4  18
TORSDOF 5
ENDMDL
MODEL 2
REMARK VINA RESULT:    -7.649      1.710      2.397
REMARK INTER + INTRA:         -10.802
REMARK INTER:                  -9.640
REMARK INTRA:                  -1.162
REMARK UNBOUND:                -0.916
REMARK  Name = 
REMARK  6 active torsions:
REMARK  status: ('A' for Active; 'I' for Inactive)
REMARK    1  A    between atoms: C_1  and  C_2
REMARK    2  A    between atoms: N_9  and  C_10
REMARK    3  A    between atoms: C_10  and  C_11
REMARK    4  A    between atoms: C_14  and  C_15
REMARK    5  A    between atoms: C_15  and  N_16
REMARK    6  A    between atoms: C_17  and  C_19
REMARK                            x       y       z     vdW  Elec       q    Type
REMARK                         _______ _______ _______ _____ _____    ______ ____
ROOT
ATOM      1  C   UNL     1      46.353   6.929  12.072  0.00  0.00    +0.000 C 
ATOM      2  C   UNL     1      46.100   8.230  12.843  0.00  0.00    +0.000 C 
ATOM      3  C   UNL     1      47.191   8.494  13.869  0.00  0.00    +0.000 C 
ATOM      4  C   UNL     1      48.578   8.552  13.215  0.00  0.00    +0.000 C 
ATOM      5  C   UNL     1      48.851   7.267  12.419  0.00  0.00    +0.000 C 
ATOM      6  C   UNL     1      47.741   6.961  11.410  0.00  0.00    +0.000 C 
ENDROOT
BRANCH   1   7
ATOM      7  C   UNL     1      45.252   6.698  11.031  0.00  0.00    +0.000 C 
BRANCH   7  16
ATOM      8  C   UNL     1      46.693   4.428   7.517  0.00  0.00    +0.000 C 
ATOM      9  C   UNL     1      45.987   3.330   8.235  0.00  0.00    +0.000 A 
ATOM     10  C   UNL     1      46.081   1.970   7.980  0.00  0.00    +0.000 A 
ATOM     11  C   UNL     1      45.137   1.303   8.786  0.00  0.00    +0.000 A 
ATOM     12  C   UNL     1      44.463   2.268   9.490  0.00  0.00    +0.000 A 
ATOM     13  N   UNL     1      44.991   3.518   9.199  0.00  0.00    +0.000 N 
ATOM     14  C   UNL     1      44.513   4.699   9.809  0.00  0.00    +0.000 C 
ATOM     15  O   UNL     1      43.322   4.823  10.044  0.00  0.00    +0.000 OA
ATOM     16  N   UNL     1      45.530   5.530  10.212  0.00  0.00    +0.000 N 
ATOM     17  H   UNL     1      46.486   5.202  10.156  0.00  0.00    +0.000 HD
ENDBRANCH   7  16
ENDBRANCH   1   7
BRANCH   4  18
ATOM     18  C   UNL     1      49.670   8.772  14.270  0.00  0.00    +0.000 C 
BRANCH  18  19
ATOM     19  N   UNL     1      49.733   7.668  15.204  0.00  0.00    +0.000 N 
ATOM     20  C   UNL     1      49.285   7.769  16.497  0.00  0.00    +0.000 C 
ATOM     21  O   UNL     1      48.881   8.827  16.971  0.00  0.00    +0.000 OA
ATOM     22  H   UNL     1      49.916   6.746  14.817  0.00  0.00    +0.000 HD
BRANCH  20  23
ATOM     23  C   UNL     1      49.330   6.545  17.305  0.00  0.00    +0.000 A 
ATOM     24  C   UNL     1      50.045   6.532  18.495  0.00  0.00    +0.000 A 
ATOM     25  S   UNL     1      49.902   5.070  19.361  0.00  0.00    +0.000 S 
ATOM     26  C   UNL     1      48.847   4.420  18.193  0.00  0.00    +0.000 A 
ATOM     27  N   UNL     1      48.258   3.209  18.376  0.00  0.00    +0.000 NA
ATOM     28  C   UNL     1      47.458   2.857  17.425  0.00  0.00    +0.000 A 
ATOM     29  N   UNL     1      47.229   3.587  16.288  0.00  0.00    +0.000 N 
ATOM     30  C   UNL     1      47.863   4.774  16.020  0.00  0.00    +0.000 A 
ATOM     31  O   UNL     1      47.762   5.326  14.931  0.00  0.00    +0.000 OA
ATOM     32  C   UNL     1      48.688   5.269  17.113  0.00  0.00    +0.000 A 
ATOM     33  H   UNL     1      46.641   3.215  15.551  0.00  0.00    +0.000 HD
ENDBRANCH  20  23
ENDBRANCH  18  19
ENDBRANCH   4  18
TORSDOF 5
ENDMDL
MODEL 3
REMARK VINA RESULT:    -6.979      1.606      2.028
REMARK INTER + INTRA:          -9.935
REMARK INTER:                  -9.150
REMARK INTRA:                  -0.785
REMARK UNBOUND:                -0.916
REMARK  Name = 
REMARK  6 active torsions:
REMARK  status: ('A' for Active; 'I' for Inactive)
REMARK    1  A    between atoms: C_1  and  C_2
REMARK    2  A    between atoms: N_9  and  C_10
REMARK    3  A    between atoms: C_10  and  C_11
REMARK    4  A    between atoms: C_14  and  C_15
REMARK    5  A    between atoms: C_15  and  N_16
REMARK    6  A    between atoms: C_17  and  C_19
REMARK                            x       y       z     vdW  Elec       q    Type
REMARK                         _______ _______ _______ _____ _____    ______ ____
ROOT
ATOM      1  C   UNL     1      44.903   5.184  11.588  0.00  0.00    +0.000 C 
ATOM      2  C   UNL     1      45.658   6.313  10.878  0.00  0.00    +0.000 C 
ATOM      3  C   UNL     1      46.392   7.204  11.869  0.00  0.00    +0.000 C 
ATOM      4  C   UNL     1      47.373   6.399  12.731  0.00  0.00    +0.000 C 
ATOM      5  C   UNL     1      46.647   5.246  13.439  0.00  0.00    +0.000 C 
ATOM      6  C   UNL     1      45.866   4.363  12.462  0.00  0.00    +0.000 C 
ENDROOT
BRANCH   1   7
ATOM      7  C   UNL     1      44.190   4.289  10.566  0.00  0.00    +0.000 C 
BRANCH   7  16
ATOM      8  C   UNL     1      46.671   4.234   6.904  0.00  0.00    +0.000 C 
ATOM      9  C   UNL     1      46.811   2.806   7.306  0.00  0.00    +0.000 A 
ATOM     10  C   UNL     1      47.725   1.886   6.815  0.00  0.00    +0.000 A 
ATOM     11  C   UNL     1      47.413   0.622   7.353  0.00  0.00    +0.000 A 
ATOM     12  C   UNL     1      46.297   0.787   8.134  0.00  0.00    +0.000 A 
ATOM     13  N   UNL     1      45.930   2.125   8.152  0.00  0.00    +0.000 N 
ATOM     14  C   UNL     1      44.832   2.596   8.906  0.00  0.00    +0.000 C 
ATOM     15  O   UNL     1      43.826   1.913   9.006  0.00  0.00    +0.000 OA
ATOM     16  N   UNL     1      45.120   3.755   9.586  0.00  0.00    +0.000 N 
ATOM     17  H   UNL     1      46.072   4.099   9.593  0.00  0.00    +0.000 HD
ENDBRANCH   7  16
ENDBRANCH   1   7
BRANCH   4  18
ATOM     18  C   UNL     1      48.070   7.305  13.755  0.00  0.00    +0.000 C 
BRANCH  18  19
ATOM     19  N   UNL     1      48.609   6.538  14.858  0.00  0.00    +0.000 N 
ATOM     20  C   UNL     1      48.848   7.090  16.091  0.00  0.00    +0.000 C 
ATOM     21  O   UNL     1      48.702   8.289  16.314  0.00  0.00    +0.000 OA
ATOM     22  H   UNL     1      48.601   5.527  14.764  0.00  0.00    +0.000 HD
BRANCH  20  23
ATOM     23  C   UNL     1      49.312   6.176  17.140  0.00  0.00    +0.000 A 
ATOM     24  C   UNL     1      48.396   5.625  18.027  0.00  0.00    +0.000 A 
ATOM     25  S   UNL     1      49.086   4.502  19.110  0.00  0.00    +0.000 S 
ATOM     26  C   UNL     1      50.624   4.685  18.402  0.00  0.00    +0.000 A 
ATOM     27  N   UNL     1      51.675   3.918  18.797  0.00  0.00    +0.000 NA
ATOM     28  C   UNL     1      52.770   4.143  18.152  0.00  0.00    +0.000 A 
ATOM     29  N   UNL     1      52.921   5.097  17.179  0.00  0.00    +0.000 N 
ATOM     30  C   UNL     1      51.915   5.950  16.806  0.00  0.00    +0.000 A 
ATOM     31  O   UNL     1      52.118   6.894  16.051  0.00  0.00    +0.000 OA
ATOM     32  C   UNL     1      50.629   5.661  17.423  0.00  0.00    +0.000 A 
ATOM     33  H   UNL     1      53.831   5.264  16.764  0.00  0.00    +0.000 HD
ENDBRANCH  20  23
ENDBRANCH  18  19
ENDBRANCH   4  18
TORSDOF 5
ENDMDL
MODEL 4
REMARK VINA RESULT:    -6.769      4.869      8.072
REMARK INTER + INTRA:          -9.665
REMARK INTER:                  -8.784
REMARK INTRA:                  -0.881
REMARK UNBOUND:                -0.916
REMARK  Name = 
REMARK  6 active torsions:
REMARK  status: ('A' for Active; 'I' for Inactive)
REMARK    1  A    between atoms: C_1  and  C_2
REMARK    2  A    between atoms: N_9  and  C_10
REMARK    3  A    between atoms: C_10  and  C_11
REMARK    4  A    between atoms: C_14  and  C_15
REMARK    5  A    between atoms: C_15  and  N_16
REMARK    6  A    between atoms: C_17  and  C_19
REMARK                            x       y       z     vdW  Elec       q    Type
REMARK                         _______ _______ _______ _____ _____    ______ ____
ROOT
ATOM      1  C   UNL     1      50.702   8.999  12.302  0.00  0.00    +0.000 C 
ATOM      2  C   UNL     1      50.019   7.753  11.727  0.00  0.00    +0.000 C 
ATOM      3  C   UNL     1      48.731   7.429  12.468  0.00  0.00    +0.000 C 
ATOM      4  C   UNL     1      47.750   8.609  12.436  0.00  0.00    +0.000 C 
ATOM      5  C   UNL     1      48.415   9.877  12.989  0.00  0.00    +0.000 C 
ATOM      6  C   UNL     1      49.736  10.195  12.284  0.00  0.00    +0.000 C 
ENDROOT
BRANCH   1   7
ATOM      7  C   UNL     1      51.985   9.316  11.525  0.00  0.00    +0.000 C 
BRANCH   7  16
ATOM      8  C   UNL     1      54.456   5.809  10.443  0.00  0.00    +0.000 C 
ATOM      9  C   UNL     1      53.675   5.947   9.181  0.00  0.00    +0.000 A 
ATOM     10  C   UNL     1      53.577   5.019   8.155  0.00  0.00    +0.000 A 
ATOM     11  C   UNL     1      52.867   5.611   7.091  0.00  0.00    +0.000 A 
ATOM     12  C   UNL     1      52.577   6.897   7.473  0.00  0.00    +0.000 A 
ATOM     13  N   UNL     1      53.029   7.116   8.766  0.00  0.00    +0.000 N 
ATOM     14  C   UNL     1      52.836   8.346   9.435  0.00  0.00    +0.000 C 
ATOM     15  O   UNL     1      52.907   9.393   8.812  0.00  0.00    +0.000 OA
ATOM     16  N   UNL     1      52.423   8.178  10.734  0.00  0.00    +0.000 N 
ATOM     17  H   UNL     1      52.186   7.249  11.060  0.00  0.00    +0.000 HD
ENDBRANCH   7  16
ENDBRANCH   1   7
BRANCH   4  18
ATOM     18  C   UNL     1      46.476   8.281  13.227  0.00  0.00    +0.000 C 
BRANCH  18  19
ATOM     19  N   UNL     1      45.995   6.949  12.925  0.00  0.00    +0.000 N 
ATOM     20  C   UNL     1      45.025   6.712  11.984  0.00  0.00    +0.000 C 
ATOM     21  O   UNL     1      44.441   7.621  11.400  0.00  0.00    +0.000 OA
ATOM     22  H   UNL     1      46.547   6.170  13.270  0.00  0.00    +0.000 HD
BRANCH  20  23
ATOM     23  C   UNL     1      44.697   5.307  11.720  0.00  0.00    +0.000 A 
ATOM     24  C   UNL     1      44.055   4.555  12.695  0.00  0.00    +0.000 A 
ATOM     25  S   UNL     1      43.651   2.979  12.185  0.00  0.00    +0.000 S 
ATOM     26  C   UNL     1      44.282   3.263  10.629  0.00  0.00    +0.000 A 
ATOM     27  N   UNL     1      44.164   2.336   9.643  0.00  0.00    +0.000 NA
ATOM     28  C   UNL     1      44.660   2.699   8.508  0.00  0.00    +0.000 A 
ATOM     29  N   UNL     1      45.304   3.889   8.283  0.00  0.00    +0.000 N 
ATOM     30  C   UNL     1      45.522   4.820   9.266  0.00  0.00    +0.000 A 
ATOM     31  O   UNL     1      46.235   5.798   9.079  0.00  0.00    +0.000 OA
ATOM     32  C   UNL     1      44.882   4.506  10.536  0.00  0.00    +0.000 A 
ATOM     33  H   UNL     1      45.730   4.077   7.382  0.00  0.00    +0.000 HD
ENDBRANCH  20  23
ENDBRANCH  18  19
ENDBRANCH   4  18
TORSDOF 5
ENDMDL
MODEL 5
REMARK VINA RESULT:    -6.672      2.321      2.947
REMARK INTER + INTRA:          -9.539
REMARK INTER:                  -8.851
REMARK INTRA:                  -0.688
REMARK UNBOUND:                -0.916
REMARK  Name = 
REMARK  6 active torsions:
REMARK  status: ('A' for Active; 'I' for Inactive)
REMARK    1  A    between atoms: C_1  and  C_2
REMARK    2  A    between atoms: N_9  and  C_10
REMARK    3  A    between atoms: C_10  and  C_11
REMARK    4  A    between atoms: C_14  and  C_15
REMARK    5  A    between atoms: C_15  and  N_16
REMARK    6  A    between atoms: C_17  and  C_19
REMARK                            x       y       z     vdW  Elec       q    Type
REMARK                         _______ _______ _______ _____ _____    ______ ____
ROOT
ATOM      1  C   UNL     1      44.908   5.012  11.567  0.00  0.00    +0.000 C 
ATOM      2  C   UNL     1      46.140   5.916  11.688  0.00  0.00    +0.000 C 
ATOM      3  C   UNL     1      46.688   5.929  13.107  0.00  0.00    +0.000 C 
ATOM      4  C   UNL     1      47.044   4.515  13.587  0.00  0.00    +0.000 C 
ATOM      5  C   UNL     1      45.832   3.581  13.458  0.00  0.00    +0.000 C 
ATOM      6  C   UNL     1      45.240   3.588  12.046  0.00  0.00    +0.000 C 
ENDROOT
BRANCH   1   7
ATOM      7  C   UNL     1      44.390   4.999  10.124  0.00  0.00    +0.000 C 
BRANCH   7  16
ATOM      8  C   UNL     1      46.850   4.089   6.562  0.00  0.00    +0.000 C 
ATOM      9  C   UNL     1      46.821   2.735   7.182  0.00  0.00    +0.000 A 
ATOM     10  C   UNL     1      47.621   1.650   6.855  0.00  0.00    +0.000 A 
ATOM     11  C   UNL     1      47.162   0.530   7.576  0.00  0.00    +0.000 A 
ATOM     12  C   UNL     1      46.073   0.942   8.301  0.00  0.00    +0.000 A 
ATOM     13  N   UNL     1      45.865   2.300   8.106  0.00  0.00    +0.000 N 
ATOM     14  C   UNL     1      44.830   3.006   8.758  0.00  0.00    +0.000 C 
ATOM     15  O   UNL     1      43.750   2.468   8.942  0.00  0.00    +0.000 OA
ATOM     16  N   UNL     1      45.251   4.215   9.256  0.00  0.00    +0.000 N 
ATOM     17  H   UNL     1      46.237   4.443   9.227  0.00  0.00    +0.000 HD
ENDBRANCH   7  16
ENDBRANCH   1   7
BRANCH   4  18
ATOM     18  C   UNL     1      47.550   4.542  15.035  0.00  0.00    +0.000 C 
BRANCH  18  19
ATOM     19  N   UNL     1      47.712   5.900  15.513  0.00  0.00    +0.000 N 
ATOM     20  C   UNL     1      48.810   6.302  16.231  0.00  0.00    +0.000 C 
ATOM     21  O   UNL     1      49.684   5.516  16.590  0.00  0.00    +0.000 OA
ATOM     22  H   UNL     1      47.098   6.605  15.116  0.00  0.00    +0.000 HD
BRANCH  20  23
ATOM     23  C   UNL     1      48.883   7.726  16.575  0.00  0.00    +0.000 A 
ATOM     24  C   UNL     1      49.522   8.609  15.714  0.00  0.00    +0.000 A 
ATOM     25  S   UNL     1      49.420  10.238  16.210  0.00  0.00    +0.000 S 
ATOM     26  C   UNL     1      48.484   9.821  17.570  0.00  0.00    +0.000 A 
ATOM     27  N   UNL     1      47.965  10.777  18.385  0.00  0.00    +0.000 NA
ATOM     28  C   UNL     1      47.250  10.317  19.357  0.00  0.00    +0.000 A 
ATOM     29  N   UNL     1      47.046   8.985  19.613  0.00  0.00    +0.000 N 
ATOM     30  C   UNL     1      47.617   7.984  18.870  0.00  0.00    +0.000 A 
ATOM     31  O   UNL     1      47.549   6.810  19.213  0.00  0.00    +0.000 OA
ATOM     32  C   UNL     1      48.339   8.451  17.695  0.00  0.00    +0.000 A 
ATOM     33  H   UNL     1      46.530   8.697  20.437  0.00  0.00    +0.000 HD
ENDBRANCH  20  23
ENDBRANCH  18  19
ENDBRANCH   4  18
TORSDOF 5
ENDMDL
MODEL 6
REMARK VINA RESULT:    -6.584      2.819      4.115
REMARK INTER + INTRA:          -9.425
REMARK INTER:                  -8.490
REMARK INTRA:                  -0.936
REMARK UNBOUND:                -0.916
REMARK  Name = 
REMARK  6 active torsions:
REMARK  status: ('A' for Active; 'I' for Inactive)
REMARK    1  A    between atoms: C_1  and  C_2
REMARK    2  A    between atoms: N_9  and  C_10
REMARK    3  A    between atoms: C_10  and  C_11
REMARK    4  A    between atoms: C_14  and  C_15
REMARK    5  A    between atoms: C_15  and  N_16
REMARK    6  A    between atoms: C_17  and  C_19
REMARK                            x       y       z     vdW  Elec       q    Type
REMARK                         _______ _______ _______ _____ _____    ______ ____
ROOT
ATOM      1  C   UNL     1      47.089   7.510  13.229  0.00  0.00    +0.000 C 
ATOM      2  C   UNL     1      47.620   8.853  13.746  0.00  0.00    +0.000 C 
ATOM      3  C   UNL     1      48.039   8.763  15.205  0.00  0.00    +0.000 C 
ATOM      4  C   UNL     1      49.103   7.678  15.420  0.00  0.00    +0.000 C 
ATOM      5  C   UNL     1      48.606   6.324  14.892  0.00  0.00    +0.000 C 
ATOM      6  C   UNL     1      48.138   6.405  13.437  0.00  0.00    +0.000 C 
ENDROOT
BRANCH   1   7
ATOM      7  C   UNL     1      46.693   7.622  11.752  0.00  0.00    +0.000 C 
BRANCH   7  16
ATOM      8  C   UNL     1      45.595   4.542   8.771  0.00  0.00    +0.000 C 
ATOM      9  C   UNL     1      44.841   4.016   9.944  0.00  0.00    +0.000 A 
ATOM     10  C   UNL     1      44.264   2.762  10.072  0.00  0.00    +0.000 A 
ATOM     11  C   UNL     1      43.524   2.735  11.270  0.00  0.00    +0.000 A 
ATOM     12  C   UNL     1      43.635   3.981  11.834  0.00  0.00    +0.000 A 
ATOM     13  N   UNL     1      44.468   4.775  11.059  0.00  0.00    +0.000 N 
ATOM     14  C   UNL     1      44.793   6.102  11.417  0.00  0.00    +0.000 C 
ATOM     15  O   UNL     1      43.950   6.814  11.940  0.00  0.00    +0.000 OA
ATOM     16  N   UNL     1      46.129   6.378  11.256  0.00  0.00    +0.000 N 
ATOM     17  H   UNL     1      46.763   5.624  11.023  0.00  0.00    +0.000 HD
ENDBRANCH   7  16
ENDBRANCH   1   7
BRANCH   4  18
ATOM     18  C   UNL     1      49.480   7.571  16.903  0.00  0.00    +0.000 C 
BRANCH  18  19
ATOM     19  N   UNL     1      50.460   6.528  17.125  0.00  0.00    +0.000 N 
ATOM     20  C   UNL     1      50.782   6.074  18.379  0.00  0.00    +0.000 C 
ATOM     21  O   UNL     1      50.325   6.583  19.399  0.00  0.00    +0.000 OA
ATOM     22  H   UNL     1      50.746   5.984  16.316  0.00  0.00    +0.000 HD
BRANCH  20  23
ATOM     23  C   UNL     1      51.726   4.954  18.449  0.00  0.00    +0.000 A 
ATOM     24  C   UNL     1      52.946   5.121  19.092  0.00  0.00    +0.000 A 
ATOM     25  S   UNL     1      53.873   3.692  19.178  0.00  0.00    +0.000 S 
ATOM     26  C   UNL     1      52.657   2.793  18.396  0.00  0.00    +0.000 A 
ATOM     27  N   UNL     1      52.770   1.448  18.237  0.00  0.00    +0.000 NA
ATOM     28  C   UNL     1      51.759   0.893  17.656  0.00  0.00    +0.000 A 
ATOM     29  N   UNL     1      50.667   1.569  17.178  0.00  0.00    +0.000 N 
ATOM     30  C   UNL     1      50.545   2.934  17.240  0.00  0.00    +0.000 A 
ATOM     31  O   UNL     1      49.638   3.526  16.667  0.00  0.00    +0.000 OA
ATOM     32  C   UNL     1      51.606   3.594  17.987  0.00  0.00    +0.000 A 
ATOM     33  H   UNL     1      49.942   1.075  16.670  0.00  0.00    +0.000 HD
ENDBRANCH  20  23
ENDBRANCH  18  19
ENDBRANCH   4  18
TORSDOF 5
ENDMDL
MODEL 7
REMARK VINA RESULT:    -6.557      2.172      2.962
REMARK INTER + INTRA:          -9.390
REMARK INTER:                  -8.610
REMARK INTRA:                  -0.781
REMARK UNBOUND:                -0.916
REMARK  Name = 
REMARK  6 active torsions:
REMARK  status: ('A' for Active; 'I' for Inactive)
REMARK    1  A    between atoms: C_1  and  C_2
REMARK    2  A    between atoms: N_9  and  C_10
REMARK    3  A    between atoms: C_10  and  C_11
REMARK    4  A    between atoms: C_14  and  C_15
REMARK    5  A    between atoms: C_15  and  N_16
REMARK    6  A    between atoms: C_17  and  C_19
REMARK                            x       y       z     vdW  Elec       q    Type
REMARK                         _______ _______ _______ _____ _____    ______ ____
ROOT
ATOM      1  C   UNL     1      45.716   6.861  12.442  0.00  0.00    +0.000 C 
ATOM      2  C   UNL     1      46.381   8.228  12.249  0.00  0.00    +0.000 C 
ATOM      3  C   UNL     1      47.422   8.501  13.325  0.00  0.00    +0.000 C 
ATOM      4  C   UNL     1      48.500   7.409  13.355  0.00  0.00    +0.000 C 
ATOM      5  C   UNL     1      47.860   6.024  13.527  0.00  0.00    +0.000 C 
ATOM      6  C   UNL     1      46.779   5.749  12.479  0.00  0.00    +0.000 C 
ENDROOT
BRANCH   1   7
ATOM      7  C   UNL     1      44.688   6.602  11.334  0.00  0.00    +0.000 C 
BRANCH   7  16
ATOM      8  C   UNL     1      46.408   4.765   7.694  0.00  0.00    +0.000 C 
ATOM      9  C   UNL     1      45.861   3.540   8.342  0.00  0.00    +0.000 A 
ATOM     10  C   UNL     1      46.137   2.223   8.005  0.00  0.00    +0.000 A 
ATOM     11  C   UNL     1      45.296   1.387   8.766  0.00  0.00    +0.000 A 
ATOM     12  C   UNL     1      44.500   2.207   9.525  0.00  0.00    +0.000 A 
ATOM     13  N   UNL     1      44.852   3.532   9.311  0.00  0.00    +0.000 N 
ATOM     14  C   UNL     1      44.222   4.599   9.990  0.00  0.00    +0.000 C 
ATOM     15  O   UNL     1      43.026   4.546  10.228  0.00  0.00    +0.000 OA
ATOM     16  N   UNL     1      45.119   5.534  10.447  0.00  0.00    +0.000 N 
ATOM     17  H   UNL     1      46.110   5.342  10.375  0.00  0.00    +0.000 HD
ENDBRANCH   7  16
ENDBRANCH   1   7
BRANCH   4  18
ATOM     18  C   UNL     1      49.514   7.676  14.475  0.00  0.00    +0.000 C 
BRANCH  18  19
ATOM     19  N   UNL     1      48.984   7.299  15.769  0.00  0.00    +0.000 N 
ATOM     20  C   UNL     1      49.658   6.466  16.627  0.00  0.00    +0.000 C 
ATOM     21  O   UNL     1      50.712   5.919  16.317  0.00  0.00    +0.000 OA
ATOM     22  H   UNL     1      48.200   7.839  16.121  0.00  0.00    +0.000 HD
BRANCH  20  23
ATOM     23  C   UNL     1      49.042   6.240  17.939  0.00  0.00    +0.000 A 
ATOM     24  C   UNL     1      49.132   4.988  18.534  0.00  0.00    +0.000 A 
ATOM     25  S   UNL     1      48.461   4.928  20.100  0.00  0.00    +0.000 S 
ATOM     26  C   UNL     1      48.065   6.583  20.052  0.00  0.00    +0.000 A 
ATOM     27  N   UNL     1      47.543   7.213  21.138  0.00  0.00    +0.000 NA
ATOM     28  C   UNL     1      47.322   8.473  20.967  0.00  0.00    +0.000 A 
ATOM     29  N   UNL     1      47.533   9.151  19.794  0.00  0.00    +0.000 N 
ATOM     30  C   UNL     1      47.978   8.542  18.648  0.00  0.00    +0.000 A 
ATOM     31  O   UNL     1      48.008   9.133  17.575  0.00  0.00    +0.000 OA
ATOM     32  C   UNL     1      48.350   7.145  18.821  0.00  0.00    +0.000 A 
ATOM     33  H   UNL     1      47.271  10.127  19.713  0.00  0.00    +0.000 HD
ENDBRANCH  20  23
ENDBRANCH  18  19
ENDBRANCH   4  18
TORSDOF 5
ENDMDL
MODEL 8
REMARK VINA RESULT:    -6.338      3.002      3.944
REMARK INTER + INTRA:          -9.107
REMARK INTER:                  -8.712
REMARK INTRA:                  -0.395
REMARK UNBOUND:                -0.916
REMARK  Name = 
REMARK  6 active torsions:
REMARK  status: ('A' for Active; 'I' for Inactive)
REMARK    1  A    between atoms: C_1  and  C_2
REMARK    2  A    between atoms: N_9  and  C_10
REMARK    3  A    between atoms: C_10  and  C_11
REMARK    4  A    between atoms: C_14  and  C_15
REMARK    5  A    between atoms: C_15  and  N_16
REMARK    6  A    between atoms: C_17  and  C_19
REMARK                            x       y       z     vdW  Elec       q    Type
REMARK                         _______ _______ _______ _____ _____    ______ ____
ROOT
ATOM      1  C   UNL     1      47.169   4.452  14.522  0.00  0.00    +0.000 C 
ATOM      2  C   UNL     1      47.149   4.556  16.051  0.00  0.00    +0.000 C 
ATOM      3  C   UNL     1      48.432   5.176  16.586  0.00  0.00    +0.000 C 
ATOM      4  C   UNL     1      48.679   6.566  15.984  0.00  0.00    +0.000 C 
ATOM      5  C   UNL     1      48.684   6.495  14.450  0.00  0.00    +0.000 C 
ATOM      6  C   UNL     1      47.420   5.834  13.895  0.00  0.00    +0.000 C 
ENDROOT
BRANCH   1   7
ATOM      7  C   UNL     1      45.859   3.844  14.008  0.00  0.00    +0.000 C 
BRANCH   7  16
ATOM      8  C   UNL     1      45.539   5.936  10.122  0.00  0.00    +0.000 C 
ATOM      9  C   UNL     1      45.248   4.547   9.668  0.00  0.00    +0.000 A 
ATOM     10  C   UNL     1      45.223   4.084   8.361  0.00  0.00    +0.000 A 
ATOM     11  C   UNL     1      44.759   2.754   8.372  0.00  0.00    +0.000 A 
ATOM     12  C   UNL     1      44.478   2.441   9.678  0.00  0.00    +0.000 A 
ATOM     13  N   UNL     1      44.805   3.512  10.498  0.00  0.00    +0.000 N 
ATOM     14  C   UNL     1      44.654   3.461  11.902  0.00  0.00    +0.000 C 
ATOM     15  O   UNL     1      43.703   2.871  12.389  0.00  0.00    +0.000 OA
ATOM     16  N   UNL     1      45.737   3.982  12.566  0.00  0.00    +0.000 N 
ATOM     17  H   UNL     1      46.563   4.237  12.039  0.00  0.00    +0.000 HD
ENDBRANCH   7  16
ENDBRANCH   1   7
BRANCH   4  18
ATOM     18  C   UNL     1      49.999   7.155  16.499  0.00  0.00    +0.000 C 
BRANCH  18  19
ATOM     19  N   UNL     1      51.018   6.136  16.629  0.00  0.00    +0.000 N 
ATOM     20  C   UNL     1      51.497   5.723  17.847  0.00  0.00    +0.000 C 
ATOM     21  O   UNL     1      51.154   6.253  18.901  0.00  0.00    +0.000 OA
ATOM     22  H   UNL     1      51.217   5.574  15.806  0.00  0.00    +0.000 HD
BRANCH  20  23
ATOM     23  C   UNL     1      52.464   4.621  17.833  0.00  0.00    +0.000 A 
ATOM     24  C   UNL     1      53.811   4.885  18.043  0.00  0.00    +0.000 A 
ATOM     25  S   UNL     1      54.780   3.483  18.104  0.00  0.00    +0.000 S 
ATOM     26  C   UNL     1      53.425   2.474  17.894  0.00  0.00    +0.000 A 
ATOM     27  N   UNL     1      53.542   1.120  17.953  0.00  0.00    +0.000 NA
ATOM     28  C   UNL     1      52.428   0.484  17.808  0.00  0.00    +0.000 A 
ATOM     29  N   UNL     1      51.216   1.076  17.564  0.00  0.00    +0.000 N 
ATOM     30  C   UNL     1      51.063   2.431  17.412  0.00  0.00    +0.000 A 
ATOM     31  O   UNL     1      50.003   2.921  17.039  0.00  0.00    +0.000 OA
ATOM     32  C   UNL     1      52.269   3.201  17.680  0.00  0.00    +0.000 A 
ATOM     33  H   UNL     1      50.394   0.508  17.391  0.00  0.00    +0.000 HD
ENDBRANCH  20  23
ENDBRANCH  18  19
ENDBRANCH   4  18
TORSDOF 5
ENDMDL
MODEL 9
REMARK VINA RESULT:    -5.896      5.712      8.081
REMARK INTER + INTRA:          -8.536
REMARK INTER:                  -8.290
REMARK INTRA:                  -0.247
REMARK UNBOUND:                -0.916
REMARK  Name = 
REMARK  6 active torsions:
REMARK  status: ('A' for Active; 'I' for Inactive)
REMARK    1  A    between atoms: C_1  and  C_2
REMARK    2  A    between atoms: N_9  and  C_10
REMARK    3  A    between atoms: C_10  and  C_11
REMARK    4  A    between atoms: C_14  and  C_15
REMARK    5  A    between atoms: C_15  and  N_16
REMARK    6  A    between atoms: C_17  and  C_19
REMARK                            x       y       z     vdW  Elec       q    Type
REMARK                         _______ _______ _______ _____ _____    ______ ____
ROOT
ATOM      1  C   UNL     1      51.997   9.647  10.709  0.00  0.00    +0.000 C 
ATOM      2  C   UNL     1      51.538   8.185  10.747  0.00  0.00    +0.000 C 
ATOM      3  C   UNL     1      50.541   7.941  11.869  0.00  0.00    +0.000 C 
ATOM      4  C   UNL     1      49.315   8.856  11.742  0.00  0.00    +0.000 C 
ATOM      5  C   UNL     1      49.747  10.329  11.681  0.00  0.00    +0.000 C 
ATOM      6  C   UNL     1      50.785  10.585  10.585  0.00  0.00    +0.000 C 
ENDROOT
BRANCH   1   7
ATOM      7  C   UNL     1      52.985   9.871   9.557  0.00  0.00    +0.000 C 
BRANCH   7  16
ATOM      8  C   UNL     1      53.751   5.542   9.056  0.00  0.00    +0.000 C 
ATOM      9  C   UNL     1      54.080   6.002   7.677  0.00  0.00    +0.000 A 
ATOM     10  C   UNL     1      54.248   5.211   6.551  0.00  0.00    +0.000 A 
ATOM     11  C   UNL     1      54.698   6.031   5.497  0.00  0.00    +0.000 A 
ATOM     12  C   UNL     1      54.829   7.298   6.008  0.00  0.00    +0.000 A 
ATOM     13  N   UNL     1      54.421   7.315   7.334  0.00  0.00    +0.000 N 
ATOM     14  C   UNL     1      54.414   8.497   8.106  0.00  0.00    +0.000 C 
ATOM     15  O   UNL     1      55.300   9.324   7.959  0.00  0.00    +0.000 OA
ATOM     16  N   UNL     1      53.267   8.633   8.850  0.00  0.00    +0.000 N 
ATOM     17  H   UNL     1      52.507   7.979   8.708  0.00  0.00    +0.000 HD
ENDBRANCH   7  16
ENDBRANCH   1   7
BRANCH   4  18
ATOM     18  C   UNL     1      48.342   8.629  12.906  0.00  0.00    +0.000 C 
BRANCH  18  19
ATOM     19  N   UNL     1      47.109   8.022  12.453  0.00  0.00    +0.000 N 
ATOM     20  C   UNL     1      46.848   6.683  12.603  0.00  0.00    +0.000 C 
ATOM     21  O   UNL     1      47.679   5.899  13.052  0.00  0.00    +0.000 OA
ATOM     22  H   UNL     1      46.345   8.649  12.218  0.00  0.00    +0.000 HD
BRANCH  20  23
ATOM     23  C   UNL     1      45.522   6.221  12.177  0.00  0.00    +0.000 A 
ATOM     24  C   UNL     1      44.634   7.119  11.599  0.00  0.00    +0.000 A 
ATOM     25  S   UNL     1      43.186   6.395  11.063  0.00  0.00    +0.000 S 
ATOM     26  C   UNL     1      43.715   4.852  11.549  0.00  0.00    +0.000 A 
ATOM     27  N   UNL     1      42.977   3.741  11.285  0.00  0.00    +0.000 NA
ATOM     28  C   UNL     1      43.516   2.637  11.683  0.00  0.00    +0.000 A 
ATOM     29  N   UNL     1      44.703   2.549  12.362  0.00  0.00    +0.000 N 
ATOM     30  C   UNL     1      45.441   3.647  12.725  0.00  0.00    +0.000 A 
ATOM     31  O   UNL     1      46.412   3.552  13.466  0.00  0.00    +0.000 OA
ATOM     32  C   UNL     1      44.934   4.906  12.200  0.00  0.00    +0.000 A 
ATOM     33  H   UNL     1      45.031   1.653  12.705  0.00  0.00    +0.000 HD
ENDBRANCH  20  23
ENDBRANCH  18  19
ENDBRANCH   4  18
TORSDOF 5
ENDMDL
