MODEL 1
REMARK VINA RESULT:    -8.441      0.000      0.000
REMARK INTER + INTRA:         -11.587
REMARK INTER:                 -10.909
REMARK INTRA:                  -0.678
REMARK UNBOUND:                -0.678
REMARK  Name = 
REMARK  5 active torsions:
REMARK  status: ('A' for Active; 'I' for Inactive)
REMARK    1  A    between atoms: C_2  and  C_19
REMARK    2  A    between atoms: N_3  and  C_4
REMARK    3  A    between atoms: C_4  and  C_5
REMARK    4  A    between atoms: N_8  and  C_9
REMARK    5  A    between atoms: C_9  and  C_10
REMARK                            x       y       z     vdW  Elec       q    Type
REMARK                         _______ _______ _______ _____ _____    ______ ____
ROOT
ATOM      1  O   UNL     1      47.191   3.274  14.038  0.00  0.00    +0.000 OA
ATOM      2  C   UNL     1      46.875   4.391  14.421  0.00  0.00    +0.000 C 
ATOM      3  N   UNL     1      45.752   5.056  13.990  0.00  0.00    +0.000 N 
ATOM      4  H   UNL     1      45.515   5.932  14.438  0.00  0.00    +0.000 HD
ENDROOT
BRANCH   2   5
ATOM      5  C   UNL     1      47.698   5.158  15.360  0.00  0.00    +0.000 A 
ATOM      6  C   UNL     1      48.425   6.255  14.931  0.00  0.00    +0.000 A 
ATOM      7  S   UNL     1      49.264   7.042  16.193  0.00  0.00    +0.000 S 
ATOM      8  C   UNL     1      48.745   5.891  17.336  0.00  0.00    +0.000 A 
ATOM      9  N   UNL     1      49.134   5.962  18.641  0.00  0.00    +0.000 NA
ATOM     10  C   UNL     1      48.708   4.993  19.377  0.00  0.00    +0.000 A 
ATOM     11  N   UNL     1      47.922   3.960  18.934  0.00  0.00    +0.000 N 
ATOM     12  C   UNL     1      47.449   3.878  17.647  0.00  0.00    +0.000 A 
ATOM     13  O   UNL     1      46.665   3.000  17.309  0.00  0.00    +0.000 OA
ATOM     14  C   UNL     1      47.928   4.932  16.767  0.00  0.00    +0.000 A 
ATOM     15  H   UNL     1      47.607   3.242  19.572  0.00  0.00    +0.000 HD
ENDBRANCH   2   5
BRANCH   3  16
ATOM     16  C   UNL     1      44.690   4.420  13.248  0.00  0.00    +0.000 C 
BRANCH  16  17
ATOM     17  C   UNL     1      44.164   5.277  12.082  0.00  0.00    +0.000 C 
ATOM     18  C   UNL     1      43.058   4.609  11.256  0.00  0.00    +0.000 C 
ATOM     19  C   UNL     1      43.560   3.405  10.453  0.00  0.00    +0.000 C 
ATOM     20  N   UNL     1      44.772   3.655   9.648  0.00  0.00    +0.000 NA
ATOM     21  C   UNL     1      45.822   4.367  10.396  0.00  0.00    +0.000 C 
ATOM     22  C   UNL     1      45.301   5.617  11.113  0.00  0.00    +0.000 C 
BRANCH  20  23
ATOM     23  C   UNL     1      45.262   2.352   9.119  0.00  0.00    +0.000 C 
BRANCH  23  24
ATOM     24  C   UNL     1      46.028   2.442   7.812  0.00  0.00    +0.000 A 
ATOM     25  C   UNL     1      46.091   3.679   7.145  0.00  0.00    +0.000 A 
ATOM     26  C   UNL     1      46.873   3.837   5.998  0.00  0.00    +0.000 A 
ATOM     27  C   UNL     1      47.605   2.765   5.500  0.00  0.00    +0.000 A 
ATOM     28  C   UNL     1      47.521   1.520   6.121  0.00  0.00    +0.000 A 
ATOM     29  C   UNL     1      46.725   1.351   7.258  0.00  0.00    +0.000 A 
ATOM     30 CL   UNL     1      46.649  -0.240   7.930  0.00  0.00    +0.000 Cl
ENDBRANCH  23  24
ENDBRANCH  20  23
ENDBRANCH  16  17
ENDBRANCH   3  16
TORSDOF 5
ENDMDL
MODEL 2
REMARK VINA RESULT:    -7.827      1.703      2.249
REMARK INTER + INTRA:         -10.793
REMARK INTER:                 -10.158
REMARK INTRA:                  -0.635
REMARK UNBOUND:                -0.678
REMARK  Name = 
REMARK  5 active torsions:
REMARK  status: ('A' for Active; 'I' for Inactive)
REMARK    1  A    between atoms: C_2  and  C_19
REMARK    2  A    between atoms: N_3  and  C_4
REMARK    3  A    between atoms: C_4  and  C_5
REMARK    4  A    between atoms: N_8  and  C_9
REMARK    5  A    between atoms: C_9  and  C_10
REMARK                            x       y       z     vdW  Elec       q    Type
REMARK                         _______ _______ _______ _____ _____    ______ ____
ROOT
ATOM      1  O   UNL     1      47.576   6.836  11.736  0.00  0.00    +0.000 OA
ATOM      2  C   UNL     1      47.327   6.927  12.930  0.00  0.00    +0.000 C 
ATOM      3  N   UNL     1      46.052   6.988  13.441  0.00  0.00    +0.000 N 
ATOM      4  H   UNL     1      45.940   6.958  14.446  0.00  0.00    +0.000 HD
ENDROOT
BRANCH   2   5
ATOM      5  C   UNL     1      48.381   7.022  13.944  0.00  0.00    +0.000 A 
ATOM      6  C   UNL     1      49.391   7.962  13.828  0.00  0.00    +0.000 A 
ATOM      7  S   UNL     1      50.478   7.947  15.145  0.00  0.00    +0.000 S 
ATOM      8  C   UNL     1      49.677   6.629  15.868  0.00  0.00    +0.000 A 
ATOM      9  N   UNL     1      50.120   6.085  17.038  0.00  0.00    +0.000 NA
ATOM     10  C   UNL     1      49.447   5.060  17.436  0.00  0.00    +0.000 A 
ATOM     11  N   UNL     1      48.366   4.529  16.780  0.00  0.00    +0.000 N 
ATOM     12  C   UNL     1      47.842   5.078  15.636  0.00  0.00    +0.000 A 
ATOM     13  O   UNL     1      46.814   4.643  15.130  0.00  0.00    +0.000 OA
ATOM     14  C   UNL     1      48.585   6.220  15.126  0.00  0.00    +0.000 A 
ATOM     15  H   UNL     1      47.872   3.734  17.161  0.00  0.00    +0.000 HD
ENDBRANCH   2   5
BRANCH   3  16
ATOM     16  C   UNL     1      44.873   6.692  12.664  0.00  0.00    +0.000 C 
BRANCH  16  17
ATOM     17  C   UNL     1      44.346   5.262  12.877  0.00  0.00    +0.000 C 
ATOM     18  C   UNL     1      45.306   4.159  12.415  0.00  0.00    +0.000 C 
ATOM     19  C   UNL     1      45.479   4.120  10.893  0.00  0.00    +0.000 C 
ATOM     20  N   UNL     1      44.219   4.109  10.124  0.00  0.00    +0.000 NA
ATOM     21  C   UNL     1      43.246   5.108  10.600  0.00  0.00    +0.000 C 
ATOM     22  C   UNL     1      43.032   5.057  12.116  0.00  0.00    +0.000 C 
BRANCH  20  23
ATOM     23  C   UNL     1      44.545   4.304   8.684  0.00  0.00    +0.000 C 
BRANCH  23  24
ATOM     24  C   UNL     1      45.542   3.312   8.115  0.00  0.00    +0.000 A 
ATOM     25  C   UNL     1      46.614   3.795   7.343  0.00  0.00    +0.000 A 
ATOM     26  C   UNL     1      47.617   2.934   6.890  0.00  0.00    +0.000 A 
ATOM     27  C   UNL     1      47.568   1.579   7.203  0.00  0.00    +0.000 A 
ATOM     28  C   UNL     1      46.491   1.076   7.930  0.00  0.00    +0.000 A 
ATOM     29  C   UNL     1      45.474   1.929   8.369  0.00  0.00    +0.000 A 
ATOM     30 CL   UNL     1      44.159   1.203   9.224  0.00  0.00    +0.000 Cl
ENDBRANCH  23  24
ENDBRANCH  20  23
ENDBRANCH  16  17
ENDBRANCH   3  16
TORSDOF 5
ENDMDL
MODEL 3
REMARK VINA RESULT:    -7.459      1.709      2.327
REMARK INTER + INTRA:         -10.318
REMARK INTER:                  -9.753
REMARK INTRA:                  -0.565
REMARK UNBOUND:                -0.678
REMARK  Name = 
REMARK  5 active torsions:
REMARK  status: ('A' for Active; 'I' for Inactive)
REMARK    1  A    between atoms: C_2  and  C_19
REMARK    2  A    between atoms: N_3  and  C_4
REMARK    3  A    between atoms: C_4  and  C_5
REMARK    4  A    between atoms: N_8  and  C_9
REMARK    5  A    between atoms: C_9  and  C_10
REMARK                            x       y       z     vdW  Elec       q    Type
REMARK                         _______ _______ _______ _____ _____    ______ ____
ROOT
ATOM      1  O   UNL     1      47.440   3.065  14.381  0.00  0.00    +0.000 OA
ATOM      2  C   UNL     1      47.225   4.056  15.064  0.00  0.00    +0.000 C 
ATOM      3  N   UNL     1      46.400   5.085  14.676  0.00  0.00    +0.000 N 
ATOM      4  H   UNL     1      46.200   5.815  15.348  0.00  0.00    +0.000 HD
ENDROOT
BRANCH   2   5
ATOM      5  C   UNL     1      47.867   4.264  16.364  0.00  0.00    +0.000 A 
ATOM      6  C   UNL     1      47.585   3.431  17.433  0.00  0.00    +0.000 A 
ATOM      7  S   UNL     1      48.486   3.807  18.835  0.00  0.00    +0.000 S 
ATOM      8  C   UNL     1      49.218   5.146  18.078  0.00  0.00    +0.000 A 
ATOM      9  N   UNL     1      50.102   5.942  18.745  0.00  0.00    +0.000 NA
ATOM     10  C   UNL     1      50.532   6.947  18.062  0.00  0.00    +0.000 A 
ATOM     11  N   UNL     1      50.171   7.229  16.769  0.00  0.00    +0.000 N 
ATOM     12  C   UNL     1      49.338   6.423  16.033  0.00  0.00    +0.000 A 
ATOM     13  O   UNL     1      49.115   6.645  14.848  0.00  0.00    +0.000 OA
ATOM     14  C   UNL     1      48.797   5.291  16.769  0.00  0.00    +0.000 A 
ATOM     15  H   UNL     1      50.564   8.024  16.286  0.00  0.00    +0.000 HD
ENDBRANCH   2   5
BRANCH   3  16
ATOM     16  C   UNL     1      45.500   4.998  13.551  0.00  0.00    +0.000 C 
BRANCH  16  17
ATOM     17  C   UNL     1      45.440   6.291  12.718  0.00  0.00    +0.000 C 
ATOM     18  C   UNL     1      44.063   6.588  12.111  0.00  0.00    +0.000 C 
ATOM     19  C   UNL     1      43.665   5.589  11.020  0.00  0.00    +0.000 C 
ATOM     20  N   UNL     1      44.688   5.363   9.979  0.00  0.00    +0.000 NA
ATOM     21  C   UNL     1      46.036   5.153  10.534  0.00  0.00    +0.000 C 
ATOM     22  C   UNL     1      46.435   6.224  11.555  0.00  0.00    +0.000 C 
BRANCH  20  23
ATOM     23  C   UNL     1      44.256   4.215   9.136  0.00  0.00    +0.000 C 
BRANCH  23  24
ATOM     24  C   UNL     1      45.362   3.568   8.324  0.00  0.00    +0.000 A 
ATOM     25  C   UNL     1      46.233   4.391   7.587  0.00  0.00    +0.000 A 
ATOM     26  C   UNL     1      47.332   3.852   6.912  0.00  0.00    +0.000 A 
ATOM     27  C   UNL     1      47.579   2.484   6.963  0.00  0.00    +0.000 A 
ATOM     28  C   UNL     1      46.703   1.647   7.652  0.00  0.00    +0.000 A 
ATOM     29  C   UNL     1      45.591   2.179   8.312  0.00  0.00    +0.000 A 
ATOM     30 CL   UNL     1      44.538   1.056   9.099  0.00  0.00    +0.000 Cl
ENDBRANCH  23  24
ENDBRANCH  20  23
ENDBRANCH  16  17
ENDBRANCH   3  16
TORSDOF 5
ENDMDL
MODEL 4
REMARK VINA RESULT:    -7.307      3.034      4.543
REMARK INTER + INTRA:         -10.121
REMARK INTER:                  -9.313
REMARK INTRA:                  -0.808
REMARK UNBOUND:                -0.678
REMARK  Name = 
REMARK  5 active torsions:
REMARK  status: ('A' for Active; 'I' for Inactive)
REMARK    1  A    between atoms: C_2  and  C_19
REMARK    2  A    between atoms: N_3  and  C_4
REMARK    3  A    between atoms: C_4  and  C_5
REMARK    4  A    between atoms: N_8  and  C_9
REMARK    5  A    between atoms: C_9  and  C_10
REMARK                            x       y       z     vdW  Elec       q    Type
REMARK                         _______ _______ _______ _____ _____    ______ ____
ROOT
ATOM      1  O   UNL     1      47.975   5.027  17.306  0.00  0.00    +0.000 OA
ATOM      2  C   UNL     1      49.095   5.387  16.973  0.00  0.00    +0.000 C 
ATOM      3  N   UNL     1      49.337   6.330  16.002  0.00  0.00    +0.000 N 
ATOM      4  H   UNL     1      50.290   6.639  15.865  0.00  0.00    +0.000 HD
ENDROOT
BRANCH   2   5
ATOM      5  C   UNL     1      50.308   4.809  17.557  0.00  0.00    +0.000 A 
ATOM      6  C   UNL     1      51.216   5.605  18.233  0.00  0.00    +0.000 A 
ATOM      7  S   UNL     1      52.525   4.725  18.889  0.00  0.00    +0.000 S 
ATOM      8  C   UNL     1      51.958   3.266  18.219  0.00  0.00    +0.000 A 
ATOM      9  N   UNL     1      52.642   2.098  18.383  0.00  0.00    +0.000 NA
ATOM     10  C   UNL     1      52.122   1.088  17.773  0.00  0.00    +0.000 A 
ATOM     11  N   UNL     1      50.976   1.131  17.021  0.00  0.00    +0.000 N 
ATOM     12  C   UNL     1      50.216   2.266  16.880  0.00  0.00    +0.000 A 
ATOM     13  O   UNL     1      49.144   2.248  16.287  0.00  0.00    +0.000 OA
ATOM     14  C   UNL     1      50.777   3.444  17.522  0.00  0.00    +0.000 A 
ATOM     15  H   UNL     1      50.613   0.294  16.587  0.00  0.00    +0.000 HD
ENDBRANCH   2   5
BRANCH   3  16
ATOM     16  C   UNL     1      48.310   7.184  15.455  0.00  0.00    +0.000 C 
BRANCH  16  17
ATOM     17  C   UNL     1      48.659   7.740  14.063  0.00  0.00    +0.000 C 
ATOM     18  C   UNL     1      47.587   8.657  13.462  0.00  0.00    +0.000 C 
ATOM     19  C   UNL     1      46.300   7.909  13.098  0.00  0.00    +0.000 C 
ATOM     20  N   UNL     1      46.497   6.689  12.289  0.00  0.00    +0.000 NA
ATOM     21  C   UNL     1      47.577   5.828  12.801  0.00  0.00    +0.000 C 
ATOM     22  C   UNL     1      48.876   6.596  13.068  0.00  0.00    +0.000 C 
BRANCH  20  23
ATOM     23  C   UNL     1      45.202   5.959  12.216  0.00  0.00    +0.000 C 
BRANCH  23  24
ATOM     24  C   UNL     1      45.058   5.031  11.024  0.00  0.00    +0.000 A 
ATOM     25  C   UNL     1      45.631   5.410   9.796  0.00  0.00    +0.000 A 
ATOM     26  C   UNL     1      45.620   4.542   8.701  0.00  0.00    +0.000 A 
ATOM     27  C   UNL     1      45.040   3.282   8.815  0.00  0.00    +0.000 A 
ATOM     28  C   UNL     1      44.430   2.906  10.010  0.00  0.00    +0.000 A 
ATOM     29  C   UNL     1      44.421   3.778  11.103  0.00  0.00    +0.000 A 
ATOM     30 CL   UNL     1      43.599   3.239  12.525  0.00  0.00    +0.000 Cl
ENDBRANCH  23  24
ENDBRANCH  20  23
ENDBRANCH  16  17
ENDBRANCH   3  16
TORSDOF 5
ENDMDL
MODEL 5
REMARK VINA RESULT:    -7.300      3.800      8.645
REMARK INTER + INTRA:         -10.112
REMARK INTER:                  -9.103
REMARK INTRA:                  -1.008
REMARK UNBOUND:                -0.678
REMARK  Name = 
REMARK  5 active torsions:
REMARK  status: ('A' for Active; 'I' for Inactive)
REMARK    1  A    between atoms: C_2  and  C_19
REMARK    2  A    between atoms: N_3  and  C_4
REMARK    3  A    between atoms: C_4  and  C_5
REMARK    4  A    between atoms: N_8  and  C_9
REMARK    5  A    between atoms: C_9  and  C_10
REMARK                            x       y       z     vdW  Elec       q    Type
REMARK                         _______ _______ _______ _____ _____    ______ ____
ROOT
ATOM      1  O   UNL     1      43.954   7.566  11.394  0.00  0.00    +0.000 OA
ATOM      2  C   UNL     1      44.789   6.681  11.512  0.00  0.00    +0.000 C 
ATOM      3  N   UNL     1      46.114   6.916  11.792  0.00  0.00    +0.000 N 
ATOM      4  H   UNL     1      46.712   6.120  11.974  0.00  0.00    +0.000 HD
ENDROOT
BRANCH   2   5
ATOM      5  C   UNL     1      44.461   5.266  11.324  0.00  0.00    +0.000 A 
ATOM      6  C   UNL     1      43.726   4.578  12.275  0.00  0.00    +0.000 A 
ATOM      7  S   UNL     1      43.400   2.961  11.833  0.00  0.00    +0.000 S 
ATOM      8  C   UNL     1      44.302   3.109  10.396  0.00  0.00    +0.000 A 
ATOM      9  N   UNL     1      44.454   2.056   9.542  0.00  0.00    +0.000 NA
ATOM     10  C   UNL     1      45.206   2.301   8.525  0.00  0.00    +0.000 A 
ATOM     11  N   UNL     1      45.816   3.503   8.272  0.00  0.00    +0.000 N 
ATOM     12  C   UNL     1      45.642   4.612   9.064  0.00  0.00    +0.000 A 
ATOM     13  O   UNL     1      46.117   5.699   8.756  0.00  0.00    +0.000 OA
ATOM     14  C   UNL     1      44.826   4.380  10.245  0.00  0.00    +0.000 A 
ATOM     15  H   UNL     1      46.378   3.632   7.442  0.00  0.00    +0.000 HD
ENDBRANCH   2   5
BRANCH   3  16
ATOM     16  C   UNL     1      46.617   8.196  12.231  0.00  0.00    +0.000 C 
BRANCH  16  17
ATOM     17  C   UNL     1      48.150   8.306  12.158  0.00  0.00    +0.000 C 
ATOM     18  C   UNL     1      48.892   6.992  12.434  0.00  0.00    +0.000 C 
ATOM     19  C   UNL     1      48.761   6.529  13.888  0.00  0.00    +0.000 C 
ATOM     20  N   UNL     1      49.071   7.559  14.899  0.00  0.00    +0.000 NA
ATOM     21  C   UNL     1      48.434   8.856  14.614  0.00  0.00    +0.000 C 
ATOM     22  C   UNL     1      48.663   9.330  13.175  0.00  0.00    +0.000 C 
BRANCH  20  23
ATOM     23  C   UNL     1      48.679   7.037  16.238  0.00  0.00    +0.000 C 
BRANCH  23  24
ATOM     24  C   UNL     1      49.451   5.815  16.698  0.00  0.00    +0.000 A 
ATOM     25  C   UNL     1      50.839   5.925  16.901  0.00  0.00    +0.000 A 
ATOM     26  C   UNL     1      51.574   4.860  17.428  0.00  0.00    +0.000 A 
ATOM     27  C   UNL     1      50.936   3.669  17.762  0.00  0.00    +0.000 A 
ATOM     28  C   UNL     1      49.570   3.526  17.527  0.00  0.00    +0.000 A 
ATOM     29  C   UNL     1      48.833   4.583  16.982  0.00  0.00    +0.000 A 
ATOM     30 CL   UNL     1      47.155   4.293  16.685  0.00  0.00    +0.000 Cl
ENDBRANCH  23  24
ENDBRANCH  20  23
ENDBRANCH  16  17
ENDBRANCH   3  16
TORSDOF 5
ENDMDL
MODEL 6
REMARK VINA RESULT:    -7.031      4.196      9.042
REMARK INTER + INTRA:          -9.765
REMARK INTER:                  -9.009
REMARK INTRA:                  -0.756
REMARK UNBOUND:                -0.678
REMARK  Name = 
REMARK  5 active torsions:
REMARK  status: ('A' for Active; 'I' for Inactive)
REMARK    1  A    between atoms: C_2  and  C_19
REMARK    2  A    between atoms: N_3  and  C_4
REMARK    3  A    between atoms: C_4  and  C_5
REMARK    4  A    between atoms: N_8  and  C_9
REMARK    5  A    between atoms: C_9  and  C_10
REMARK                            x       y       z     vdW  Elec       q    Type
REMARK                         _______ _______ _______ _____ _____    ______ ____
ROOT
ATOM      1  O   UNL     1      48.554   6.072  13.449  0.00  0.00    +0.000 OA
ATOM      2  C   UNL     1      47.415   5.771  13.776  0.00  0.00    +0.000 C 
ATOM      3  N   UNL     1      47.096   5.190  14.980  0.00  0.00    +0.000 N 
ATOM      4  H   UNL     1      46.117   5.071  15.208  0.00  0.00    +0.000 HD
ENDROOT
BRANCH   2   5
ATOM      5  C   UNL     1      46.268   5.966  12.886  0.00  0.00    +0.000 A 
ATOM      6  C   UNL     1      45.875   7.239  12.508  0.00  0.00    +0.000 A 
ATOM      7  S   UNL     1      44.559   7.241  11.419  0.00  0.00    +0.000 S 
ATOM      8  C   UNL     1      44.424   5.545  11.484  0.00  0.00    +0.000 A 
ATOM      9  N   UNL     1      43.458   4.882  10.786  0.00  0.00    +0.000 NA
ATOM     10  C   UNL     1      43.444   3.608  10.977  0.00  0.00    +0.000 A 
ATOM     11  N   UNL     1      44.311   2.927  11.792  0.00  0.00    +0.000 N 
ATOM     12  C   UNL     1      45.342   3.538  12.464  0.00  0.00    +0.000 A 
ATOM     13  O   UNL     1      46.162   2.890  13.103  0.00  0.00    +0.000 OA
ATOM     14  C   UNL     1      45.382   4.984  12.309  0.00  0.00    +0.000 A 
ATOM     15  H   UNL     1      44.256   1.922  11.879  0.00  0.00    +0.000 HD
ENDBRANCH   2   5
BRANCH   3  16
ATOM     16  C   UNL     1      48.016   5.108  16.089  0.00  0.00    +0.000 C 
BRANCH  16  17
ATOM     17  C   UNL     1      47.443   4.354  17.302  0.00  0.00    +0.000 C 
ATOM     18  C   UNL     1      47.272   5.215  18.559  0.00  0.00    +0.000 C 
ATOM     19  C   UNL     1      48.609   5.651  19.167  0.00  0.00    +0.000 C 
ATOM     20  N   UNL     1      49.584   4.562  19.374  0.00  0.00    +0.000 NA
ATOM     21  C   UNL     1      49.708   3.672  18.207  0.00  0.00    +0.000 C 
ATOM     22  C   UNL     1      48.354   3.183  17.683  0.00  0.00    +0.000 C 
BRANCH  20  23
ATOM     23  C   UNL     1      50.893   5.167  19.745  0.00  0.00    +0.000 C 
BRANCH  23  24
ATOM     24  C   UNL     1      51.868   5.334  18.595  0.00  0.00    +0.000 A 
ATOM     25  C   UNL     1      51.655   6.371  17.670  0.00  0.00    +0.000 A 
ATOM     26  C   UNL     1      52.583   6.633  16.658  0.00  0.00    +0.000 A 
ATOM     27  C   UNL     1      53.739   5.865  16.556  0.00  0.00    +0.000 A 
ATOM     28  C   UNL     1      53.946   4.805  17.436  0.00  0.00    +0.000 A 
ATOM     29  C   UNL     1      53.011   4.526  18.438  0.00  0.00    +0.000 A 
ATOM     30 CL   UNL     1      53.334   3.163  19.451  0.00  0.00    +0.000 Cl
ENDBRANCH  23  24
ENDBRANCH  20  23
ENDBRANCH  16  17
ENDBRANCH   3  16
TORSDOF 5
ENDMDL
MODEL 7
REMARK VINA RESULT:    -6.995      2.318      3.382
REMARK INTER + INTRA:          -9.718
REMARK INTER:                  -9.393
REMARK INTRA:                  -0.325
REMARK UNBOUND:                -0.678
REMARK  Name = 
REMARK  5 active torsions:
REMARK  status: ('A' for Active; 'I' for Inactive)
REMARK    1  A    between atoms: C_2  and  C_19
REMARK    2  A    between atoms: N_3  and  C_4
REMARK    3  A    between atoms: C_4  and  C_5
REMARK    4  A    between atoms: N_8  and  C_9
REMARK    5  A    between atoms: C_9  and  C_10
REMARK                            x       y       z     vdW  Elec       q    Type
REMARK                         _______ _______ _______ _____ _____    ______ ____
ROOT
ATOM      1  O   UNL     1      50.164   6.716  15.144  0.00  0.00    +0.000 OA
ATOM      2  C   UNL     1      49.206   6.621  15.897  0.00  0.00    +0.000 C 
ATOM      3  N   UNL     1      47.912   6.441  15.467  0.00  0.00    +0.000 N 
ATOM      4  H   UNL     1      47.198   6.270  16.163  0.00  0.00    +0.000 HD
ENDROOT
BRANCH   2   5
ATOM      5  C   UNL     1      49.340   6.732  17.352  0.00  0.00    +0.000 A 
ATOM      6  C   UNL     1      49.825   7.893  17.930  0.00  0.00    +0.000 A 
ATOM      7  S   UNL     1      49.842   7.837  19.638  0.00  0.00    +0.000 S 
ATOM      8  C   UNL     1      49.278   6.230  19.650  0.00  0.00    +0.000 A 
ATOM      9  N   UNL     1      49.092   5.553  20.819  0.00  0.00    +0.000 NA
ATOM     10  C   UNL     1      48.715   4.329  20.671  0.00  0.00    +0.000 A 
ATOM     11  N   UNL     1      48.497   3.717  19.463  0.00  0.00    +0.000 N 
ATOM     12  C   UNL     1      48.606   4.373  18.261  0.00  0.00    +0.000 A 
ATOM     13  O   UNL     1      48.305   3.829  17.206  0.00  0.00    +0.000 OA
ATOM     14  C   UNL     1      49.061   5.750  18.372  0.00  0.00    +0.000 A 
ATOM     15  H   UNL     1      48.182   2.758  19.421  0.00  0.00    +0.000 HD
ENDBRANCH   2   5
BRANCH   3  16
ATOM     16  C   UNL     1      47.570   6.086  14.111  0.00  0.00    +0.000 C 
BRANCH  16  17
ATOM     17  C   UNL     1      47.460   7.301  13.172  0.00  0.00    +0.000 C 
ATOM     18  C   UNL     1      46.105   8.018  13.224  0.00  0.00    +0.000 C 
ATOM     19  C   UNL     1      44.964   7.174  12.647  0.00  0.00    +0.000 C 
ATOM     20  N   UNL     1      45.229   6.593  11.316  0.00  0.00    +0.000 NA
ATOM     21  C   UNL     1      46.558   5.967  11.216  0.00  0.00    +0.000 C 
ATOM     22  C   UNL     1      47.685   6.876  11.718  0.00  0.00    +0.000 C 
BRANCH  20  23
ATOM     23  C   UNL     1      44.142   5.627  10.999  0.00  0.00    +0.000 C 
BRANCH  23  24
ATOM     24  C   UNL     1      44.538   4.509  10.052  0.00  0.00    +0.000 A 
ATOM     25  C   UNL     1      45.257   4.830   8.886  0.00  0.00    +0.000 A 
ATOM     26  C   UNL     1      45.738   3.828   8.040  0.00  0.00    +0.000 A 
ATOM     27  C   UNL     1      45.510   2.489   8.345  0.00  0.00    +0.000 A 
ATOM     28  C   UNL     1      44.762   2.153   9.472  0.00  0.00    +0.000 A 
ATOM     29  C   UNL     1      44.262   3.154  10.312  0.00  0.00    +0.000 A 
ATOM     30 CL   UNL     1      43.308   2.639  11.658  0.00  0.00    +0.000 Cl
ENDBRANCH  23  24
ENDBRANCH  20  23
ENDBRANCH  16  17
ENDBRANCH   3  16
TORSDOF 5
ENDMDL
MODEL 8
REMARK VINA RESULT:    -6.904      3.149      4.488
REMARK INTER + INTRA:          -9.600
REMARK INTER:                  -8.656
REMARK INTRA:                  -0.944
REMARK UNBOUND:                -0.678
REMARK  Name = 
REMARK  5 active torsions:
REMARK  status: ('A' for Active; 'I' for Inactive)
REMARK    1  A    between atoms: C_2  and  C_19
REMARK    2  A    between atoms: N_3  and  C_4
REMARK    3  A    between atoms: C_4  and  C_5
REMARK    4  A    between atoms: N_8  and  C_9
REMARK    5  A    between atoms: C_9  and  C_10
REMARK                            x       y       z     vdW  Elec       q    Type
REMARK                         _______ _______ _______ _____ _____    ______ ____
ROOT
ATOM      1  O   UNL     1      49.555   9.756  16.060  0.00  0.00    +0.000 OA
ATOM      2  C   UNL     1      48.474   9.273  16.365  0.00  0.00    +0.000 C 
ATOM      3  N   UNL     1      47.515   8.910  15.450  0.00  0.00    +0.000 N 
ATOM      4  H   UNL     1      46.694   8.423  15.786  0.00  0.00    +0.000 HD
ENDROOT
BRANCH   2   5
ATOM      5  C   UNL     1      48.075   9.067  17.760  0.00  0.00    +0.000 A 
ATOM      6  C   UNL     1      47.592  10.119  18.520  0.00  0.00    +0.000 A 
ATOM      7  S   UNL     1      47.125   9.653  20.095  0.00  0.00    +0.000 S 
ATOM      8  C   UNL     1      47.631   8.047  19.834  0.00  0.00    +0.000 A 
ATOM      9  N   UNL     1      47.534   7.105  20.816  0.00  0.00    +0.000 NA
ATOM     10  C   UNL     1      48.006   5.950  20.492  0.00  0.00    +0.000 A 
ATOM     11  N   UNL     1      48.559   5.643  19.275  0.00  0.00    +0.000 N 
ATOM     12  C   UNL     1      48.621   6.535  18.234  0.00  0.00    +0.000 A 
ATOM     13  O   UNL     1      49.026   6.201  17.127  0.00  0.00    +0.000 OA
ATOM     14  C   UNL     1      48.129   7.866  18.558  0.00  0.00    +0.000 A 
ATOM     15  H   UNL     1      48.893   4.708  19.082  0.00  0.00    +0.000 HD
ENDBRANCH   2   5
BRANCH   3  16
ATOM     16  C   UNL     1      47.768   8.815  14.032  0.00  0.00    +0.000 C 
BRANCH  16  17
ATOM     17  C   UNL     1      48.546   7.547  13.637  0.00  0.00    +0.000 C 
ATOM     18  C   UNL     1      48.803   7.407  12.132  0.00  0.00    +0.000 C 
ATOM     19  C   UNL     1      47.522   7.154  11.330  0.00  0.00    +0.000 C 
ATOM     20  N   UNL     1      46.670   6.065  11.846  0.00  0.00    +0.000 NA
ATOM     21  C   UNL     1      46.471   6.131  13.304  0.00  0.00    +0.000 C 
ATOM     22  C   UNL     1      47.784   6.293  14.077  0.00  0.00    +0.000 C 
BRANCH  20  23
ATOM     23  C   UNL     1      45.373   6.095  11.114  0.00  0.00    +0.000 C 
BRANCH  23  24
ATOM     24  C   UNL     1      45.102   4.880  10.246  0.00  0.00    +0.000 A 
ATOM     25  C   UNL     1      45.644   4.838   8.949  0.00  0.00    +0.000 A 
ATOM     26  C   UNL     1      45.514   3.697   8.153  0.00  0.00    +0.000 A 
ATOM     27  C   UNL     1      44.843   2.580   8.640  0.00  0.00    +0.000 A 
ATOM     28  C   UNL     1      44.262   2.618   9.906  0.00  0.00    +0.000 A 
ATOM     29  C   UNL     1      44.372   3.765  10.699  0.00  0.00    +0.000 A 
ATOM     30 CL   UNL     1      43.578   3.733  12.234  0.00  0.00    +0.000 Cl
ENDBRANCH  23  24
ENDBRANCH  20  23
ENDBRANCH  16  17
ENDBRANCH   3  16
TORSDOF 5
ENDMDL
MODEL 9
REMARK VINA RESULT:    -6.660      4.186      8.616
REMARK INTER + INTRA:          -9.286
REMARK INTER:                  -8.771
REMARK INTRA:                  -0.515
REMARK UNBOUND:                -0.678
REMARK  Name = 
REMARK  5 active torsions:
REMARK  status: ('A' for Active; 'I' for Inactive)
REMARK    1  A    between atoms: C_2  and  C_19
REMARK    2  A    between atoms: N_3  and  C_4
REMARK    3  A    between atoms: C_4  and  C_5
REMARK    4  A    between atoms: N_8  and  C_9
REMARK    5  A    between atoms: C_9  and  C_10
REMARK                            x       y       z     vdW  Elec       q    Type
REMARK                         _______ _______ _______ _____ _____    ______ ____
ROOT
ATOM      1  O   UNL     1      47.873   5.334  14.839  0.00  0.00    +0.000 OA
ATOM      2  C   UNL     1      47.678   6.146  13.946  0.00  0.00    +0.000 C 
ATOM      3  N   UNL     1      48.499   7.220  13.698  0.00  0.00    +0.000 N 
ATOM      4  H   UNL     1      48.318   7.779  12.875  0.00  0.00    +0.000 HD
ENDROOT
BRANCH   2   5
ATOM      5  C   UNL     1      46.510   6.073  13.065  0.00  0.00    +0.000 A 
ATOM      6  C   UNL     1      45.938   7.225  12.552  0.00  0.00    +0.000 A 
ATOM      7  S   UNL     1      44.629   6.915  11.499  0.00  0.00    +0.000 S 
ATOM      8  C   UNL     1      44.737   5.236  11.763  0.00  0.00    +0.000 A 
ATOM      9  N   UNL     1      43.869   4.368  11.168  0.00  0.00    +0.000 NA
ATOM     10  C   UNL     1      44.038   3.135  11.503  0.00  0.00    +0.000 A 
ATOM     11  N   UNL     1      44.997   2.683  12.373  0.00  0.00    +0.000 N 
ATOM     12  C   UNL     1      45.935   3.506  12.947  0.00  0.00    +0.000 A 
ATOM     13  O   UNL     1      46.842   3.059  13.637  0.00  0.00    +0.000 OA
ATOM     14  C   UNL     1      45.769   4.915  12.625  0.00  0.00    +0.000 A 
ATOM     15  H   UNL     1      45.086   1.697  12.576  0.00  0.00    +0.000 HD
ENDBRANCH   2   5
BRANCH   3  16
ATOM     16  C   UNL     1      49.810   7.367  14.285  0.00  0.00    +0.000 C 
BRANCH  16  17
ATOM     17  C   UNL     1      49.983   8.682  15.066  0.00  0.00    +0.000 C 
ATOM     18  C   UNL     1      51.229   8.727  15.959  0.00  0.00    +0.000 C 
ATOM     19  C   UNL     1      51.146   7.760  17.145  0.00  0.00    +0.000 C 
ATOM     20  N   UNL     1      49.901   7.848  17.933  0.00  0.00    +0.000 NA
ATOM     21  C   UNL     1      48.691   7.886  17.094  0.00  0.00    +0.000 C 
ATOM     22  C   UNL     1      48.774   8.928  15.974  0.00  0.00    +0.000 C 
BRANCH  20  23
ATOM     23  C   UNL     1      49.869   6.707  18.890  0.00  0.00    +0.000 C 
BRANCH  23  24
ATOM     24  C   UNL     1      49.424   5.385  18.294  0.00  0.00    +0.000 A 
ATOM     25  C   UNL     1      50.376   4.578  17.647  0.00  0.00    +0.000 A 
ATOM     26  C   UNL     1      50.039   3.305  17.179  0.00  0.00    +0.000 A 
ATOM     27  C   UNL     1      48.747   2.818  17.351  0.00  0.00    +0.000 A 
ATOM     28  C   UNL     1      47.779   3.620  17.950  0.00  0.00    +0.000 A 
ATOM     29  C   UNL     1      48.106   4.903  18.403  0.00  0.00    +0.000 A 
ATOM     30 CL   UNL     1      46.826   5.838  19.091  0.00  0.00    +0.000 Cl
ENDBRANCH  23  24
ENDBRANCH  20  23
ENDBRANCH  16  17
ENDBRANCH   3  16
TORSDOF 5
ENDMDL
