MODEL 1
REMARK VINA RESULT:    -9.424      0.000      0.000
REMARK INTER + INTRA:         -13.519
REMARK INTER:                 -12.729
REMARK INTRA:                  -0.789
REMARK UNBOUND:                -0.789
REMARK  Name = 
REMARK  6 active torsions:
REMARK  status: ('A' for Active; 'I' for Inactive)
REMARK    1  A    between atoms: C_2  and  C_4
REMARK    2  A    between atoms: N_8  and  C_9
REMARK    3  A    between atoms: C_9  and  C_10
REMARK    4  A    between atoms: C_10  and  C_13
REMARK    5  A    between atoms: C_17  and  N_18
REMARK    6  A    between atoms: N_18  and  C_19
REMARK                            x       y       z     vdW  Elec       q    Type
REMARK                         _______ _______ _______ _____ _____    ______ ____
ROOT
ATOM      1  C   UNL     1      43.455   5.455  12.196  0.00  0.00    +0.000 C 
ATOM      2  F   UNL     1      43.040   6.660  11.696  0.00  0.00    +0.000 F 
ATOM      3  F   UNL     1      42.650   5.221  13.275  0.00  0.00    +0.000 F 
ENDROOT
BRANCH   1   4
ATOM      4  C   UNL     1      44.921   5.502  12.588  0.00  0.00    +0.000 A 
ATOM      5  C   UNL     1      45.758   6.476  12.027  0.00  0.00    +0.000 A 
ATOM      6  C   UNL     1      47.086   6.575  12.451  0.00  0.00    +0.000 A 
ATOM      7  C   UNL     1      47.573   5.719  13.439  0.00  0.00    +0.000 A 
ATOM      8  C   UNL     1      46.773   4.720  14.001  0.00  0.00    +0.000 A 
ATOM      9  C   UNL     1      45.445   4.612  13.551  0.00  0.00    +0.000 A 
BRANCH   8  10
ATOM     10  N   UNL     1      47.213   3.848  15.030  0.00  0.00    +0.000 N 
ATOM     11  H   UNL     1      46.988   2.877  14.800  0.00  0.00    +0.000 HD
BRANCH  10  12
ATOM     12  C   UNL     1      47.191   4.134  16.445  0.00  0.00    +0.000 C 
ATOM     13  C   UNL     1      48.433   4.872  16.973  0.00  0.00    +0.000 C 
ATOM     14  O   UNL     1      48.677   3.838  17.961  0.00  0.00    +0.000 OA
ATOM     15  C   UNL     1      47.628   3.017  17.394  0.00  0.00    +0.000 C 
ENDBRANCH  10  12
ENDBRANCH   8  10
ENDBRANCH   1   4
BRANCH   1  16
ATOM     16  C   UNL     1      43.180   4.370  11.128  0.00  0.00    +0.000 C 
BRANCH  16  21
ATOM     17  C   UNL     1      46.467   2.503   7.702  0.00  0.00    +0.000 A 
ATOM     18  C   UNL     1      45.638   1.841   8.596  0.00  0.00    +0.000 A 
ATOM     19  C   UNL     1      44.724   2.580   9.340  0.00  0.00    +0.000 A 
ATOM     20  C   UNL     1      44.646   3.962   9.176  0.00  0.00    +0.000 A 
ATOM     21  N   UNL     1      43.682   4.725   9.797  0.00  0.00    +0.000 N 
ATOM     22  N   UNL     1      45.466   4.616   8.334  0.00  0.00    +0.000 NA
ATOM     23  C   UNL     1      46.366   3.884   7.623  0.00  0.00    +0.000 A 
ATOM     24  H   UNL     1      43.771   5.716   9.571  0.00  0.00    +0.000 HD
BRANCH  17  26
ATOM     25  N   UNL     1      48.505   2.494   6.391  0.00  0.00    +0.000 N 
ATOM     26  C   UNL     1      47.438   1.788   6.855  0.00  0.00    +0.000 C 
ATOM     27  O   UNL     1      47.300   0.592   6.604  0.00  0.00    +0.000 OA
ATOM     28  H   UNL     1      49.220   1.965   5.905  0.00  0.00    +0.000 HD
ATOM     29  H   UNL     1      48.776   3.387   6.790  0.00  0.00    +0.000 HD
ENDBRANCH  17  26
ENDBRANCH  16  21
ENDBRANCH   1  16
TORSDOF 6
ENDMDL
MODEL 2
REMARK VINA RESULT:    -8.494      3.440      4.694
REMARK INTER + INTRA:         -12.263
REMARK INTER:                 -11.549
REMARK INTRA:                  -0.714
REMARK UNBOUND:                -0.789
REMARK  Name = 
REMARK  6 active torsions:
REMARK  status: ('A' for Active; 'I' for Inactive)
REMARK    1  A    between atoms: C_2  and  C_4
REMARK    2  A    between atoms: N_8  and  C_9
REMARK    3  A    between atoms: C_9  and  C_10
REMARK    4  A    between atoms: C_10  and  C_13
REMARK    5  A    between atoms: C_17  and  N_18
REMARK    6  A    between atoms: N_18  and  C_19
REMARK                            x       y       z     vdW  Elec       q    Type
REMARK                         _______ _______ _______ _____ _____    ______ ____
ROOT
ATOM      1  C   UNL     1      44.772   4.914  12.290  0.00  0.00    +0.000 C 
ATOM      2  F   UNL     1      44.164   4.680  13.494  0.00  0.00    +0.000 F 
ATOM      3  F   UNL     1      45.670   3.894  12.141  0.00  0.00    +0.000 F 
ENDROOT
BRANCH   1   4
ATOM      4  C   UNL     1      45.454   6.270  12.277  0.00  0.00    +0.000 A 
ATOM      5  C   UNL     1      46.810   6.362  11.941  0.00  0.00    +0.000 A 
ATOM      6  C   UNL     1      47.416   7.618  11.846  0.00  0.00    +0.000 A 
ATOM      7  C   UNL     1      46.672   8.775  12.069  0.00  0.00    +0.000 A 
ATOM      8  C   UNL     1      45.323   8.719  12.431  0.00  0.00    +0.000 A 
ATOM      9  C   UNL     1      44.727   7.450  12.548  0.00  0.00    +0.000 A 
BRANCH   8  10
ATOM     10  N   UNL     1      44.517   9.869  12.636  0.00  0.00    +0.000 N 
ATOM     11  H   UNL     1      43.913   9.743  13.453  0.00  0.00    +0.000 HD
BRANCH  10  12
ATOM     12  C   UNL     1      43.935  10.687  11.600  0.00  0.00    +0.000 C 
ATOM     13  C   UNL     1      42.786  10.022  10.822  0.00  0.00    +0.000 C 
ATOM     14  O   UNL     1      43.462  10.241   9.557  0.00  0.00    +0.000 OA
ATOM     15  C   UNL     1      44.644  10.716  10.245  0.00  0.00    +0.000 C 
ENDBRANCH  10  12
ENDBRANCH   8  10
ENDBRANCH   1   4
BRANCH   1  16
ATOM     16  C   UNL     1      43.702   4.797  11.179  0.00  0.00    +0.000 C 
BRANCH  16  21
ATOM     17  C   UNL     1      46.599   2.590   7.606  0.00  0.00    +0.000 A 
ATOM     18  C   UNL     1      45.709   2.024   8.508  0.00  0.00    +0.000 A 
ATOM     19  C   UNL     1      44.928   2.863   9.299  0.00  0.00    +0.000 A 
ATOM     20  C   UNL     1      45.043   4.246   9.174  0.00  0.00    +0.000 A 
ATOM     21  N   UNL     1      44.214   5.118   9.843  0.00  0.00    +0.000 N 
ATOM     22  N   UNL     1      45.925   4.803   8.323  0.00  0.00    +0.000 NA
ATOM     23  C   UNL     1      46.692   3.974   7.567  0.00  0.00    +0.000 A 
ATOM     24  H   UNL     1      44.435   6.093   9.640  0.00  0.00    +0.000 HD
BRANCH  17  26
ATOM     25  N   UNL     1      48.530   2.364   6.160  0.00  0.00    +0.000 N 
ATOM     26  C   UNL     1      47.436   1.772   6.711  0.00  0.00    +0.000 C 
ATOM     27  O   UNL     1      47.169   0.590   6.498  0.00  0.00    +0.000 OA
ATOM     28  H   UNL     1      49.156   1.761   5.639  0.00  0.00    +0.000 HD
ATOM     29  H   UNL     1      48.912   3.233   6.519  0.00  0.00    +0.000 HD
ENDBRANCH  17  26
ENDBRANCH  16  21
ENDBRANCH   1  16
TORSDOF 6
ENDMDL
MODEL 3
REMARK VINA RESULT:    -8.451      2.322      2.669
REMARK INTER + INTRA:         -12.205
REMARK INTER:                 -11.658
REMARK INTRA:                  -0.547
REMARK UNBOUND:                -0.789
REMARK  Name = 
REMARK  6 active torsions:
REMARK  status: ('A' for Active; 'I' for Inactive)
REMARK    1  A    between atoms: C_2  and  C_4
REMARK    2  A    between atoms: N_8  and  C_9
REMARK    3  A    between atoms: C_9  and  C_10
REMARK    4  A    between atoms: C_10  and  C_13
REMARK    5  A    between atoms: C_17  and  N_18
REMARK    6  A    between atoms: N_18  and  C_19
REMARK                            x       y       z     vdW  Elec       q    Type
REMARK                         _______ _______ _______ _____ _____    ______ ____
ROOT
ATOM      1  C   UNL     1      42.914   5.441  12.143  0.00  0.00    +0.000 C 
ATOM      2  F   UNL     1      41.728   5.988  11.731  0.00  0.00    +0.000 F 
ATOM      3  F   UNL     1      42.668   4.968  13.402  0.00  0.00    +0.000 F 
ENDROOT
BRANCH   1   4
ATOM      4  C   UNL     1      44.024   6.477  12.137  0.00  0.00    +0.000 A 
ATOM      5  C   UNL     1      43.879   7.645  11.379  0.00  0.00    +0.000 A 
ATOM      6  C   UNL     1      44.861   8.637  11.440  0.00  0.00    +0.000 A 
ATOM      7  C   UNL     1      45.974   8.473  12.264  0.00  0.00    +0.000 A 
ATOM      8  C   UNL     1      46.163   7.309  13.015  0.00  0.00    +0.000 A 
ATOM      9  C   UNL     1      45.181   6.305  12.928  0.00  0.00    +0.000 A 
BRANCH   8  10
ATOM     10  N   UNL     1      47.261   7.110  13.891  0.00  0.00    +0.000 N 
ATOM     11  H   UNL     1      47.238   7.788  14.657  0.00  0.00    +0.000 HD
BRANCH  10  12
ATOM     12  C   UNL     1      48.594   6.718  13.499  0.00  0.00    +0.000 C 
ATOM     13  C   UNL     1      49.724   7.372  14.312  0.00  0.00    +0.000 C 
ATOM     14  O   UNL     1      50.345   7.892  13.108  0.00  0.00    +0.000 OA
ATOM     15  C   UNL     1      49.220   7.450  12.311  0.00  0.00    +0.000 C 
ENDBRANCH  10  12
ENDBRANCH   8  10
ENDBRANCH   1   4
BRANCH   1  16
ATOM     16  C   UNL     1      43.239   4.244  11.219  0.00  0.00    +0.000 C 
BRANCH  16  21
ATOM     17  C   UNL     1      46.494   2.527   7.685  0.00  0.00    +0.000 A 
ATOM     18  C   UNL     1      45.686   1.827   8.570  0.00  0.00    +0.000 A 
ATOM     19  C   UNL     1      44.775   2.531   9.351  0.00  0.00    +0.000 A 
ATOM     20  C   UNL     1      44.680   3.917   9.233  0.00  0.00    +0.000 A 
ATOM     21  N   UNL     1      43.717   4.648   9.893  0.00  0.00    +0.000 N 
ATOM     22  N   UNL     1      45.479   4.607   8.400  0.00  0.00    +0.000 NA
ATOM     23  C   UNL     1      46.376   3.909   7.653  0.00  0.00    +0.000 A 
ATOM     24  H   UNL     1      43.791   5.646   9.697  0.00  0.00    +0.000 HD
BRANCH  17  26
ATOM     25  N   UNL     1      48.531   2.574   6.373  0.00  0.00    +0.000 N 
ATOM     26  C   UNL     1      47.460   1.852   6.801  0.00  0.00    +0.000 C 
ATOM     27  O   UNL     1      47.315   0.671   6.488  0.00  0.00    +0.000 OA
ATOM     28  H   UNL     1      49.242   2.067   5.860  0.00  0.00    +0.000 HD
ATOM     29  H   UNL     1      48.808   3.443   6.818  0.00  0.00    +0.000 HD
ENDBRANCH  17  26
ENDBRANCH  16  21
ENDBRANCH   1  16
TORSDOF 6
ENDMDL
MODEL 4
REMARK VINA RESULT:    -7.488      1.740      7.975
REMARK INTER + INTRA:         -10.904
REMARK INTER:                 -10.350
REMARK INTRA:                  -0.554
REMARK UNBOUND:                -0.789
REMARK  Name = 
REMARK  6 active torsions:
REMARK  status: ('A' for Active; 'I' for Inactive)
REMARK    1  A    between atoms: C_2  and  C_4
REMARK    2  A    between atoms: N_8  and  C_9
REMARK    3  A    between atoms: C_9  and  C_10
REMARK    4  A    between atoms: C_10  and  C_13
REMARK    5  A    between atoms: C_17  and  N_18
REMARK    6  A    between atoms: N_18  and  C_19
REMARK                            x       y       z     vdW  Elec       q    Type
REMARK                         _______ _______ _______ _____ _____    ______ ____
ROOT
ATOM      1  C   UNL     1      45.278   6.135  11.572  0.00  0.00    +0.000 C 
ATOM      2  F   UNL     1      44.170   6.936  11.494  0.00  0.00    +0.000 F 
ATOM      3  F   UNL     1      46.315   6.922  11.155  0.00  0.00    +0.000 F 
ENDROOT
BRANCH   1   4
ATOM      4  C   UNL     1      45.121   4.902  10.702  0.00  0.00    +0.000 A 
ATOM      5  C   UNL     1      44.271   3.867  11.111  0.00  0.00    +0.000 A 
ATOM      6  C   UNL     1      44.060   2.770  10.271  0.00  0.00    +0.000 A 
ATOM      7  C   UNL     1      44.680   2.713   9.023  0.00  0.00    +0.000 A 
ATOM      8  C   UNL     1      45.554   3.715   8.594  0.00  0.00    +0.000 A 
ATOM      9  C   UNL     1      45.780   4.803   9.456  0.00  0.00    +0.000 A 
BRANCH   8  10
ATOM     10  N   UNL     1      46.182   3.717   7.321  0.00  0.00    +0.000 N 
ATOM     11  H   UNL     1      45.897   4.537   6.780  0.00  0.00    +0.000 HD
BRANCH  10  12
ATOM     12  C   UNL     1      46.457   2.552   6.515  0.00  0.00    +0.000 C 
ATOM     13  C   UNL     1      47.526   1.607   7.090  0.00  0.00    +0.000 C 
ATOM     14  O   UNL     1      48.314   1.692   5.875  0.00  0.00    +0.000 OA
ATOM     15  C   UNL     1      47.435   2.717   5.351  0.00  0.00    +0.000 C 
ENDBRANCH  10  12
ENDBRANCH   8  10
ENDBRANCH   1   4
BRANCH   1  16
ATOM     16  C   UNL     1      45.502   5.767  13.057  0.00  0.00    +0.000 C 
BRANCH  16  21
ATOM     17  C   UNL     1      48.495   4.297  16.919  0.00  0.00    +0.000 A 
ATOM     18  C   UNL     1      47.477   3.614  16.270  0.00  0.00    +0.000 A 
ATOM     19  C   UNL     1      46.894   4.187  15.143  0.00  0.00    +0.000 A 
ATOM     20  C   UNL     1      47.340   5.424  14.680  0.00  0.00    +0.000 A 
ATOM     21  N   UNL     1      46.882   5.979  13.506  0.00  0.00    +0.000 N 
ATOM     22  N   UNL     1      48.306   6.107  15.321  0.00  0.00    +0.000 NA
ATOM     23  C   UNL     1      48.857   5.543  16.429  0.00  0.00    +0.000 A 
ATOM     24  H   UNL     1      47.309   6.887  13.318  0.00  0.00    +0.000 HD
BRANCH  17  26
ATOM     25  N   UNL     1      48.411   3.324  19.137  0.00  0.00    +0.000 N 
ATOM     26  C   UNL     1      49.184   3.743  18.098  0.00  0.00    +0.000 C 
ATOM     27  O   UNL     1      50.409   3.637  18.125  0.00  0.00    +0.000 OA
ATOM     28  H   UNL     1      48.889   2.845  19.891  0.00  0.00    +0.000 HD
ATOM     29  H   UNL     1      47.415   3.158  19.037  0.00  0.00    +0.000 HD
ENDBRANCH  17  26
ENDBRANCH  16  21
ENDBRANCH   1  16
TORSDOF 6
ENDMDL
MODEL 5
REMARK VINA RESULT:    -7.357      2.133      8.176
REMARK INTER + INTRA:         -10.727
REMARK INTER:                 -10.108
REMARK INTRA:                  -0.619
REMARK UNBOUND:                -0.789
REMARK  Name = 
REMARK  6 active torsions:
REMARK  status: ('A' for Active; 'I' for Inactive)
REMARK    1  A    between atoms: C_2  and  C_4
REMARK    2  A    between atoms: N_8  and  C_9
REMARK    3  A    between atoms: C_9  and  C_10
REMARK    4  A    between atoms: C_10  and  C_13
REMARK    5  A    between atoms: C_17  and  N_18
REMARK    6  A    between atoms: N_18  and  C_19
REMARK                            x       y       z     vdW  Elec       q    Type
REMARK                         _______ _______ _______ _____ _____    ______ ____
ROOT
ATOM      1  C   UNL     1      46.395   6.413  12.484  0.00  0.00    +0.000 C 
ATOM      2  F   UNL     1      45.987   7.560  13.111  0.00  0.00    +0.000 F 
ATOM      3  F   UNL     1      47.041   6.835  11.356  0.00  0.00    +0.000 F 
ENDROOT
BRANCH   1   4
ATOM      4  C   UNL     1      45.211   5.521  12.155  0.00  0.00    +0.000 A 
ATOM      5  C   UNL     1      43.913   5.950  12.460  0.00  0.00    +0.000 A 
ATOM      6  C   UNL     1      42.819   5.169  12.081  0.00  0.00    +0.000 A 
ATOM      7  C   UNL     1      43.015   3.974  11.387  0.00  0.00    +0.000 A 
ATOM      8  C   UNL     1      44.297   3.505  11.089  0.00  0.00    +0.000 A 
ATOM      9  C   UNL     1      45.394   4.286  11.496  0.00  0.00    +0.000 A 
BRANCH   8  10
ATOM     10  N   UNL     1      44.547   2.314  10.358  0.00  0.00    +0.000 N 
ATOM     11  H   UNL     1      45.220   1.723  10.852  0.00  0.00    +0.000 HD
BRANCH  10  12
ATOM     12  C   UNL     1      44.619   2.206   8.920  0.00  0.00    +0.000 C 
ATOM     13  C   UNL     1      45.991   1.771   8.376  0.00  0.00    +0.000 C 
ATOM     14  O   UNL     1      46.072   2.946   7.528  0.00  0.00    +0.000 OA
ATOM     15  C   UNL     1      44.873   3.491   8.131  0.00  0.00    +0.000 C 
ENDBRANCH  10  12
ENDBRANCH   8  10
ENDBRANCH   1   4
BRANCH   1  16
ATOM     16  C   UNL     1      47.415   5.700  13.402  0.00  0.00    +0.000 C 
BRANCH  16  21
ATOM     17  C   UNL     1      48.646   4.609  18.232  0.00  0.00    +0.000 A 
ATOM     18  C   UNL     1      49.004   5.693  17.443  0.00  0.00    +0.000 A 
ATOM     19  C   UNL     1      48.421   5.832  16.186  0.00  0.00    +0.000 A 
ATOM     20  C   UNL     1      47.490   4.895  15.741  0.00  0.00    +0.000 A 
ATOM     21  N   UNL     1      46.798   5.048  14.561  0.00  0.00    +0.000 N 
ATOM     22  N   UNL     1      47.160   3.825  16.487  0.00  0.00    +0.000 NA
ATOM     23  C   UNL     1      47.747   3.692  17.707  0.00  0.00    +0.000 A 
ATOM     24  H   UNL     1      46.159   4.272  14.386  0.00  0.00    +0.000 HD
BRANCH  17  26
ATOM     25  N   UNL     1      48.491   3.610  20.434  0.00  0.00    +0.000 N 
ATOM     26  C   UNL     1      49.193   4.409  19.585  0.00  0.00    +0.000 C 
ATOM     27  O   UNL     1      50.260   4.922  19.920  0.00  0.00    +0.000 OA
ATOM     28  H   UNL     1      48.933   3.392  21.319  0.00  0.00    +0.000 HD
ATOM     29  H   UNL     1      47.767   2.978  20.106  0.00  0.00    +0.000 HD
ENDBRANCH  17  26
ENDBRANCH  16  21
ENDBRANCH   1  16
TORSDOF 6
ENDMDL
MODEL 6
REMARK VINA RESULT:    -6.930      3.124      7.123
REMARK INTER + INTRA:         -10.149
REMARK INTER:                  -9.334
REMARK INTRA:                  -0.816
REMARK UNBOUND:                -0.789
REMARK  Name = 
REMARK  6 active torsions:
REMARK  status: ('A' for Active; 'I' for Inactive)
REMARK    1  A    between atoms: C_2  and  C_4
REMARK    2  A    between atoms: N_8  and  C_9
REMARK    3  A    between atoms: C_9  and  C_10
REMARK    4  A    between atoms: C_10  and  C_13
REMARK    5  A    between atoms: C_17  and  N_18
REMARK    6  A    between atoms: N_18  and  C_19
REMARK                            x       y       z     vdW  Elec       q    Type
REMARK                         _______ _______ _______ _____ _____    ______ ____
ROOT
ATOM      1  C   UNL     1      43.558   5.675  11.564  0.00  0.00    +0.000 C 
ATOM      2  F   UNL     1      42.230   5.596  11.889  0.00  0.00    +0.000 F 
ATOM      3  F   UNL     1      43.663   6.781  10.767  0.00  0.00    +0.000 F 
ENDROOT
BRANCH   1   4
ATOM      4  C   UNL     1      44.021   4.419  10.849  0.00  0.00    +0.000 A 
ATOM      5  C   UNL     1      43.570   3.167  11.284  0.00  0.00    +0.000 A 
ATOM      6  C   UNL     1      43.926   2.017  10.574  0.00  0.00    +0.000 A 
ATOM      7  C   UNL     1      44.715   2.116   9.428  0.00  0.00    +0.000 A 
ATOM      8  C   UNL     1      45.203   3.347   8.980  0.00  0.00    +0.000 A 
ATOM      9  C   UNL     1      44.859   4.496   9.715  0.00  0.00    +0.000 A 
BRANCH   8  10
ATOM     10  N   UNL     1      45.980   3.502   7.803  0.00  0.00    +0.000 N 
ATOM     11  H   UNL     1      45.821   4.422   7.385  0.00  0.00    +0.000 HD
BRANCH  10  12
ATOM     12  C   UNL     1      46.270   2.466   6.841  0.00  0.00    +0.000 C 
ATOM     13  C   UNL     1      47.419   1.523   7.235  0.00  0.00    +0.000 C 
ATOM     14  O   UNL     1      48.129   1.807   6.002  0.00  0.00    +0.000 OA
ATOM     15  C   UNL     1      47.169   2.835   5.660  0.00  0.00    +0.000 C 
ENDBRANCH  10  12
ENDBRANCH   8  10
ENDBRANCH   1   4
BRANCH   1  16
ATOM     16  C   UNL     1      44.357   5.925  12.865  0.00  0.00    +0.000 C 
BRANCH  16  21
ATOM     17  C   UNL     1      48.827   8.333  12.359  0.00  0.00    +0.000 A 
ATOM     18  C   UNL     1      48.325   7.231  11.681  0.00  0.00    +0.000 A 
ATOM     19  C   UNL     1      47.009   6.842  11.910  0.00  0.00    +0.000 A 
ATOM     20  C   UNL     1      46.214   7.560  12.802  0.00  0.00    +0.000 A 
ATOM     21  N   UNL     1      44.875   7.292  12.975  0.00  0.00    +0.000 N 
ATOM     22  N   UNL     1      46.701   8.612  13.486  0.00  0.00    +0.000 NA
ATOM     23  C   UNL     1      47.994   8.972  13.265  0.00  0.00    +0.000 A 
ATOM     24  H   UNL     1      44.445   7.909  13.666  0.00  0.00    +0.000 HD
BRANCH  17  26
ATOM     25  N   UNL     1      51.171   7.901  11.923  0.00  0.00    +0.000 N 
ATOM     26  C   UNL     1      50.199   8.827  12.148  0.00  0.00    +0.000 C 
ATOM     27  O   UNL     1      50.446  10.032  12.147  0.00  0.00    +0.000 OA
ATOM     28  H   UNL     1      52.085   8.259  11.670  0.00  0.00    +0.000 HD
ATOM     29  H   UNL     1      50.955   6.945  11.661  0.00  0.00    +0.000 HD
ENDBRANCH  17  26
ENDBRANCH  16  21
ENDBRANCH   1  16
TORSDOF 6
ENDMDL
MODEL 7
REMARK VINA RESULT:    -6.672      3.402      7.640
REMARK INTER + INTRA:          -9.802
REMARK INTER:                  -8.808
REMARK INTRA:                  -0.994
REMARK UNBOUND:                -0.789
REMARK  Name = 
REMARK  6 active torsions:
REMARK  status: ('A' for Active; 'I' for Inactive)
REMARK    1  A    between atoms: C_2  and  C_4
REMARK    2  A    between atoms: N_8  and  C_9
REMARK    3  A    between atoms: C_9  and  C_10
REMARK    4  A    between atoms: C_10  and  C_13
REMARK    5  A    between atoms: C_17  and  N_18
REMARK    6  A    between atoms: N_18  and  C_19
REMARK                            x       y       z     vdW  Elec       q    Type
REMARK                         _______ _______ _______ _____ _____    ______ ____
ROOT
ATOM      1  C   UNL     1      49.025   8.011  12.293  0.00  0.00    +0.000 C 
ATOM      2  F   UNL     1      49.471   9.008  11.466  0.00  0.00    +0.000 F 
ATOM      3  F   UNL     1      49.738   6.903  11.931  0.00  0.00    +0.000 F 
ENDROOT
BRANCH   1   4
ATOM      4  C   UNL     1      47.531   7.797  12.131  0.00  0.00    +0.000 A 
ATOM      5  C   UNL     1      46.639   8.802  12.525  0.00  0.00    +0.000 A 
ATOM      6  C   UNL     1      45.269   8.641  12.298  0.00  0.00    +0.000 A 
ATOM      7  C   UNL     1      44.793   7.491  11.667  0.00  0.00    +0.000 A 
ATOM      8  C   UNL     1      45.652   6.458  11.283  0.00  0.00    +0.000 A 
ATOM      9  C   UNL     1      47.026   6.618  11.539  0.00  0.00    +0.000 A 
BRANCH   8  10
ATOM     10  N   UNL     1      45.219   5.287  10.611  0.00  0.00    +0.000 N 
ATOM     11  H   UNL     1      44.616   5.528   9.820  0.00  0.00    +0.000 HD
BRANCH  10  12
ATOM     12  C   UNL     1      44.888   4.028  11.236  0.00  0.00    +0.000 C 
ATOM     13  C   UNL     1      44.248   2.991  10.296  0.00  0.00    +0.000 C 
ATOM     14  O   UNL     1      43.095   2.855  11.167  0.00  0.00    +0.000 OA
ATOM     15  C   UNL     1      43.562   3.948  11.994  0.00  0.00    +0.000 C 
ENDBRANCH  10  12
ENDBRANCH   8  10
ENDBRANCH   1   4
BRANCH   1  16
ATOM     16  C   UNL     1      49.398   8.388  13.746  0.00  0.00    +0.000 C 
BRANCH  16  21
ATOM     17  C   UNL     1      48.266   4.551  16.913  0.00  0.00    +0.000 A 
ATOM     18  C   UNL     1      47.532   5.090  15.866  0.00  0.00    +0.000 A 
ATOM     19  C   UNL     1      48.124   6.055  15.056  0.00  0.00    +0.000 A 
ATOM     20  C   UNL     1      49.435   6.460  15.298  0.00  0.00    +0.000 A 
ATOM     21  N   UNL     1      50.107   7.321  14.459  0.00  0.00    +0.000 N 
ATOM     22  N   UNL     1      50.144   5.965  16.329  0.00  0.00    +0.000 NA
ATOM     23  C   UNL     1      49.549   5.034  17.123  0.00  0.00    +0.000 A 
ATOM     24  H   UNL     1      51.054   7.514  14.784  0.00  0.00    +0.000 HD
BRANCH  17  26
ATOM     25  N   UNL     1      48.335   3.313  18.995  0.00  0.00    +0.000 N 
ATOM     26  C   UNL     1      47.723   3.503  17.795  0.00  0.00    +0.000 C 
ATOM     27  O   UNL     1      46.734   2.849  17.467  0.00  0.00    +0.000 OA
ATOM     28  H   UNL     1      47.885   2.669  19.635  0.00  0.00    +0.000 HD
ATOM     29  H   UNL     1      48.969   3.999  19.392  0.00  0.00    +0.000 HD
ENDBRANCH  17  26
ENDBRANCH  16  21
ENDBRANCH   1  16
TORSDOF 6
ENDMDL
MODEL 8
REMARK VINA RESULT:    -6.573      4.076      6.503
REMARK INTER + INTRA:          -9.668
REMARK INTER:                  -9.247
REMARK INTRA:                  -0.421
REMARK UNBOUND:                -0.789
REMARK  Name = 
REMARK  6 active torsions:
REMARK  status: ('A' for Active; 'I' for Inactive)
REMARK    1  A    between atoms: C_2  and  C_4
REMARK    2  A    between atoms: N_8  and  C_9
REMARK    3  A    between atoms: C_9  and  C_10
REMARK    4  A    between atoms: C_10  and  C_13
REMARK    5  A    between atoms: C_17  and  N_18
REMARK    6  A    between atoms: N_18  and  C_19
REMARK                            x       y       z     vdW  Elec       q    Type
REMARK                         _______ _______ _______ _____ _____    ______ ____
ROOT
ATOM      1  C   UNL     1      48.132   3.004  16.975  0.00  0.00    +0.000 C 
ATOM      2  F   UNL     1      47.114   2.486  17.731  0.00  0.00    +0.000 F 
ATOM      3  F   UNL     1      48.671   1.931  16.323  0.00  0.00    +0.000 F 
ENDROOT
BRANCH   1   4
ATOM      4  C   UNL     1      49.157   3.705  17.848  0.00  0.00    +0.000 A 
ATOM      5  C   UNL     1      48.781   4.192  19.106  0.00  0.00    +0.000 A 
ATOM      6  C   UNL     1      49.744   4.761  19.944  0.00  0.00    +0.000 A 
ATOM      7  C   UNL     1      51.076   4.831  19.537  0.00  0.00    +0.000 A 
ATOM      8  C   UNL     1      51.481   4.377  18.279  0.00  0.00    +0.000 A 
ATOM      9  C   UNL     1      50.501   3.829  17.432  0.00  0.00    +0.000 A 
BRANCH   8  10
ATOM     10  N   UNL     1      52.828   4.397  17.834  0.00  0.00    +0.000 N 
ATOM     11  H   UNL     1      52.894   4.815  16.903  0.00  0.00    +0.000 HD
BRANCH  10  12
ATOM     12  C   UNL     1      53.815   3.374  18.086  0.00  0.00    +0.000 C 
ATOM     13  C   UNL     1      53.291   1.931  17.970  0.00  0.00    +0.000 C 
ATOM     14  O   UNL     1      53.737   1.619  19.315  0.00  0.00    +0.000 OA
ATOM     15  C   UNL     1      54.089   3.005  19.544  0.00  0.00    +0.000 C 
ENDBRANCH  10  12
ENDBRANCH   8  10
ENDBRANCH   1   4
BRANCH   1  16
ATOM     16  C   UNL     1      47.515   3.961  15.929  0.00  0.00    +0.000 C 
BRANCH  16  21
ATOM     17  C   UNL     1      44.662   4.699  11.763  0.00  0.00    +0.000 A 
ATOM     18  C   UNL     1      45.194   5.620  12.656  0.00  0.00    +0.000 A 
ATOM     19  C   UNL     1      46.061   5.172  13.647  0.00  0.00    +0.000 A 
ATOM     20  C   UNL     1      46.390   3.820  13.729  0.00  0.00    +0.000 A 
ATOM     21  N   UNL     1      47.332   3.342  14.612  0.00  0.00    +0.000 N 
ATOM     22  N   UNL     1      45.856   2.916  12.887  0.00  0.00    +0.000 NA
ATOM     23  C   UNL     1      44.998   3.364  11.932  0.00  0.00    +0.000 A 
ATOM     24  H   UNL     1      47.447   2.331  14.542  0.00  0.00    +0.000 HD
BRANCH  17  26
ATOM     25  N   UNL     1      44.139   4.778   9.399  0.00  0.00    +0.000 N 
ATOM     26  C   UNL     1      43.763   5.098  10.667  0.00  0.00    +0.000 C 
ATOM     27  O   UNL     1      42.699   5.672  10.896  0.00  0.00    +0.000 OA
ATOM     28  H   UNL     1      43.461   4.958   8.667  0.00  0.00    +0.000 HD
ATOM     29  H   UNL     1      44.860   4.089   9.207  0.00  0.00    +0.000 HD
ENDBRANCH  17  26
ENDBRANCH  16  21
ENDBRANCH   1  16
TORSDOF 6
ENDMDL
