MODEL 1
REMARK VINA RESULT:    -8.333      0.000      0.000
REMARK INTER + INTRA:         -11.597
REMARK INTER:                 -10.769
REMARK INTRA:                  -0.828
REMARK UNBOUND:                -0.828
REMARK  Name = 
REMARK  5 active torsions:
REMARK  status: ('A' for Active; 'I' for Inactive)
REMARK    1  A    between atoms: C_2  and  C_3
REMARK    2  A    between atoms: C_6  and  N_7
REMARK    3  A    between atoms: N_7  and  C_8
REMARK    4  A    between atoms: C_8  and  C_9
REMARK    5  A    between atoms: C_13  and  C_14
REMARK                            x       y       z     vdW  Elec       q    Type
REMARK                         _______ _______ _______ _____ _____    ______ ____
ROOT
ATOM      1  C   UNL     1      43.903   5.026  11.180  0.00  0.00    +0.000 C 
ATOM      2  C   UNL     1      42.632   5.114  12.017  0.00  0.00    +0.000 C 
ATOM      3  C   UNL     1      43.004   6.240  11.112  0.00  0.00    +0.000 C 
ENDROOT
BRANCH   1   4
ATOM      4  C   UNL     1      45.257   5.138  11.860  0.00  0.00    +0.000 A 
ATOM      5  C   UNL     1      45.634   4.306  12.923  0.00  0.00    +0.000 A 
ATOM      6  C   UNL     1      46.777   4.575  13.674  0.00  0.00    +0.000 A 
ATOM      7  C   UNL     1      47.556   5.696  13.381  0.00  0.00    +0.000 A 
ATOM      8  C   UNL     1      47.230   6.553  12.319  0.00  0.00    +0.000 A 
ATOM      9  C   UNL     1      46.103   6.221  11.549  0.00  0.00    +0.000 A 
BRANCH   8  10
ATOM     10  C   UNL     1      47.966   7.813  12.073  0.00  0.00    +0.000 A 
ATOM     11  C   UNL     1      49.326   7.821  11.712  0.00  0.00    +0.000 A 
ATOM     12  C   UNL     1      49.992   9.013  11.413  0.00  0.00    +0.000 A 
ATOM     13  C   UNL     1      49.316  10.227  11.480  0.00  0.00    +0.000 A 
ATOM     14  C   UNL     1      47.972  10.249  11.835  0.00  0.00    +0.000 A 
ATOM     15  C   UNL     1      47.306   9.054  12.124  0.00  0.00    +0.000 A 
ENDBRANCH   8  10
ENDBRANCH   1   4
BRANCH   1  16
ATOM     16  N   UNL     1      43.855   3.902  10.225  0.00  0.00    +0.000 N 
ATOM     17  H   UNL     1      43.404   3.077  10.618  0.00  0.00    +0.000 HD
BRANCH  16  21
ATOM     18  C   UNL     1      46.651   2.574   7.505  0.00  0.00    +0.000 A 
ATOM     19  N   UNL     1      46.416   3.903   7.512  0.00  0.00    +0.000 NA
ATOM     20  C   UNL     1      45.524   4.341   8.436  0.00  0.00    +0.000 A 
ATOM     21  C   UNL     1      44.884   3.528   9.351  0.00  0.00    +0.000 A 
ATOM     22  C   UNL     1      45.228   2.188   9.237  0.00  0.00    +0.000 A 
ATOM     23  N   UNL     1      46.102   1.680   8.349  0.00  0.00    +0.000 NA
BRANCH  18  25
ATOM     24  N   UNL     1      48.255   1.635   5.682  0.00  0.00    +0.000 NA
ATOM     25  C   UNL     1      47.526   2.051   6.489  0.00  0.00    +0.000 C 
ENDBRANCH  18  25
ENDBRANCH  16  21
ENDBRANCH   1  16
TORSDOF 5
ENDMDL
MODEL 2
REMARK VINA RESULT:    -8.152      3.106      6.849
REMARK INTER + INTRA:         -11.363
REMARK INTER:                 -10.396
REMARK INTRA:                  -0.967
REMARK UNBOUND:                -0.828
REMARK  Name = 
REMARK  5 active torsions:
REMARK  status: ('A' for Active; 'I' for Inactive)
REMARK    1  A    between atoms: C_2  and  C_3
REMARK    2  A    between atoms: C_6  and  N_7
REMARK    3  A    between atoms: N_7  and  C_8
REMARK    4  A    between atoms: C_8  and  C_9
REMARK    5  A    between atoms: C_13  and  C_14
REMARK                            x       y       z     vdW  Elec       q    Type
REMARK                         _______ _______ _______ _____ _____    ______ ____
ROOT
ATOM      1  C   UNL     1      46.020   7.239  12.131  0.00  0.00    +0.000 C 
ATOM      2  C   UNL     1      46.230   8.678  11.671  0.00  0.00    +0.000 C 
ATOM      3  C   UNL     1      45.424   8.400  12.896  0.00  0.00    +0.000 C 
ENDROOT
BRANCH   1   4
ATOM      4  C   UNL     1      45.106   6.324  11.335  0.00  0.00    +0.000 A 
ATOM      5  C   UNL     1      43.784   6.063  11.721  0.00  0.00    +0.000 A 
ATOM      6  C   UNL     1      43.045   5.052  11.110  0.00  0.00    +0.000 A 
ATOM      7  C   UNL     1      43.625   4.271  10.108  0.00  0.00    +0.000 A 
ATOM      8  C   UNL     1      44.939   4.500   9.675  0.00  0.00    +0.000 A 
ATOM      9  C   UNL     1      45.637   5.563  10.275  0.00  0.00    +0.000 A 
BRANCH   8  10
ATOM     10  C   UNL     1      45.615   3.606   8.710  0.00  0.00    +0.000 A 
ATOM     11  C   UNL     1      46.344   4.109   7.616  0.00  0.00    +0.000 A 
ATOM     12  C   UNL     1      47.038   3.257   6.750  0.00  0.00    +0.000 A 
ATOM     13  C   UNL     1      47.007   1.881   6.952  0.00  0.00    +0.000 A 
ATOM     14  C   UNL     1      46.293   1.357   8.024  0.00  0.00    +0.000 A 
ATOM     15  C   UNL     1      45.610   2.211   8.893  0.00  0.00    +0.000 A 
ENDBRANCH   8  10
ENDBRANCH   1   4
BRANCH   1  16
ATOM     16  N   UNL     1      47.295   6.583  12.478  0.00  0.00    +0.000 N 
ATOM     17  H   UNL     1      47.803   6.261  11.655  0.00  0.00    +0.000 HD
BRANCH  16  21
ATOM     18  C   UNL     1      47.724   4.241  15.841  0.00  0.00    +0.000 A 
ATOM     19  N   UNL     1      47.079   3.672  14.801  0.00  0.00    +0.000 NA
ATOM     20  C   UNL     1      46.975   4.432  13.683  0.00  0.00    +0.000 A 
ATOM     21  C   UNL     1      47.496   5.704  13.551  0.00  0.00    +0.000 A 
ATOM     22  C   UNL     1      48.141   6.159  14.693  0.00  0.00    +0.000 A 
ATOM     23  N   UNL     1      48.285   5.466  15.836  0.00  0.00    +0.000 NA
BRANCH  18  25
ATOM     24  N   UNL     1      47.850   2.934  18.090  0.00  0.00    +0.000 NA
ATOM     25  C   UNL     1      47.788   3.507  17.078  0.00  0.00    +0.000 C 
ENDBRANCH  18  25
ENDBRANCH  16  21
ENDBRANCH   1  16
TORSDOF 5
ENDMDL
MODEL 3
REMARK VINA RESULT:    -7.199      3.715      7.238
REMARK INTER + INTRA:         -10.131
REMARK INTER:                  -9.346
REMARK INTRA:                  -0.785
REMARK UNBOUND:                -0.828
REMARK  Name = 
REMARK  5 active torsions:
REMARK  status: ('A' for Active; 'I' for Inactive)
REMARK    1  A    between atoms: C_2  and  C_3
REMARK    2  A    between atoms: C_6  and  N_7
REMARK    3  A    between atoms: N_7  and  C_8
REMARK    4  A    between atoms: C_8  and  C_9
REMARK    5  A    between atoms: C_13  and  C_14
REMARK                            x       y       z     vdW  Elec       q    Type
REMARK                         _______ _______ _______ _____ _____    ______ ____
ROOT
ATOM      1  C   UNL     1      46.119   7.462  11.994  0.00  0.00    +0.000 C 
ATOM      2  C   UNL     1      46.070   8.949  11.662  0.00  0.00    +0.000 C 
ATOM      3  C   UNL     1      45.560   8.465  12.978  0.00  0.00    +0.000 C 
ENDROOT
BRANCH   1   4
ATOM      4  C   UNL     1      45.174   6.505  11.288  0.00  0.00    +0.000 A 
ATOM      5  C   UNL     1      43.866   6.276  11.736  0.00  0.00    +0.000 A 
ATOM      6  C   UNL     1      43.101   5.233  11.214  0.00  0.00    +0.000 A 
ATOM      7  C   UNL     1      43.642   4.390  10.242  0.00  0.00    +0.000 A 
ATOM      8  C   UNL     1      44.941   4.585   9.749  0.00  0.00    +0.000 A 
ATOM      9  C   UNL     1      45.663   5.678  10.258  0.00  0.00    +0.000 A 
BRANCH   8  10
ATOM     10  C   UNL     1      45.579   3.630   8.816  0.00  0.00    +0.000 A 
ATOM     11  C   UNL     1      46.364   4.062   7.732  0.00  0.00    +0.000 A 
ATOM     12  C   UNL     1      47.019   3.150   6.898  0.00  0.00    +0.000 A 
ATOM     13  C   UNL     1      46.895   1.784   7.125  0.00  0.00    +0.000 A 
ATOM     14  C   UNL     1      46.125   1.328   8.189  0.00  0.00    +0.000 A 
ATOM     15  C   UNL     1      45.479   2.242   9.026  0.00  0.00    +0.000 A 
ENDBRANCH   8  10
ENDBRANCH   1   4
BRANCH   1  16
ATOM     16  N   UNL     1      47.503   6.951  12.023  0.00  0.00    +0.000 N 
ATOM     17  H   UNL     1      47.639   6.160  11.395  0.00  0.00    +0.000 HD
BRANCH  16  21
ATOM     18  C   UNL     1      49.808   6.882  15.438  0.00  0.00    +0.000 A 
ATOM     19  N   UNL     1      48.720   6.084  15.441  0.00  0.00    +0.000 NA
ATOM     20  C   UNL     1      47.986   6.080  14.300  0.00  0.00    +0.000 A 
ATOM     21  C   UNL     1      48.297   6.808  13.169  0.00  0.00    +0.000 A 
ATOM     22  C   UNL     1      49.446   7.575  13.302  0.00  0.00    +0.000 A 
ATOM     23  N   UNL     1      50.224   7.631  14.398  0.00  0.00    +0.000 NA
BRANCH  18  25
ATOM     24  N   UNL     1      51.212   7.068  17.623  0.00  0.00    +0.000 NA
ATOM     25  C   UNL     1      50.572   6.985  16.654  0.00  0.00    +0.000 C 
ENDBRANCH  18  25
ENDBRANCH  16  21
ENDBRANCH   1  16
TORSDOF 5
ENDMDL
MODEL 4
REMARK VINA RESULT:    -7.194      1.882      3.858
REMARK INTER + INTRA:         -10.125
REMARK INTER:                 -10.486
REMARK INTRA:                   0.362
REMARK UNBOUND:                -0.828
REMARK  Name = 
REMARK  5 active torsions:
REMARK  status: ('A' for Active; 'I' for Inactive)
REMARK    1  A    between atoms: C_2  and  C_3
REMARK    2  A    between atoms: C_6  and  N_7
REMARK    3  A    between atoms: N_7  and  C_8
REMARK    4  A    between atoms: C_8  and  C_9
REMARK    5  A    between atoms: C_13  and  C_14
REMARK                            x       y       z     vdW  Elec       q    Type
REMARK                         _______ _______ _______ _____ _____    ______ ____
ROOT
ATOM      1  C   UNL     1      44.160   4.700  11.835  0.00  0.00    +0.000 C 
ATOM      2  C   UNL     1      43.810   3.304  12.338  0.00  0.00    +0.000 C 
ATOM      3  C   UNL     1      42.983   4.474  12.757  0.00  0.00    +0.000 C 
ENDROOT
BRANCH   1   4
ATOM      4  C   UNL     1      45.400   5.398  12.368  0.00  0.00    +0.000 A 
ATOM      5  C   UNL     1      46.209   6.209  11.561  0.00  0.00    +0.000 A 
ATOM      6  C   UNL     1      47.454   6.650  12.006  0.00  0.00    +0.000 A 
ATOM      7  C   UNL     1      47.918   6.271  13.268  0.00  0.00    +0.000 A 
ATOM      8  C   UNL     1      47.141   5.472  14.120  0.00  0.00    +0.000 A 
ATOM      9  C   UNL     1      45.869   5.091  13.660  0.00  0.00    +0.000 A 
BRANCH   8  10
ATOM     10  C   UNL     1      47.664   4.953  15.403  0.00  0.00    +0.000 A 
ATOM     11  C   UNL     1      48.568   5.691  16.189  0.00  0.00    +0.000 A 
ATOM     12  C   UNL     1      49.001   5.223  17.434  0.00  0.00    +0.000 A 
ATOM     13  C   UNL     1      48.548   3.999  17.915  0.00  0.00    +0.000 A 
ATOM     14  C   UNL     1      47.656   3.248  17.159  0.00  0.00    +0.000 A 
ATOM     15  C   UNL     1      47.217   3.723  15.920  0.00  0.00    +0.000 A 
ENDBRANCH   8  10
ENDBRANCH   1   4
BRANCH   1  16
ATOM     16  N   UNL     1      44.060   4.795  10.366  0.00  0.00    +0.000 N 
ATOM     17  H   UNL     1      43.099   4.922  10.050  0.00  0.00    +0.000 HD
BRANCH  16  21
ATOM     18  C   UNL     1      46.470   2.703   7.760  0.00  0.00    +0.000 A 
ATOM     19  N   UNL     1      45.770   1.962   8.645  0.00  0.00    +0.000 NA
ATOM     20  C   UNL     1      44.948   2.652   9.474  0.00  0.00    +0.000 A 
ATOM     21  C   UNL     1      44.780   4.023   9.446  0.00  0.00    +0.000 A 
ATOM     22  C   UNL     1      45.552   4.655   8.482  0.00  0.00    +0.000 A 
ATOM     23  N   UNL     1      46.388   4.041   7.625  0.00  0.00    +0.000 NA
BRANCH  18  25
ATOM     24  N   UNL     1      48.186   1.499   6.215  0.00  0.00    +0.000 NA
ATOM     25  C   UNL     1      47.418   2.026   6.915  0.00  0.00    +0.000 C 
ENDBRANCH  18  25
ENDBRANCH  16  21
ENDBRANCH   1  16
TORSDOF 5
ENDMDL
MODEL 5
REMARK VINA RESULT:    -6.821      1.225      2.305
REMARK INTER + INTRA:          -9.642
REMARK INTER:                  -9.824
REMARK INTRA:                   0.182
REMARK UNBOUND:                -0.828
REMARK  Name = 
REMARK  5 active torsions:
REMARK  status: ('A' for Active; 'I' for Inactive)
REMARK    1  A    between atoms: C_2  and  C_3
REMARK    2  A    between atoms: C_6  and  N_7
REMARK    3  A    between atoms: N_7  and  C_8
REMARK    4  A    between atoms: C_8  and  C_9
REMARK    5  A    between atoms: C_13  and  C_14
REMARK                            x       y       z     vdW  Elec       q    Type
REMARK                         _______ _______ _______ _____ _____    ______ ____
ROOT
ATOM      1  C   UNL     1      44.208   4.398  11.668  0.00  0.00    +0.000 C 
ATOM      2  C   UNL     1      45.032   3.271  12.280  0.00  0.00    +0.000 C 
ATOM      3  C   UNL     1      43.708   3.629  12.870  0.00  0.00    +0.000 C 
ENDROOT
BRANCH   1   4
ATOM      4  C   UNL     1      44.662   5.838  11.841  0.00  0.00    +0.000 A 
ATOM      5  C   UNL     1      43.897   6.925  11.397  0.00  0.00    +0.000 A 
ATOM      6  C   UNL     1      44.433   8.211  11.360  0.00  0.00    +0.000 A 
ATOM      7  C   UNL     1      45.755   8.429  11.754  0.00  0.00    +0.000 A 
ATOM      8  C   UNL     1      46.558   7.377  12.220  0.00  0.00    +0.000 A 
ATOM      9  C   UNL     1      45.969   6.104  12.296  0.00  0.00    +0.000 A 
BRANCH   8  10
ATOM     10  C   UNL     1      47.995   7.561  12.520  0.00  0.00    +0.000 A 
ATOM     11  C   UNL     1      48.939   7.815  11.508  0.00  0.00    +0.000 A 
ATOM     12  C   UNL     1      50.283   8.057  11.810  0.00  0.00    +0.000 A 
ATOM     13  C   UNL     1      50.715   8.039  13.131  0.00  0.00    +0.000 A 
ATOM     14  C   UNL     1      49.805   7.789  14.152  0.00  0.00    +0.000 A 
ATOM     15  C   UNL     1      48.461   7.557  13.848  0.00  0.00    +0.000 A 
ENDBRANCH   8  10
ENDBRANCH   1   4
BRANCH   1  16
ATOM     16  N   UNL     1      43.824   4.103  10.274  0.00  0.00    +0.000 N 
ATOM     17  H   UNL     1      42.879   3.729  10.202  0.00  0.00    +0.000 HD
BRANCH  16  21
ATOM     18  C   UNL     1      46.533   2.600   7.557  0.00  0.00    +0.000 A 
ATOM     19  N   UNL     1      45.868   1.689   8.297  0.00  0.00    +0.000 NA
ATOM     20  C   UNL     1      44.949   2.186   9.162  0.00  0.00    +0.000 A 
ATOM     21  C   UNL     1      44.654   3.528   9.303  0.00  0.00    +0.000 A 
ATOM     22  C   UNL     1      45.405   4.350   8.474  0.00  0.00    +0.000 A 
ATOM     23  N   UNL     1      46.332   3.932   7.593  0.00  0.00    +0.000 NA
BRANCH  18  25
ATOM     24  N   UNL     1      48.419   1.722   5.991  0.00  0.00    +0.000 NA
ATOM     25  C   UNL     1      47.577   2.129   6.686  0.00  0.00    +0.000 C 
ENDBRANCH  18  25
ENDBRANCH  16  21
ENDBRANCH   1  16
TORSDOF 5
ENDMDL
MODEL 6
REMARK VINA RESULT:    -6.444      3.228      6.994
REMARK INTER + INTRA:          -9.156
REMARK INTER:                  -8.451
REMARK INTRA:                  -0.704
REMARK UNBOUND:                -0.828
REMARK  Name = 
REMARK  5 active torsions:
REMARK  status: ('A' for Active; 'I' for Inactive)
REMARK    1  A    between atoms: C_2  and  C_3
REMARK    2  A    between atoms: C_6  and  N_7
REMARK    3  A    between atoms: N_7  and  C_8
REMARK    4  A    between atoms: C_8  and  C_9
REMARK    5  A    between atoms: C_13  and  C_14
REMARK                            x       y       z     vdW  Elec       q    Type
REMARK                         _______ _______ _______ _____ _____    ______ ____
ROOT
ATOM      1  C   UNL     1      47.818   7.887  12.436  0.00  0.00    +0.000 C 
ATOM      2  C   UNL     1      48.705   8.750  11.546  0.00  0.00    +0.000 C 
ATOM      3  C   UNL     1      48.001   9.362  12.711  0.00  0.00    +0.000 C 
ENDROOT
BRANCH   1   4
ATOM      4  C   UNL     1      46.484   7.389  11.905  0.00  0.00    +0.000 A 
ATOM      5  C   UNL     1      45.261   7.757  12.483  0.00  0.00    +0.000 A 
ATOM      6  C   UNL     1      44.077   7.114  12.128  0.00  0.00    +0.000 A 
ATOM      7  C   UNL     1      44.100   6.076  11.194  0.00  0.00    +0.000 A 
ATOM      8  C   UNL     1      45.295   5.679  10.575  0.00  0.00    +0.000 A 
ATOM      9  C   UNL     1      46.460   6.386  10.916  0.00  0.00    +0.000 A 
BRANCH   8  10
ATOM     10  C   UNL     1      45.362   4.501   9.682  0.00  0.00    +0.000 A 
ATOM     11  C   UNL     1      44.799   3.263  10.042  0.00  0.00    +0.000 A 
ATOM     12  C   UNL     1      44.807   2.177   9.161  0.00  0.00    +0.000 A 
ATOM     13  C   UNL     1      45.389   2.302   7.904  0.00  0.00    +0.000 A 
ATOM     14  C   UNL     1      45.954   3.513   7.523  0.00  0.00    +0.000 A 
ATOM     15  C   UNL     1      45.936   4.600   8.401  0.00  0.00    +0.000 A 
ENDBRANCH   8  10
ENDBRANCH   1   4
BRANCH   1  16
ATOM     16  N   UNL     1      48.583   6.815  13.100  0.00  0.00    +0.000 N 
ATOM     17  H   UNL     1      49.084   6.226  12.436  0.00  0.00    +0.000 HD
BRANCH  16  21
ATOM     18  C   UNL     1      47.434   4.297  16.153  0.00  0.00    +0.000 A 
ATOM     19  N   UNL     1      48.213   5.341  16.507  0.00  0.00    +0.000 NA
ATOM     20  C   UNL     1      48.556   6.189  15.506  0.00  0.00    +0.000 A 
ATOM     21  C   UNL     1      48.145   6.057  14.194  0.00  0.00    +0.000 A 
ATOM     22  C   UNL     1      47.342   4.946  13.975  0.00  0.00    +0.000 A 
ATOM     23  N   UNL     1      46.959   4.062  14.914  0.00  0.00    +0.000 NA
BRANCH  18  25
ATOM     24  N   UNL     1      46.877   2.525  17.978  0.00  0.00    +0.000 NA
ATOM     25  C   UNL     1      47.112   3.323  17.163  0.00  0.00    +0.000 C 
ENDBRANCH  18  25
ENDBRANCH  16  21
ENDBRANCH   1  16
TORSDOF 5
ENDMDL
MODEL 7
REMARK VINA RESULT:    -6.303      5.769      8.409
REMARK INTER + INTRA:          -8.974
REMARK INTER:                  -8.390
REMARK INTRA:                  -0.584
REMARK UNBOUND:                -0.828
REMARK  Name = 
REMARK  5 active torsions:
REMARK  status: ('A' for Active; 'I' for Inactive)
REMARK    1  A    between atoms: C_2  and  C_3
REMARK    2  A    between atoms: C_6  and  N_7
REMARK    3  A    between atoms: N_7  and  C_8
REMARK    4  A    between atoms: C_8  and  C_9
REMARK    5  A    between atoms: C_13  and  C_14
REMARK                            x       y       z     vdW  Elec       q    Type
REMARK                         _______ _______ _______ _____ _____    ______ ____
ROOT
ATOM      1  C   UNL     1      48.151   4.471  17.006  0.00  0.00    +0.000 C 
ATOM      2  C   UNL     1      47.196   4.809  18.145  0.00  0.00    +0.000 C 
ATOM      3  C   UNL     1      47.161   3.453  17.524  0.00  0.00    +0.000 C 
ENDROOT
BRANCH   1   4
ATOM      4  C   UNL     1      47.933   5.092  15.637  0.00  0.00    +0.000 A 
ATOM      5  C   UNL     1      48.584   6.265  15.233  0.00  0.00    +0.000 A 
ATOM      6  C   UNL     1      48.200   6.936  14.073  0.00  0.00    +0.000 A 
ATOM      7  C   UNL     1      47.142   6.448  13.303  0.00  0.00    +0.000 A 
ATOM      8  C   UNL     1      46.467   5.270  13.656  0.00  0.00    +0.000 A 
ATOM      9  C   UNL     1      46.917   4.590  14.801  0.00  0.00    +0.000 A 
BRANCH   8  10
ATOM     10  C   UNL     1      45.265   4.807  12.929  0.00  0.00    +0.000 A 
ATOM     11  C   UNL     1      44.073   5.554  12.912  0.00  0.00    +0.000 A 
ATOM     12  C   UNL     1      42.965   5.142  12.164  0.00  0.00    +0.000 A 
ATOM     13  C   UNL     1      43.022   3.965  11.424  0.00  0.00    +0.000 A 
ATOM     14  C   UNL     1      44.187   3.206  11.423  0.00  0.00    +0.000 A 
ATOM     15  C   UNL     1      45.295   3.626  12.164  0.00  0.00    +0.000 A 
ENDBRANCH   8  10
ENDBRANCH   1   4
BRANCH   1  16
ATOM     16  N   UNL     1      49.562   4.549  17.431  0.00  0.00    +0.000 N 
ATOM     17  H   UNL     1      50.009   5.416  17.135  0.00  0.00    +0.000 HD
BRANCH  16  21
ATOM     18  C   UNL     1      52.296   1.480  17.725  0.00  0.00    +0.000 A 
ATOM     19  N   UNL     1      51.112   1.167  17.158  0.00  0.00    +0.000 NA
ATOM     20  C   UNL     1      50.230   2.189  17.028  0.00  0.00    +0.000 A 
ATOM     21  C   UNL     1      50.481   3.492  17.411  0.00  0.00    +0.000 A 
ATOM     22  C   UNL     1      51.740   3.672  17.968  0.00  0.00    +0.000 A 
ATOM     23  N   UNL     1      52.666   2.711  18.130  0.00  0.00    +0.000 NA
BRANCH  18  25
ATOM     24  N   UNL     1      53.974  -0.467  18.141  0.00  0.00    +0.000 NA
ATOM     25  C   UNL     1      53.233   0.414  17.962  0.00  0.00    +0.000 C 
ENDBRANCH  18  25
ENDBRANCH  16  21
ENDBRANCH   1  16
TORSDOF 5
ENDMDL
MODEL 8
REMARK VINA RESULT:    -5.884      3.387      6.280
REMARK INTER + INTRA:          -8.432
REMARK INTER:                  -7.789
REMARK INTRA:                  -0.643
REMARK UNBOUND:                -0.828
REMARK  Name = 
REMARK  5 active torsions:
REMARK  status: ('A' for Active; 'I' for Inactive)
REMARK    1  A    between atoms: C_2  and  C_3
REMARK    2  A    between atoms: C_6  and  N_7
REMARK    3  A    between atoms: N_7  and  C_8
REMARK    4  A    between atoms: C_8  and  C_9
REMARK    5  A    between atoms: C_13  and  C_14
REMARK                            x       y       z     vdW  Elec       q    Type
REMARK                         _______ _______ _______ _____ _____    ______ ____
ROOT
ATOM      1  C   UNL     1      48.143   7.792  12.932  0.00  0.00    +0.000 C 
ATOM      2  C   UNL     1      48.207   9.080  12.118  0.00  0.00    +0.000 C 
ATOM      3  C   UNL     1      48.723   7.806  11.535  0.00  0.00    +0.000 C 
ENDROOT
BRANCH   1   4
ATOM      4  C   UNL     1      49.071   7.612  14.121  0.00  0.00    +0.000 A 
ATOM      5  C   UNL     1      50.380   8.114  14.135  0.00  0.00    +0.000 A 
ATOM      6  C   UNL     1      51.280   7.742  15.132  0.00  0.00    +0.000 A 
ATOM      7  C   UNL     1      50.888   6.846  16.128  0.00  0.00    +0.000 A 
ATOM      8  C   UNL     1      49.585   6.325  16.168  0.00  0.00    +0.000 A 
ATOM      9  C   UNL     1      48.688   6.764  15.179  0.00  0.00    +0.000 A 
BRANCH   8  10
ATOM     10  C   UNL     1      49.187   5.279  17.135  0.00  0.00    +0.000 A 
ATOM     11  C   UNL     1      49.647   5.282  18.465  0.00  0.00    +0.000 A 
ATOM     12  C   UNL     1      49.209   4.329  19.389  0.00  0.00    +0.000 A 
ATOM     13  C   UNL     1      48.309   3.342  19.000  0.00  0.00    +0.000 A 
ATOM     14  C   UNL     1      47.839   3.314  17.692  0.00  0.00    +0.000 A 
ATOM     15  C   UNL     1      48.271   4.274  16.773  0.00  0.00    +0.000 A 
ENDBRANCH   8  10
ENDBRANCH   1   4
BRANCH   1  16
ATOM     16  N   UNL     1      46.754   7.413  13.252  0.00  0.00    +0.000 N 
ATOM     17  H   UNL     1      46.528   7.558  14.235  0.00  0.00    +0.000 HD
BRANCH  16  21
ATOM     18  C   UNL     1      44.551   4.135  12.075  0.00  0.00    +0.000 A 
ATOM     19  N   UNL     1      44.642   5.141  11.180  0.00  0.00    +0.000 NA
ATOM     20  C   UNL     1      45.401   6.200  11.556  0.00  0.00    +0.000 A 
ATOM     21  C   UNL     1      46.079   6.290  12.755  0.00  0.00    +0.000 A 
ATOM     22  C   UNL     1      45.904   5.182  13.574  0.00  0.00    +0.000 A 
ATOM     23  N   UNL     1      45.170   4.097  13.271  0.00  0.00    +0.000 NA
BRANCH  18  25
ATOM     24  N   UNL     1      42.985   2.142  11.479  0.00  0.00    +0.000 NA
ATOM     25  C   UNL     1      43.691   3.026  11.758  0.00  0.00    +0.000 C 
ENDBRANCH  18  25
ENDBRANCH  16  21
ENDBRANCH   1  16
TORSDOF 5
ENDMDL
MODEL 9
REMARK VINA RESULT:    -5.527      4.694      7.585
REMARK INTER + INTRA:          -7.971
REMARK INTER:                  -7.594
REMARK INTRA:                  -0.377
REMARK UNBOUND:                -0.828
REMARK  Name = 
REMARK  5 active torsions:
REMARK  status: ('A' for Active; 'I' for Inactive)
REMARK    1  A    between atoms: C_2  and  C_3
REMARK    2  A    between atoms: C_6  and  N_7
REMARK    3  A    between atoms: N_7  and  C_8
REMARK    4  A    between atoms: C_8  and  C_9
REMARK    5  A    between atoms: C_13  and  C_14
REMARK                            x       y       z     vdW  Elec       q    Type
REMARK                         _______ _______ _______ _____ _____    ______ ____
ROOT
ATOM      1  C   UNL     1      48.644   8.125  15.892  0.00  0.00    +0.000 C 
ATOM      2  C   UNL     1      49.764   9.042  16.370  0.00  0.00    +0.000 C 
ATOM      3  C   UNL     1      48.393   9.592  16.161  0.00  0.00    +0.000 C 
ENDROOT
BRANCH   1   4
ATOM      4  C   UNL     1      48.649   7.622  14.459  0.00  0.00    +0.000 A 
ATOM      5  C   UNL     1      49.664   7.952  13.551  0.00  0.00    +0.000 A 
ATOM      6  C   UNL     1      49.531   7.671  12.192  0.00  0.00    +0.000 A 
ATOM      7  C   UNL     1      48.367   7.065  11.716  0.00  0.00    +0.000 A 
ATOM      8  C   UNL     1      47.327   6.701  12.584  0.00  0.00    +0.000 A 
ATOM      9  C   UNL     1      47.518   6.950  13.954  0.00  0.00    +0.000 A 
BRANCH   8  10
ATOM     10  C   UNL     1      46.036   6.177  12.087  0.00  0.00    +0.000 A 
ATOM     11  C   UNL     1      45.885   5.699  10.773  0.00  0.00    +0.000 A 
ATOM     12  C   UNL     1      44.679   5.141  10.335  0.00  0.00    +0.000 A 
ATOM     13  C   UNL     1      43.593   5.059  11.200  0.00  0.00    +0.000 A 
ATOM     14  C   UNL     1      43.714   5.526  12.504  0.00  0.00    +0.000 A 
ATOM     15  C   UNL     1      44.923   6.073  12.942  0.00  0.00    +0.000 A 
ENDBRANCH   8  10
ENDBRANCH   1   4
BRANCH   1  16
ATOM     16  N   UNL     1      48.368   7.044  16.857  0.00  0.00    +0.000 N 
ATOM     17  H   UNL     1      48.324   7.382  17.818  0.00  0.00    +0.000 HD
BRANCH  16  21
ATOM     18  C   UNL     1      50.095   3.309  17.071  0.00  0.00    +0.000 A 
ATOM     19  N   UNL     1      48.775   3.336  16.793  0.00  0.00    +0.000 NA
ATOM     20  C   UNL     1      48.219   4.569  16.684  0.00  0.00    +0.000 A 
ATOM     21  C   UNL     1      48.915   5.755  16.817  0.00  0.00    +0.000 A 
ATOM     22  C   UNL     1      50.264   5.577  17.093  0.00  0.00    +0.000 A 
ATOM     23  N   UNL     1      50.885   4.390  17.214  0.00  0.00    +0.000 NA
BRANCH  18  25
ATOM     24  N   UNL     1      51.205   0.988  17.473  0.00  0.00    +0.000 NA
ATOM     25  C   UNL     1      50.713   2.026  17.279  0.00  0.00    +0.000 C 
ENDBRANCH  18  25
ENDBRANCH  16  21
ENDBRANCH   1  16
TORSDOF 5
ENDMDL
