MODEL 1
REMARK VINA RESULT:    -8.070      0.000      0.000
REMARK INTER + INTRA:         -12.384
REMARK INTER:                 -11.372
REMARK INTRA:                  -1.012
REMARK UNBOUND:                -1.012
REMARK  Name = 
REMARK  8 active torsions:
REMARK  status: ('A' for Active; 'I' for Inactive)
REMARK    1  A    between atoms: C_1  and  O_2
REMARK    2  A    between atoms: O_2  and  C_3
REMARK    3  A    between atoms: C_5  and  C_6
REMARK    4  A    between atoms: C_6  and  N_7
REMARK    5  A    between atoms: C_8  and  C_10
REMARK    6  A    between atoms: C_17  and  C_18
REMARK    7  A    between atoms: C_18  and  N_19
REMARK    8  A    between atoms: C_20  and  C_22
REMARK                            x       y       z     vdW  Elec       q    Type
REMARK                         _______ _______ _______ _____ _____    ______ ____
ROOT
ATOM      1  C   UNL     1      46.881   5.379  13.063  0.00  0.00    +0.000 A 
ATOM      2  C   UNL     1      45.913   4.691  12.314  0.00  0.00    +0.000 A 
ATOM      3  C   UNL     1      45.061   5.369  11.428  0.00  0.00    +0.000 A 
ATOM      4  C   UNL     1      45.195   6.754  11.293  0.00  0.00    +0.000 A 
ATOM      5  C   UNL     1      46.154   7.447  12.036  0.00  0.00    +0.000 A 
ATOM      6  C   UNL     1      47.002   6.774  12.933  0.00  0.00    +0.000 A 
ENDROOT
BRANCH   1   8
ATOM      7  C   UNL     1      47.113   3.892  14.903  0.00  0.00    +0.000 C 
ATOM      8  O   UNL     1      47.719   4.773  13.963  0.00  0.00    +0.000 OA
ENDBRANCH   1   8
BRANCH   3   9
ATOM      9  C   UNL     1      44.049   4.608  10.609  0.00  0.00    +0.000 C 
BRANCH   9  10
ATOM     10  N   UNL     1      44.687   3.606   9.790  0.00  0.00    +0.000 N 
ATOM     11  C   UNL     1      45.476   3.947   8.716  0.00  0.00    +0.000 C 
ATOM     12  O   UNL     1      45.645   5.113   8.370  0.00  0.00    +0.000 OA
ATOM     13  H   UNL     1      44.646   2.644  10.091  0.00  0.00    +0.000 HD
BRANCH  11  14
ATOM     14  C   UNL     1      46.099   2.837   8.031  0.00  0.00    +0.000 A 
ATOM     15  C   UNL     1      46.870   2.769   6.878  0.00  0.00    +0.000 A 
ATOM     16  C   UNL     1      47.218   1.412   6.658  0.00  0.00    +0.000 A 
ATOM     17  C   UNL     1      46.661   0.678   7.676  0.00  0.00    +0.000 A 
ATOM     18  N   UNL     1      45.994   1.545   8.500  0.00  0.00    +0.000 N 
ATOM     19  H   UNL     1      45.483   1.292   9.343  0.00  0.00    +0.000 HD
ENDBRANCH  11  14
ENDBRANCH   9  10
ENDBRANCH   3   9
BRANCH   6  20
ATOM     20  C   UNL     1      48.059   7.569  13.666  0.00  0.00    +0.000 C 
BRANCH  20  21
ATOM     21  N   UNL     1      47.931   7.388  15.097  0.00  0.00    +0.000 N 
ATOM     22  C   UNL     1      48.993   7.039  15.893  0.00  0.00    +0.000 C 
ATOM     23  O   UNL     1      50.076   6.687  15.436  0.00  0.00    +0.000 OA
ATOM     24  H   UNL     1      47.142   7.865  15.518  0.00  0.00    +0.000 HD
BRANCH  22  25
ATOM     25  C   UNL     1      48.749   7.059  17.343  0.00  0.00    +0.000 A 
ATOM     26  C   UNL     1      48.308   8.223  17.960  0.00  0.00    +0.000 A 
ATOM     27  S   UNL     1      48.067   8.057  19.642  0.00  0.00    +0.000 S 
ATOM     28  C   UNL     1      48.500   6.411  19.596  0.00  0.00    +0.000 A 
ATOM     29  N   UNL     1      48.465   5.648  20.721  0.00  0.00    +0.000 NA
ATOM     30  C   UNL     1      48.773   4.407  20.533  0.00  0.00    +0.000 A 
ATOM     31  N   UNL     1      49.129   3.866  19.324  0.00  0.00    +0.000 N 
ATOM     32  C   UNL     1      49.242   4.614  18.176  0.00  0.00    +0.000 A 
ATOM     33  O   UNL     1      49.670   4.122  17.138  0.00  0.00    +0.000 OA
ATOM     34  C   UNL     1      48.857   6.004  18.323  0.00  0.00    +0.000 A 
ATOM     35  H   UNL     1      49.388   2.893  19.247  0.00  0.00    +0.000 HD
ENDBRANCH  22  25
ENDBRANCH  20  21
ENDBRANCH   6  20
TORSDOF 7
ENDMDL
MODEL 2
REMARK VINA RESULT:    -7.930      1.566      2.297
REMARK INTER + INTRA:         -12.187
REMARK INTER:                 -11.227
REMARK INTRA:                  -0.959
REMARK UNBOUND:                -1.012
REMARK  Name = 
REMARK  8 active torsions:
REMARK  status: ('A' for Active; 'I' for Inactive)
REMARK    1  A    between atoms: C_1  and  O_2
REMARK    2  A    between atoms: O_2  and  C_3
REMARK    3  A    between atoms: C_5  and  C_6
REMARK    4  A    between atoms: C_6  and  N_7
REMARK    5  A    between atoms: C_8  and  C_10
REMARK    6  A    between atoms: C_17  and  C_18
REMARK    7  A    between atoms: C_18  and  N_19
REMARK    8  A    between atoms: C_20  and  C_22
REMARK                            x       y       z     vdW  Elec       q    Type
REMARK                         _______ _______ _______ _____ _____    ______ ____
ROOT
ATOM      1  C   UNL     1      45.208   7.473  12.025  0.00  0.00    +0.000 A 
ATOM      2  C   UNL     1      44.416   6.530  11.351  0.00  0.00    +0.000 A 
ATOM      3  C   UNL     1      44.706   5.157  11.413  0.00  0.00    +0.000 A 
ATOM      4  C   UNL     1      45.803   4.736  12.171  0.00  0.00    +0.000 A 
ATOM      5  C   UNL     1      46.598   5.668  12.843  0.00  0.00    +0.000 A 
ATOM      6  C   UNL     1      46.317   7.044  12.775  0.00  0.00    +0.000 A 
ENDROOT
BRANCH   1   8
ATOM      7  C   UNL     1      44.076   9.285  10.984  0.00  0.00    +0.000 C 
ATOM      8  O   UNL     1      44.987   8.825  11.977  0.00  0.00    +0.000 OA
ENDBRANCH   1   8
BRANCH   3   9
ATOM      9  C   UNL     1      43.826   4.158  10.707  0.00  0.00    +0.000 C 
BRANCH   9  10
ATOM     10  N   UNL     1      44.611   3.232   9.927  0.00  0.00    +0.000 N 
ATOM     11  C   UNL     1      45.195   3.604   8.738  0.00  0.00    +0.000 C 
ATOM     12  O   UNL     1      45.046   4.723   8.256  0.00  0.00    +0.000 OA
ATOM     13  H   UNL     1      44.830   2.332  10.327  0.00  0.00    +0.000 HD
BRANCH  11  14
ATOM     14  C   UNL     1      46.002   2.587   8.102  0.00  0.00    +0.000 A 
ATOM     15  C   UNL     1      47.000   2.658   7.138  0.00  0.00    +0.000 A 
ATOM     16  C   UNL     1      47.454   1.341   6.874  0.00  0.00    +0.000 A 
ATOM     17  C   UNL     1      46.735   0.492   7.679  0.00  0.00    +0.000 A 
ATOM     18  N   UNL     1      45.867   1.251   8.418  0.00  0.00    +0.000 N 
ATOM     19  H   UNL     1      45.205   0.901   9.106  0.00  0.00    +0.000 HD
ENDBRANCH  11  14
ENDBRANCH   9  10
ENDBRANCH   3   9
BRANCH   6  20
ATOM     20  C   UNL     1      47.179   7.999  13.571  0.00  0.00    +0.000 C 
BRANCH  20  21
ATOM     21  N   UNL     1      47.690   7.353  14.761  0.00  0.00    +0.000 N 
ATOM     22  C   UNL     1      49.006   6.990  14.895  0.00  0.00    +0.000 C 
ATOM     23  O   UNL     1      49.801   7.025  13.961  0.00  0.00    +0.000 OA
ATOM     24  H   UNL     1      47.138   7.503  15.598  0.00  0.00    +0.000 HD
BRANCH  22  25
ATOM     25  C   UNL     1      49.411   6.501  16.221  0.00  0.00    +0.000 A 
ATOM     26  C   UNL     1      50.411   7.155  16.931  0.00  0.00    +0.000 A 
ATOM     27  S   UNL     1      50.739   6.455  18.452  0.00  0.00    +0.000 S 
ATOM     28  C   UNL     1      49.526   5.281  18.236  0.00  0.00    +0.000 A 
ATOM     29  N   UNL     1      49.252   4.372  19.209  0.00  0.00    +0.000 NA
ATOM     30  C   UNL     1      48.277   3.571  18.930  0.00  0.00    +0.000 A 
ATOM     31  N   UNL     1      47.564   3.588  17.759  0.00  0.00    +0.000 N 
ATOM     32  C   UNL     1      47.850   4.444  16.724  0.00  0.00    +0.000 A 
ATOM     33  O   UNL     1      47.267   4.358  15.648  0.00  0.00    +0.000 OA
ATOM     34  C   UNL     1      48.904   5.400  17.005  0.00  0.00    +0.000 A 
ATOM     35  H   UNL     1      46.831   2.915  17.589  0.00  0.00    +0.000 HD
ENDBRANCH  22  25
ENDBRANCH  20  21
ENDBRANCH   6  20
TORSDOF 7
ENDMDL
MODEL 3
REMARK VINA RESULT:    -7.178      3.491      9.664
REMARK INTER + INTRA:         -11.128
REMARK INTER:                 -10.072
REMARK INTRA:                  -1.056
REMARK UNBOUND:                -1.012
REMARK  Name = 
REMARK  8 active torsions:
REMARK  status: ('A' for Active; 'I' for Inactive)
REMARK    1  A    between atoms: C_1  and  O_2
REMARK    2  A    between atoms: O_2  and  C_3
REMARK    3  A    between atoms: C_5  and  C_6
REMARK    4  A    between atoms: C_6  and  N_7
REMARK    5  A    between atoms: C_8  and  C_10
REMARK    6  A    between atoms: C_17  and  C_18
REMARK    7  A    between atoms: C_18  and  N_19
REMARK    8  A    between atoms: C_20  and  C_22
REMARK                            x       y       z     vdW  Elec       q    Type
REMARK                         _______ _______ _______ _____ _____    ______ ____
ROOT
ATOM      1  C   UNL     1      45.743   4.792  12.821  0.00  0.00    +0.000 A 
ATOM      2  C   UNL     1      46.384   6.017  13.063  0.00  0.00    +0.000 A 
ATOM      3  C   UNL     1      45.879   7.220  12.544  0.00  0.00    +0.000 A 
ATOM      4  C   UNL     1      44.709   7.182  11.779  0.00  0.00    +0.000 A 
ATOM      5  C   UNL     1      44.065   5.967  11.531  0.00  0.00    +0.000 A 
ATOM      6  C   UNL     1      44.574   4.759  12.039  0.00  0.00    +0.000 A 
ENDROOT
BRANCH   1   8
ATOM      7  C   UNL     1      47.089   3.628  14.396  0.00  0.00    +0.000 C 
ATOM      8  O   UNL     1      46.207   3.586  13.278  0.00  0.00    +0.000 OA
ENDBRANCH   1   8
BRANCH   3   9
ATOM      9  C   UNL     1      46.564   8.529  12.841  0.00  0.00    +0.000 C 
BRANCH   9  10
ATOM     10  N   UNL     1      46.862   8.653  14.248  0.00  0.00    +0.000 N 
ATOM     11  C   UNL     1      48.148   8.837  14.700  0.00  0.00    +0.000 C 
ATOM     12  O   UNL     1      49.113   8.861  13.941  0.00  0.00    +0.000 OA
ATOM     13  H   UNL     1      46.093   8.726  14.896  0.00  0.00    +0.000 HD
BRANCH  11  14
ATOM     14  C   UNL     1      48.282   9.009  16.129  0.00  0.00    +0.000 A 
ATOM     15  C   UNL     1      48.539  10.126  16.913  0.00  0.00    +0.000 A 
ATOM     16  C   UNL     1      48.567   9.717  18.270  0.00  0.00    +0.000 A 
ATOM     17  C   UNL     1      48.323   8.366  18.294  0.00  0.00    +0.000 A 
ATOM     18  N   UNL     1      48.148   7.949  17.002  0.00  0.00    +0.000 N 
ATOM     19  H   UNL     1      47.949   6.997  16.704  0.00  0.00    +0.000 HD
ENDBRANCH  11  14
ENDBRANCH   9  10
ENDBRANCH   3   9
BRANCH   6  20
ATOM     20  C   UNL     1      43.802   3.484  11.786  0.00  0.00    +0.000 C 
BRANCH  20  21
ATOM     21  N   UNL     1      44.494   2.652  10.824  0.00  0.00    +0.000 N 
ATOM     22  C   UNL     1      44.533   2.950   9.486  0.00  0.00    +0.000 C 
ATOM     23  O   UNL     1      43.847   3.835   8.984  0.00  0.00    +0.000 OA
ATOM     24  H   UNL     1      45.223   2.065  11.214  0.00  0.00    +0.000 HD
BRANCH  22  25
ATOM     25  C   UNL     1      45.414   2.110   8.661  0.00  0.00    +0.000 A 
ATOM     26  C   UNL     1      45.317   0.725   8.723  0.00  0.00    +0.000 A 
ATOM     27  S   UNL     1      46.407  -0.085   7.690  0.00  0.00    +0.000 S 
ATOM     28  C   UNL     1      47.015   1.387   7.088  0.00  0.00    +0.000 A 
ATOM     29  N   UNL     1      47.969   1.405   6.119  0.00  0.00    +0.000 NA
ATOM     30  C   UNL     1      48.304   2.589   5.724  0.00  0.00    +0.000 A 
ATOM     31  N   UNL     1      47.784   3.754   6.223  0.00  0.00    +0.000 N 
ATOM     32  C   UNL     1      46.869   3.785   7.248  0.00  0.00    +0.000 A 
ATOM     33  O   UNL     1      46.509   4.846   7.747  0.00  0.00    +0.000 OA
ATOM     34  C   UNL     1      46.420   2.480   7.693  0.00  0.00    +0.000 A 
ATOM     35  H   UNL     1      48.110   4.651   5.893  0.00  0.00    +0.000 HD
ENDBRANCH  22  25
ENDBRANCH  20  21
ENDBRANCH   6  20
TORSDOF 7
ENDMDL
MODEL 4
REMARK VINA RESULT:    -7.051      3.428      8.378
REMARK INTER + INTRA:         -10.949
REMARK INTER:                  -9.732
REMARK INTRA:                  -1.217
REMARK UNBOUND:                -1.012
REMARK  Name = 
REMARK  8 active torsions:
REMARK  status: ('A' for Active; 'I' for Inactive)
REMARK    1  A    between atoms: C_1  and  O_2
REMARK    2  A    between atoms: O_2  and  C_3
REMARK    3  A    between atoms: C_5  and  C_6
REMARK    4  A    between atoms: C_6  and  N_7
REMARK    5  A    between atoms: C_8  and  C_10
REMARK    6  A    between atoms: C_17  and  C_18
REMARK    7  A    between atoms: C_18  and  N_19
REMARK    8  A    between atoms: C_20  and  C_22
REMARK                            x       y       z     vdW  Elec       q    Type
REMARK                         _______ _______ _______ _____ _____    ______ ____
ROOT
ATOM      1  C   UNL     1      49.831   6.524  16.267  0.00  0.00    +0.000 A 
ATOM      2  C   UNL     1      50.140   5.611  17.288  0.00  0.00    +0.000 A 
ATOM      3  C   UNL     1      49.323   4.497  17.541  0.00  0.00    +0.000 A 
ATOM      4  C   UNL     1      48.189   4.301  16.748  0.00  0.00    +0.000 A 
ATOM      5  C   UNL     1      47.873   5.206  15.730  0.00  0.00    +0.000 A 
ATOM      6  C   UNL     1      48.681   6.328  15.481  0.00  0.00    +0.000 A 
ENDROOT
BRANCH   1   8
ATOM      7  C   UNL     1      51.908   7.423  15.541  0.00  0.00    +0.000 C 
ATOM      8  O   UNL     1      50.576   7.642  15.995  0.00  0.00    +0.000 OA
ENDBRANCH   1   8
BRANCH   3   9
ATOM      9  C   UNL     1      49.688   3.512  18.622  0.00  0.00    +0.000 C 
BRANCH   9  10
ATOM     10  N   UNL     1      51.015   2.983  18.419  0.00  0.00    +0.000 N 
ATOM     11  C   UNL     1      51.254   1.945  17.548  0.00  0.00    +0.000 C 
ATOM     12  O   UNL     1      50.351   1.384  16.932  0.00  0.00    +0.000 OA
ATOM     13  H   UNL     1      51.794   3.469  18.837  0.00  0.00    +0.000 HD
BRANCH  11  14
ATOM     14  C   UNL     1      52.642   1.567  17.403  0.00  0.00    +0.000 A 
ATOM     15  C   UNL     1      53.824   2.249  17.658  0.00  0.00    +0.000 A 
ATOM     16  C   UNL     1      54.907   1.396  17.329  0.00  0.00    +0.000 A 
ATOM     17  C   UNL     1      54.373   0.211  16.886  0.00  0.00    +0.000 A 
ATOM     18  N   UNL     1      53.009   0.321  16.938  0.00  0.00    +0.000 N 
ATOM     19  H   UNL     1      52.342  -0.400  16.674  0.00  0.00    +0.000 HD
ENDBRANCH  11  14
ENDBRANCH   9  10
ENDBRANCH   3   9
BRANCH   6  20
ATOM     20  C   UNL     1      48.320   7.240  14.330  0.00  0.00    +0.000 C 
BRANCH  20  21
ATOM     21  N   UNL     1      47.023   6.891  13.791  0.00  0.00    +0.000 N 
ATOM     22  C   UNL     1      46.777   6.828  12.443  0.00  0.00    +0.000 C 
ATOM     23  O   UNL     1      47.578   7.229  11.605  0.00  0.00    +0.000 OA
ATOM     24  H   UNL     1      46.428   6.362  14.420  0.00  0.00    +0.000 HD
BRANCH  22  25
ATOM     25  C   UNL     1      45.464   6.295  12.048  0.00  0.00    +0.000 A 
ATOM     26  C   UNL     1      44.509   7.136  11.491  0.00  0.00    +0.000 A 
ATOM     27  S   UNL     1      43.053   6.343  11.084  0.00  0.00    +0.000 S 
ATOM     28  C   UNL     1      43.665   4.839  11.595  0.00  0.00    +0.000 A 
ATOM     29  N   UNL     1      42.923   3.707  11.479  0.00  0.00    +0.000 NA
ATOM     30  C   UNL     1      43.528   2.631  11.862  0.00  0.00    +0.000 A 
ATOM     31  N   UNL     1      44.801   2.591  12.368  0.00  0.00    +0.000 N 
ATOM     32  C   UNL     1      45.562   3.718  12.565  0.00  0.00    +0.000 A 
ATOM     33  O   UNL     1      46.653   3.659  13.123  0.00  0.00    +0.000 OA
ATOM     34  C   UNL     1      44.948   4.948  12.103  0.00  0.00    +0.000 A 
ATOM     35  H   UNL     1      45.209   1.721  12.679  0.00  0.00    +0.000 HD
ENDBRANCH  22  25
ENDBRANCH  20  21
ENDBRANCH   6  20
TORSDOF 7
ENDMDL
MODEL 5
REMARK VINA RESULT:    -6.821      3.480      8.515
REMARK INTER + INTRA:         -10.624
REMARK INTER:                  -9.642
REMARK INTRA:                  -0.982
REMARK UNBOUND:                -1.012
REMARK  Name = 
REMARK  8 active torsions:
REMARK  status: ('A' for Active; 'I' for Inactive)
REMARK    1  A    between atoms: C_1  and  O_2
REMARK    2  A    between atoms: O_2  and  C_3
REMARK    3  A    between atoms: C_5  and  C_6
REMARK    4  A    between atoms: C_6  and  N_7
REMARK    5  A    between atoms: C_8  and  C_10
REMARK    6  A    between atoms: C_17  and  C_18
REMARK    7  A    between atoms: C_18  and  N_19
REMARK    8  A    between atoms: C_20  and  C_22
REMARK                            x       y       z     vdW  Elec       q    Type
REMARK                         _______ _______ _______ _____ _____    ______ ____
ROOT
ATOM      1  C   UNL     1      50.160   8.267  13.814  0.00  0.00    +0.000 A 
ATOM      2  C   UNL     1      50.616   7.979  15.111  0.00  0.00    +0.000 A 
ATOM      3  C   UNL     1      49.897   7.126  15.963  0.00  0.00    +0.000 A 
ATOM      4  C   UNL     1      48.711   6.552  15.496  0.00  0.00    +0.000 A 
ATOM      5  C   UNL     1      48.249   6.834  14.207  0.00  0.00    +0.000 A 
ATOM      6  C   UNL     1      48.959   7.697  13.355  0.00  0.00    +0.000 A 
ENDROOT
BRANCH   1   8
ATOM      7  C   UNL     1      52.019   8.635  12.379  0.00  0.00    +0.000 C 
ATOM      8  O   UNL     1      50.806   9.114  12.951  0.00  0.00    +0.000 OA
ENDBRANCH   1   8
BRANCH   3   9
ATOM      9  C   UNL     1      50.419   6.805  17.341  0.00  0.00    +0.000 C 
BRANCH   9  10
ATOM     10  N   UNL     1      51.069   5.517  17.365  0.00  0.00    +0.000 N 
ATOM     11  C   UNL     1      50.416   4.386  17.799  0.00  0.00    +0.000 C 
ATOM     12  O   UNL     1      49.266   4.417  18.228  0.00  0.00    +0.000 OA
ATOM     13  H   UNL     1      51.980   5.432  16.941  0.00  0.00    +0.000 HD
BRANCH  11  14
ATOM     14  C   UNL     1      51.176   3.160  17.705  0.00  0.00    +0.000 A 
ATOM     15  C   UNL     1      50.836   1.884  17.274  0.00  0.00    +0.000 A 
ATOM     16  C   UNL     1      51.978   1.055  17.401  0.00  0.00    +0.000 A 
ATOM     17  C   UNL     1      52.994   1.834  17.901  0.00  0.00    +0.000 A 
ATOM     18  N   UNL     1      52.503   3.100  18.076  0.00  0.00    +0.000 N 
ATOM     19  H   UNL     1      53.024   3.898  18.430  0.00  0.00    +0.000 HD
ENDBRANCH  11  14
ENDBRANCH   9  10
ENDBRANCH   3   9
BRANCH   6  20
ATOM     20  C   UNL     1      48.440   7.919  11.952  0.00  0.00    +0.000 C 
BRANCH  20  21
ATOM     21  N   UNL     1      47.630   6.798  11.526  0.00  0.00    +0.000 N 
ATOM     22  C   UNL     1      46.270   6.888  11.367  0.00  0.00    +0.000 C 
ATOM     23  O   UNL     1      45.624   7.863  11.738  0.00  0.00    +0.000 OA
ATOM     24  H   UNL     1      48.132   6.076  11.020  0.00  0.00    +0.000 HD
BRANCH  22  25
ATOM     25  C   UNL     1      45.609   5.720  10.767  0.00  0.00    +0.000 A 
ATOM     26  C   UNL     1      45.763   5.450   9.412  0.00  0.00    +0.000 A 
ATOM     27  S   UNL     1      44.935   4.050   8.895  0.00  0.00    +0.000 S 
ATOM     28  C   UNL     1      44.378   3.730  10.472  0.00  0.00    +0.000 A 
ATOM     29  N   UNL     1      43.629   2.628  10.738  0.00  0.00    +0.000 NA
ATOM     30  C   UNL     1      43.315   2.485  11.983  0.00  0.00    +0.000 A 
ATOM     31  N   UNL     1      43.668   3.355  12.982  0.00  0.00    +0.000 N 
ATOM     32  C   UNL     1      44.367   4.515  12.748  0.00  0.00    +0.000 A 
ATOM     33  O   UNL     1      44.570   5.327  13.645  0.00  0.00    +0.000 OA
ATOM     34  C   UNL     1      44.789   4.698  11.373  0.00  0.00    +0.000 A 
ATOM     35  H   UNL     1      43.367   3.204  13.933  0.00  0.00    +0.000 HD
ENDBRANCH  22  25
ENDBRANCH  20  21
ENDBRANCH   6  20
TORSDOF 7
ENDMDL
MODEL 6
REMARK VINA RESULT:    -6.808      1.703      2.126
REMARK INTER + INTRA:         -10.606
REMARK INTER:                  -9.215
REMARK INTRA:                  -1.391
REMARK UNBOUND:                -1.012
REMARK  Name = 
REMARK  8 active torsions:
REMARK  status: ('A' for Active; 'I' for Inactive)
REMARK    1  A    between atoms: C_1  and  O_2
REMARK    2  A    between atoms: O_2  and  C_3
REMARK    3  A    between atoms: C_5  and  C_6
REMARK    4  A    between atoms: C_6  and  N_7
REMARK    5  A    between atoms: C_8  and  C_10
REMARK    6  A    between atoms: C_17  and  C_18
REMARK    7  A    between atoms: C_18  and  N_19
REMARK    8  A    between atoms: C_20  and  C_22
REMARK                            x       y       z     vdW  Elec       q    Type
REMARK                         _______ _______ _______ _____ _____    ______ ____
ROOT
ATOM      1  C   UNL     1      47.945   7.019  12.656  0.00  0.00    +0.000 A 
ATOM      2  C   UNL     1      47.004   6.161  12.064  0.00  0.00    +0.000 A 
ATOM      3  C   UNL     1      45.636   6.477  12.050  0.00  0.00    +0.000 A 
ATOM      4  C   UNL     1      45.218   7.678  12.632  0.00  0.00    +0.000 A 
ATOM      5  C   UNL     1      46.147   8.537  13.225  0.00  0.00    +0.000 A 
ATOM      6  C   UNL     1      47.516   8.219  13.252  0.00  0.00    +0.000 A 
ENDROOT
BRANCH   1   8
ATOM      7  C   UNL     1      50.097   7.286  11.684  0.00  0.00    +0.000 C 
ATOM      8  O   UNL     1      49.286   6.748  12.724  0.00  0.00    +0.000 OA
ENDBRANCH   1   8
BRANCH   3   9
ATOM      9  C   UNL     1      44.646   5.557  11.383  0.00  0.00    +0.000 C 
BRANCH   9  10
ATOM     10  N   UNL     1      45.312   4.616  10.514  0.00  0.00    +0.000 N 
ATOM     11  C   UNL     1      44.753   4.211   9.324  0.00  0.00    +0.000 C 
ATOM     12  O   UNL     1      43.644   4.590   8.958  0.00  0.00    +0.000 OA
ATOM     13  H   UNL     1      46.259   4.348  10.735  0.00  0.00    +0.000 HD
BRANCH  11  14
ATOM     14  C   UNL     1      45.566   3.315   8.533  0.00  0.00    +0.000 A 
ATOM     15  C   UNL     1      46.372   3.525   7.422  0.00  0.00    +0.000 A 
ATOM     16  C   UNL     1      46.941   2.282   7.046  0.00  0.00    +0.000 A 
ATOM     17  C   UNL     1      46.480   1.339   7.931  0.00  0.00    +0.000 A 
ATOM     18  N   UNL     1      45.657   1.970   8.826  0.00  0.00    +0.000 N 
ATOM     19  H   UNL     1      45.169   1.529   9.601  0.00  0.00    +0.000 HD
ENDBRANCH  11  14
ENDBRANCH   9  10
ENDBRANCH   3   9
BRANCH   6  20
ATOM     20  C   UNL     1      48.479   9.215  13.857  0.00  0.00    +0.000 C 
BRANCH  20  21
ATOM     21  N   UNL     1      49.190   8.625  14.971  0.00  0.00    +0.000 N 
ATOM     22  C   UNL     1      48.742   8.718  16.264  0.00  0.00    +0.000 C 
ATOM     23  O   UNL     1      47.811   9.447  16.591  0.00  0.00    +0.000 OA
ATOM     24  H   UNL     1      49.812   7.863  14.724  0.00  0.00    +0.000 HD
BRANCH  22  25
ATOM     25  C   UNL     1      49.476   7.926  17.262  0.00  0.00    +0.000 A 
ATOM     26  C   UNL     1      50.217   8.562  18.250  0.00  0.00    +0.000 A 
ATOM     27  S   UNL     1      50.990   7.486  19.326  0.00  0.00    +0.000 S 
ATOM     28  C   UNL     1      50.324   6.132  18.537  0.00  0.00    +0.000 A 
ATOM     29  N   UNL     1      50.561   4.873  18.991  0.00  0.00    +0.000 NA
ATOM     30  C   UNL     1      49.956   3.945  18.326  0.00  0.00    +0.000 A 
ATOM     31  N   UNL     1      49.149   4.163  17.239  0.00  0.00    +0.000 N 
ATOM     32  C   UNL     1      48.935   5.412  16.707  0.00  0.00    +0.000 A 
ATOM     33  O   UNL     1      48.300   5.560  15.668  0.00  0.00    +0.000 OA
ATOM     34  C   UNL     1      49.552   6.495  17.447  0.00  0.00    +0.000 A 
ATOM     35  H   UNL     1      48.727   3.392  16.743  0.00  0.00    +0.000 HD
ENDBRANCH  22  25
ENDBRANCH  20  21
ENDBRANCH   6  20
TORSDOF 7
ENDMDL
MODEL 7
REMARK VINA RESULT:    -6.684      4.722      8.048
REMARK INTER + INTRA:         -10.431
REMARK INTER:                  -9.393
REMARK INTRA:                  -1.038
REMARK UNBOUND:                -1.012
REMARK  Name = 
REMARK  8 active torsions:
REMARK  status: ('A' for Active; 'I' for Inactive)
REMARK    1  A    between atoms: C_1  and  O_2
REMARK    2  A    between atoms: O_2  and  C_3
REMARK    3  A    between atoms: C_5  and  C_6
REMARK    4  A    between atoms: C_6  and  N_7
REMARK    5  A    between atoms: C_8  and  C_10
REMARK    6  A    between atoms: C_17  and  C_18
REMARK    7  A    between atoms: C_18  and  N_19
REMARK    8  A    between atoms: C_20  and  C_22
REMARK                            x       y       z     vdW  Elec       q    Type
REMARK                         _______ _______ _______ _____ _____    ______ ____
ROOT
ATOM      1  C   UNL     1      48.038   9.533  12.032  0.00  0.00    +0.000 A 
ATOM      2  C   UNL     1      49.407   9.571  11.722  0.00  0.00    +0.000 A 
ATOM      3  C   UNL     1      50.242   8.472  11.978  0.00  0.00    +0.000 A 
ATOM      4  C   UNL     1      49.685   7.321  12.545  0.00  0.00    +0.000 A 
ATOM      5  C   UNL     1      48.324   7.275  12.858  0.00  0.00    +0.000 A 
ATOM      6  C   UNL     1      47.486   8.377  12.614  0.00  0.00    +0.000 A 
ENDROOT
BRANCH   1   8
ATOM      7  C   UNL     1      47.549  11.516  10.817  0.00  0.00    +0.000 C 
ATOM      8  O   UNL     1      47.182  10.584  11.830  0.00  0.00    +0.000 OA
ENDBRANCH   1   8
BRANCH   3   9
ATOM      9  C   UNL     1      51.703   8.521  11.611  0.00  0.00    +0.000 C 
BRANCH   9  10
ATOM     10  N   UNL     1      51.960   7.789  10.394  0.00  0.00    +0.000 N 
ATOM     11  C   UNL     1      53.131   7.092  10.203  0.00  0.00    +0.000 C 
ATOM     12  O   UNL     1      54.036   7.091  11.033  0.00  0.00    +0.000 OA
ATOM     13  H   UNL     1      51.210   7.692   9.725  0.00  0.00    +0.000 HD
BRANCH  11  14
ATOM     14  C   UNL     1      53.216   6.356   8.962  0.00  0.00    +0.000 A 
ATOM     15  C   UNL     1      52.737   6.623   7.686  0.00  0.00    +0.000 A 
ATOM     16  C   UNL     1      53.108   5.548   6.840  0.00  0.00    +0.000 A 
ATOM     17  C   UNL     1      53.807   4.648   7.607  0.00  0.00    +0.000 A 
ATOM     18  N   UNL     1      53.871   5.145   8.881  0.00  0.00    +0.000 N 
ATOM     19  H   UNL     1      54.329   4.699   9.672  0.00  0.00    +0.000 HD
ENDBRANCH  11  14
ENDBRANCH   9  10
ENDBRANCH   3   9
BRANCH   6  20
ATOM     20  C   UNL     1      46.011   8.247  12.920  0.00  0.00    +0.000 C 
BRANCH  20  21
ATOM     21  N   UNL     1      45.555   6.897  12.668  0.00  0.00    +0.000 N 
ATOM     22  C   UNL     1      44.590   6.606  11.737  0.00  0.00    +0.000 C 
ATOM     23  O   UNL     1      43.924   7.474  11.181  0.00  0.00    +0.000 OA
ATOM     24  H   UNL     1      46.209   6.169  12.935  0.00  0.00    +0.000 HD
BRANCH  22  25
ATOM     25  C   UNL     1      44.354   5.179  11.472  0.00  0.00    +0.000 A 
ATOM     26  C   UNL     1      43.589   4.423  12.351  0.00  0.00    +0.000 A 
ATOM     27  S   UNL     1      43.412   2.793  11.877  0.00  0.00    +0.000 S 
ATOM     28  C   UNL     1      44.314   3.051  10.456  0.00  0.00    +0.000 A 
ATOM     29  N   UNL     1      44.510   2.048   9.561  0.00  0.00    +0.000 NA
ATOM     30  C   UNL     1      45.172   2.395   8.507  0.00  0.00    +0.000 A 
ATOM     31  N   UNL     1      45.670   3.652   8.278  0.00  0.00    +0.000 N 
ATOM     32  C   UNL     1      45.553   4.678   9.185  0.00  0.00    +0.000 A 
ATOM     33  O   UNL     1      46.106   5.756   8.999  0.00  0.00    +0.000 OA
ATOM     34  C   UNL     1      44.774   4.354  10.364  0.00  0.00    +0.000 A 
ATOM     35  H   UNL     1      46.206   3.854   7.447  0.00  0.00    +0.000 HD
ENDBRANCH  22  25
ENDBRANCH  20  21
ENDBRANCH   6  20
TORSDOF 7
ENDMDL
MODEL 8
REMARK VINA RESULT:    -6.280      4.416      9.191
REMARK INTER + INTRA:          -9.862
REMARK INTER:                  -8.996
REMARK INTRA:                  -0.867
REMARK UNBOUND:                -1.012
REMARK  Name = 
REMARK  8 active torsions:
REMARK  status: ('A' for Active; 'I' for Inactive)
REMARK    1  A    between atoms: C_1  and  O_2
REMARK    2  A    between atoms: O_2  and  C_3
REMARK    3  A    between atoms: C_5  and  C_6
REMARK    4  A    between atoms: C_6  and  N_7
REMARK    5  A    between atoms: C_8  and  C_10
REMARK    6  A    between atoms: C_17  and  C_18
REMARK    7  A    between atoms: C_18  and  N_19
REMARK    8  A    between atoms: C_20  and  C_22
REMARK                            x       y       z     vdW  Elec       q    Type
REMARK                         _______ _______ _______ _____ _____    ______ ____
ROOT
ATOM      1  C   UNL     1      45.941   5.164  13.291  0.00  0.00    +0.000 A 
ATOM      2  C   UNL     1      46.585   6.407  13.393  0.00  0.00    +0.000 A 
ATOM      3  C   UNL     1      46.524   7.347  12.352  0.00  0.00    +0.000 A 
ATOM      4  C   UNL     1      45.797   7.029  11.201  0.00  0.00    +0.000 A 
ATOM      5  C   UNL     1      45.155   5.793  11.089  0.00  0.00    +0.000 A 
ATOM      6  C   UNL     1      45.223   4.844  12.124  0.00  0.00    +0.000 A 
ENDROOT
BRANCH   1   8
ATOM      7  C   UNL     1      47.175   4.153  15.052  0.00  0.00    +0.000 C 
ATOM      8  O   UNL     1      45.991   4.199  14.263  0.00  0.00    +0.000 OA
ENDBRANCH   1   8
BRANCH   3   9
ATOM      9  C   UNL     1      47.196   8.689  12.493  0.00  0.00    +0.000 C 
BRANCH   9  10
ATOM     10  N   UNL     1      48.592   8.613  12.135  0.00  0.00    +0.000 N 
ATOM     11  C   UNL     1      49.251   9.680  11.569  0.00  0.00    +0.000 C 
ATOM     12  O   UNL     1      48.683  10.734  11.298  0.00  0.00    +0.000 OA
ATOM     13  H   UNL     1      49.116   7.799  12.418  0.00  0.00    +0.000 HD
BRANCH  11  14
ATOM     14  C   UNL     1      50.661   9.474  11.324  0.00  0.00    +0.000 A 
ATOM     15  C   UNL     1      51.579   8.578  11.858  0.00  0.00    +0.000 A 
ATOM     16  C   UNL     1      52.838   8.823  11.256  0.00  0.00    +0.000 A 
ATOM     17  C   UNL     1      52.671   9.855  10.365  0.00  0.00    +0.000 A 
ATOM     18  N   UNL     1      51.357  10.238  10.410  0.00  0.00    +0.000 N 
ATOM     19  H   UNL     1      50.933  10.979   9.858  0.00  0.00    +0.000 HD
ENDBRANCH  11  14
ENDBRANCH   9  10
ENDBRANCH   3   9
BRANCH   6  20
ATOM     20  C   UNL     1      44.459   3.548  11.970  0.00  0.00    +0.000 C 
BRANCH  20  21
ATOM     21  N   UNL     1      45.070   2.715  10.956  0.00  0.00    +0.000 N 
ATOM     22  C   UNL     1      44.732   2.802   9.630  0.00  0.00    +0.000 C 
ATOM     23  O   UNL     1      43.775   3.460   9.232  0.00  0.00    +0.000 OA
ATOM     24  H   UNL     1      45.977   2.337  11.204  0.00  0.00    +0.000 HD
BRANCH  22  25
ATOM     25  C   UNL     1      45.555   2.016   8.698  0.00  0.00    +0.000 A 
ATOM     26  C   UNL     1      45.518   0.628   8.735  0.00  0.00    +0.000 A 
ATOM     27  S   UNL     1      46.526  -0.115   7.576  0.00  0.00    +0.000 S 
ATOM     28  C   UNL     1      47.014   1.393   6.954  0.00  0.00    +0.000 A 
ATOM     29  N   UNL     1      47.862   1.470   5.894  0.00  0.00    +0.000 NA
ATOM     30  C   UNL     1      48.111   2.674   5.498  0.00  0.00    +0.000 A 
ATOM     31  N   UNL     1      47.601   3.807   6.077  0.00  0.00    +0.000 N 
ATOM     32  C   UNL     1      46.795   3.779   7.189  0.00  0.00    +0.000 A 
ATOM     33  O   UNL     1      46.447   4.813   7.749  0.00  0.00    +0.000 OA
ATOM     34  C   UNL     1      46.443   2.448   7.644  0.00  0.00    +0.000 A 
ATOM     35  H   UNL     1      47.857   4.723   5.739  0.00  0.00    +0.000 HD
ENDBRANCH  22  25
ENDBRANCH  20  21
ENDBRANCH   6  20
TORSDOF 7
ENDMDL
MODEL 9
REMARK VINA RESULT:    -6.184      2.792      9.594
REMARK INTER + INTRA:          -9.727
REMARK INTER:                  -8.467
REMARK INTRA:                  -1.260
REMARK UNBOUND:                -1.012
REMARK  Name = 
REMARK  8 active torsions:
REMARK  status: ('A' for Active; 'I' for Inactive)
REMARK    1  A    between atoms: C_1  and  O_2
REMARK    2  A    between atoms: O_2  and  C_3
REMARK    3  A    between atoms: C_5  and  C_6
REMARK    4  A    between atoms: C_6  and  N_7
REMARK    5  A    between atoms: C_8  and  C_10
REMARK    6  A    between atoms: C_17  and  C_18
REMARK    7  A    between atoms: C_18  and  N_19
REMARK    8  A    between atoms: C_20  and  C_22
REMARK                            x       y       z     vdW  Elec       q    Type
REMARK                         _______ _______ _______ _____ _____    ______ ____
ROOT
ATOM      1  C   UNL     1      46.753   6.157  13.364  0.00  0.00    +0.000 A 
ATOM      2  C   UNL     1      47.741   6.497  14.303  0.00  0.00    +0.000 A 
ATOM      3  C   UNL     1      48.471   7.691  14.192  0.00  0.00    +0.000 A 
ATOM      4  C   UNL     1      48.193   8.552  13.126  0.00  0.00    +0.000 A 
ATOM      5  C   UNL     1      47.214   8.221  12.186  0.00  0.00    +0.000 A 
ATOM      6  C   UNL     1      46.488   7.021  12.286  0.00  0.00    +0.000 A 
ENDROOT
BRANCH   1   8
ATOM      7  C   UNL     1      46.771   3.792  13.605  0.00  0.00    +0.000 C 
ATOM      8  O   UNL     1      46.031   4.993  13.407  0.00  0.00    +0.000 OA
ENDBRANCH   1   8
BRANCH   3   9
ATOM      9  C   UNL     1      49.505   8.052  15.227  0.00  0.00    +0.000 C 
BRANCH   9  10
ATOM     10  N   UNL     1      49.143   7.541  16.527  0.00  0.00    +0.000 N 
ATOM     11  C   UNL     1      49.768   6.443  17.070  0.00  0.00    +0.000 C 
ATOM     12  O   UNL     1      50.632   5.814  16.466  0.00  0.00    +0.000 OA
ATOM     13  H   UNL     1      48.501   8.077  17.091  0.00  0.00    +0.000 HD
BRANCH  11  14
ATOM     14  C   UNL     1      49.342   6.087  18.405  0.00  0.00    +0.000 A 
ATOM     15  C   UNL     1      48.839   6.845  19.455  0.00  0.00    +0.000 A 
ATOM     16  C   UNL     1      48.588   5.977  20.548  0.00  0.00    +0.000 A 
ATOM     17  C   UNL     1      48.935   4.710  20.149  0.00  0.00    +0.000 A 
ATOM     18  N   UNL     1      49.382   4.785  18.857  0.00  0.00    +0.000 N 
ATOM     19  H   UNL     1      49.707   4.004  18.292  0.00  0.00    +0.000 HD
ENDBRANCH  11  14
ENDBRANCH   9  10
ENDBRANCH   3   9
BRANCH   6  20
ATOM     20  C   UNL     1      45.402   6.745  11.272  0.00  0.00    +0.000 C 
BRANCH  20  21
ATOM     21  N   UNL     1      45.580   5.437  10.678  0.00  0.00    +0.000 N 
ATOM     22  C   UNL     1      44.543   4.734  10.118  0.00  0.00    +0.000 C 
ATOM     23  O   UNL     1      43.371   5.079  10.232  0.00  0.00    +0.000 OA
ATOM     24  H   UNL     1      46.527   5.229  10.381  0.00  0.00    +0.000 HD
BRANCH  22  25
ATOM     25  C   UNL     1      44.907   3.501   9.405  0.00  0.00    +0.000 A 
ATOM     26  C   UNL     1      44.256   2.308   9.696  0.00  0.00    +0.000 A 
ATOM     27  S   UNL     1      44.800   0.986   8.764  0.00  0.00    +0.000 S 
ATOM     28  C   UNL     1      45.893   1.970   7.906  0.00  0.00    +0.000 A 
ATOM     29  N   UNL     1      46.660   1.457   6.908  0.00  0.00    +0.000 NA
ATOM     30  C   UNL     1      47.409   2.325   6.312  0.00  0.00    +0.000 A 
ATOM     31  N   UNL     1      47.471   3.655   6.636  0.00  0.00    +0.000 N 
ATOM     32  C   UNL     1      46.764   4.203   7.679  0.00  0.00    +0.000 A 
ATOM     33  O   UNL     1      46.927   5.372   8.013  0.00  0.00    +0.000 OA
ATOM     34  C   UNL     1      45.868   3.281   8.349  0.00  0.00    +0.000 A 
ATOM     35  H   UNL     1      48.100   4.279   6.151  0.00  0.00    +0.000 HD
ENDBRANCH  22  25
ENDBRANCH  20  21
ENDBRANCH   6  20
TORSDOF 7
ENDMDL
