MODEL 1
REMARK VINA RESULT:    -8.120      0.000      0.000
REMARK INTER + INTRA:         -13.224
REMARK INTER:                 -12.154
REMARK INTRA:                  -1.069
REMARK UNBOUND:                -1.069
REMARK  Name = 
REMARK  10 active torsions:
REMARK  status: ('A' for Active; 'I' for Inactive)
REMARK    1  A    between atoms: C_1  and  O_2
REMARK    2  A    between atoms: O_2  and  C_3
REMARK    3  A    between atoms: C_10  and  C_11
REMARK    4  A    between atoms: N_13  and  C_14
REMARK    5  A    between atoms: C_14  and  C_15
REMARK    6  A    between atoms: C_18  and  O_19
REMARK    7  A    between atoms: O_19  and  C_20
REMARK    8  A    between atoms: C_20  and  C_21
REMARK    9  A    between atoms: C_21  and  O_22
REMARK   10  A    between atoms: C_21  and  C_23
REMARK                            x       y       z     vdW  Elec       q    Type
REMARK                         _______ _______ _______ _____ _____    ______ ____
ROOT
ATOM      1  C   UNL     1      47.166   6.127  13.016  0.00  0.00    +0.000 A 
ATOM      2  C   UNL     1      46.411   5.109  13.612  0.00  0.00    +0.000 A 
ATOM      3  C   UNL     1      45.291   4.571  12.965  0.00  0.00    +0.000 A 
ATOM      4  C   UNL     1      44.904   5.039  11.707  0.00  0.00    +0.000 A 
ATOM      5  C   UNL     1      45.660   6.046  11.103  0.00  0.00    +0.000 A 
ATOM      6  C   UNL     1      46.787   6.578  11.744  0.00  0.00    +0.000 A 
ENDROOT
BRANCH   1   7
ATOM      7  C   UNL     1      48.372   6.697  13.717  0.00  0.00    +0.000 C 
BRANCH   7  10
ATOM      8  C   UNL     1      49.079   6.770  16.077  0.00  0.00    +0.000 C 
ATOM      9  O   UNL     1      50.218   6.416  15.780  0.00  0.00    +0.000 OA
ATOM     10  N   UNL     1      48.114   6.929  15.118  0.00  0.00    +0.000 N 
ATOM     11  H   UNL     1      47.160   7.123  15.389  0.00  0.00    +0.000 HD
BRANCH   8  19
ATOM     12  C   UNL     1      48.872   4.813  18.897  0.00  0.00    +0.000 A 
ATOM     13  N   UNL     1      48.709   4.289  20.128  0.00  0.00    +0.000 NA
ATOM     14  C   UNL     1      48.294   5.092  21.105  0.00  0.00    +0.000 A 
ATOM     15  N   UNL     1      48.011   6.388  21.004  0.00  0.00    +0.000 NA
ATOM     16  C   UNL     1      48.196   6.874  19.768  0.00  0.00    +0.000 A 
ATOM     17  S   UNL     1      47.875   8.512  19.453  0.00  0.00    +0.000 S 
ATOM     18  C   UNL     1      48.304   8.334  17.817  0.00  0.00    +0.000 A 
ATOM     19  C   UNL     1      48.699   7.044  17.473  0.00  0.00    +0.000 A 
ATOM     20  C   UNL     1      48.628   6.172  18.645  0.00  0.00    +0.000 A 
BRANCH  12  22
ATOM     21  C   UNL     1      48.251   3.335  17.216  0.00  0.00    +0.000 C 
ATOM     22  O   UNL     1      49.326   3.973  17.902  0.00  0.00    +0.000 OA
ENDBRANCH  12  22
ENDBRANCH   8  19
ENDBRANCH   7  10
ENDBRANCH   1   7
BRANCH   4  23
ATOM     23  O   UNL     1      43.827   4.594  10.986  0.00  0.00    +0.000 OA
BRANCH  23  24
ATOM     24  C   UNL     1      44.114   4.082   9.675  0.00  0.00    +0.000 C 
BRANCH  24  25
ATOM     25  C   UNL     1      44.870   2.744   9.719  0.00  0.00    +0.000 C 
BRANCH  25  26
ATOM     26  C   UNL     1      45.698   2.487   8.471  0.00  0.00    +0.000 A 
ATOM     27  C   UNL     1      45.889   3.481   7.509  0.00  0.00    +0.000 A 
ATOM     28  C   UNL     1      46.669   3.198   6.387  0.00  0.00    +0.000 A 
ATOM     29  C   UNL     1      47.231   1.937   6.249  0.00  0.00    +0.000 A 
ATOM     30  C   UNL     1      46.994   1.007   7.247  0.00  0.00    +0.000 A 
ATOM     31  N   UNL     1      46.252   1.251   8.351  0.00  0.00    +0.000 NA
ENDBRANCH  25  26
BRANCH  25  32
ATOM     32  O   UNL     1      43.937   1.676   9.939  0.00  0.00    +0.000 OA
ATOM     33  H   UNL     1      44.229   0.972   9.325  0.00  0.00    +0.000 HD
ENDBRANCH  25  32
ENDBRANCH  24  25
ENDBRANCH  23  24
ENDBRANCH   4  23
TORSDOF 9
ENDMDL
MODEL 2
REMARK VINA RESULT:    -8.004      1.536      2.509
REMARK INTER + INTRA:         -13.050
REMARK INTER:                 -11.872
REMARK INTRA:                  -1.178
REMARK UNBOUND:                -1.069
REMARK  Name = 
REMARK  10 active torsions:
REMARK  status: ('A' for Active; 'I' for Inactive)
REMARK    1  A    between atoms: C_1  and  O_2
REMARK    2  A    between atoms: O_2  and  C_3
REMARK    3  A    between atoms: C_10  and  C_11
REMARK    4  A    between atoms: N_13  and  C_14
REMARK    5  A    between atoms: C_14  and  C_15
REMARK    6  A    between atoms: C_18  and  O_19
REMARK    7  A    between atoms: O_19  and  C_20
REMARK    8  A    between atoms: C_20  and  C_21
REMARK    9  A    between atoms: C_21  and  O_22
REMARK   10  A    between atoms: C_21  and  C_23
REMARK                            x       y       z     vdW  Elec       q    Type
REMARK                         _______ _______ _______ _____ _____    ______ ____
ROOT
ATOM      1  C   UNL     1      47.477   6.212  13.489  0.00  0.00    +0.000 A 
ATOM      2  C   UNL     1      46.857   5.059  13.989  0.00  0.00    +0.000 A 
ATOM      3  C   UNL     1      45.851   4.411  13.261  0.00  0.00    +0.000 A 
ATOM      4  C   UNL     1      45.445   4.901  12.018  0.00  0.00    +0.000 A 
ATOM      5  C   UNL     1      46.068   6.043  11.510  0.00  0.00    +0.000 A 
ATOM      6  C   UNL     1      47.081   6.687  12.231  0.00  0.00    +0.000 A 
ENDROOT
BRANCH   1   7
ATOM      7  C   UNL     1      48.562   6.901  14.276  0.00  0.00    +0.000 C 
BRANCH   7  10
ATOM      8  C   UNL     1      48.971   6.287  16.628  0.00  0.00    +0.000 C 
ATOM      9  O   UNL     1      49.934   5.591  16.312  0.00  0.00    +0.000 OA
ATOM     10  N   UNL     1      48.244   6.961  15.682  0.00  0.00    +0.000 N 
ATOM     11  H   UNL     1      47.398   7.447  15.947  0.00  0.00    +0.000 HD
BRANCH   8  19
ATOM     12  C   UNL     1      47.720   8.912  18.463  0.00  0.00    +0.000 A 
ATOM     13  N   UNL     1      47.227   9.752  19.395  0.00  0.00    +0.000 NA
ATOM     14  C   UNL     1      47.047   9.287  20.629  0.00  0.00    +0.000 A 
ATOM     15  N   UNL     1      47.307   8.056  21.062  0.00  0.00    +0.000 NA
ATOM     16  C   UNL     1      47.784   7.249  20.103  0.00  0.00    +0.000 A 
ATOM     17  S   UNL     1      48.181   5.641  20.479  0.00  0.00    +0.000 S 
ATOM     18  C   UNL     1      48.678   5.336  18.882  0.00  0.00    +0.000 A 
ATOM     19  C   UNL     1      48.555   6.432  18.033  0.00  0.00    +0.000 A 
ATOM     20  C   UNL     1      48.024   7.578  18.771  0.00  0.00    +0.000 A 
BRANCH  12  22
ATOM     21  C   UNL     1      49.045  10.212  17.067  0.00  0.00    +0.000 C 
ATOM     22  O   UNL     1      47.878   9.403  17.184  0.00  0.00    +0.000 OA
ENDBRANCH  12  22
ENDBRANCH   8  19
ENDBRANCH   7  10
ENDBRANCH   1   7
BRANCH   4  23
ATOM     23  O   UNL     1      44.470   4.355  11.224  0.00  0.00    +0.000 OA
BRANCH  23  24
ATOM     24  C   UNL     1      44.797   3.110  10.590  0.00  0.00    +0.000 C 
BRANCH  24  25
ATOM     25  C   UNL     1      44.432   3.095   9.096  0.00  0.00    +0.000 C 
BRANCH  25  26
ATOM     26  C   UNL     1      45.559   2.586   8.213  0.00  0.00    +0.000 A 
ATOM     27  C   UNL     1      46.168   3.411   7.264  0.00  0.00    +0.000 A 
ATOM     28  C   UNL     1      47.208   2.898   6.488  0.00  0.00    +0.000 A 
ATOM     29  C   UNL     1      47.608   1.582   6.669  0.00  0.00    +0.000 A 
ATOM     30  C   UNL     1      46.953   0.830   7.629  0.00  0.00    +0.000 A 
ATOM     31  N   UNL     1      45.950   1.298   8.406  0.00  0.00    +0.000 NA
ENDBRANCH  25  26
BRANCH  25  32
ATOM     32  O   UNL     1      44.025   4.412   8.692  0.00  0.00    +0.000 OA
ATOM     33  H   UNL     1      43.286   4.254   8.070  0.00  0.00    +0.000 HD
ENDBRANCH  25  32
ENDBRANCH  24  25
ENDBRANCH  23  24
ENDBRANCH   4  23
TORSDOF 9
ENDMDL
MODEL 3
REMARK VINA RESULT:    -7.905      2.411      3.017
REMARK INTER + INTRA:         -12.903
REMARK INTER:                 -11.839
REMARK INTRA:                  -1.064
REMARK UNBOUND:                -1.069
REMARK  Name = 
REMARK  10 active torsions:
REMARK  status: ('A' for Active; 'I' for Inactive)
REMARK    1  A    between atoms: C_1  and  O_2
REMARK    2  A    between atoms: O_2  and  C_3
REMARK    3  A    between atoms: C_10  and  C_11
REMARK    4  A    between atoms: N_13  and  C_14
REMARK    5  A    between atoms: C_14  and  C_15
REMARK    6  A    between atoms: C_18  and  O_19
REMARK    7  A    between atoms: O_19  and  C_20
REMARK    8  A    between atoms: C_20  and  C_21
REMARK    9  A    between atoms: C_21  and  O_22
REMARK   10  A    between atoms: C_21  and  C_23
REMARK                            x       y       z     vdW  Elec       q    Type
REMARK                         _______ _______ _______ _____ _____    ______ ____
ROOT
ATOM      1  C   UNL     1      47.885   6.931  14.069  0.00  0.00    +0.000 A 
ATOM      2  C   UNL     1      47.220   5.712  14.249  0.00  0.00    +0.000 A 
ATOM      3  C   UNL     1      46.491   5.129  13.204  0.00  0.00    +0.000 A 
ATOM      4  C   UNL     1      46.413   5.754  11.958  0.00  0.00    +0.000 A 
ATOM      5  C   UNL     1      47.084   6.963  11.769  0.00  0.00    +0.000 A 
ATOM      6  C   UNL     1      47.822   7.543  12.809  0.00  0.00    +0.000 A 
ENDROOT
BRANCH   1   7
ATOM      7  C   UNL     1      48.671   7.550  15.197  0.00  0.00    +0.000 C 
BRANCH   7  10
ATOM      8  C   UNL     1      49.651   6.146  16.970  0.00  0.00    +0.000 C 
ATOM      9  O   UNL     1      48.749   6.447  17.750  0.00  0.00    +0.000 OA
ATOM     10  N   UNL     1      49.683   6.650  15.697  0.00  0.00    +0.000 N 
ATOM     11  H   UNL     1      50.481   6.473  15.102  0.00  0.00    +0.000 HD
BRANCH   8  19
ATOM     12  C   UNL     1      49.976   2.723  16.949  0.00  0.00    +0.000 A 
ATOM     13  N   UNL     1      50.363   1.435  17.045  0.00  0.00    +0.000 NA
ATOM     14  C   UNL     1      51.574   1.176  17.532  0.00  0.00    +0.000 A 
ATOM     15  N   UNL     1      52.472   2.067  17.949  0.00  0.00    +0.000 NA
ATOM     16  C   UNL     1      52.054   3.334  17.826  0.00  0.00    +0.000 A 
ATOM     17  S   UNL     1      53.069   4.604  18.318  0.00  0.00    +0.000 S 
ATOM     18  C   UNL     1      51.906   5.769  17.887  0.00  0.00    +0.000 A 
ATOM     19  C   UNL     1      50.734   5.230  17.364  0.00  0.00    +0.000 A 
ATOM     20  C   UNL     1      50.826   3.771  17.334  0.00  0.00    +0.000 A 
BRANCH  12  22
ATOM     21  C   UNL     1      47.728   3.052  17.433  0.00  0.00    +0.000 C 
ATOM     22  O   UNL     1      48.728   2.975  16.420  0.00  0.00    +0.000 OA
ENDBRANCH  12  22
ENDBRANCH   8  19
ENDBRANCH   7  10
ENDBRANCH   1   7
BRANCH   4  23
ATOM     23  O   UNL     1      45.726   5.281  10.869  0.00  0.00    +0.000 OA
BRANCH  23  24
ATOM     24  C   UNL     1      45.120   3.988  11.019  0.00  0.00    +0.000 C 
BRANCH  24  25
ATOM     25  C   UNL     1      44.411   3.519   9.737  0.00  0.00    +0.000 C 
BRANCH  25  26
ATOM     26  C   UNL     1      45.368   2.955   8.700  0.00  0.00    +0.000 A 
ATOM     27  C   UNL     1      45.928   3.766   7.711  0.00  0.00    +0.000 A 
ATOM     28  C   UNL     1      46.811   3.202   6.791  0.00  0.00    +0.000 A 
ATOM     29  C   UNL     1      47.109   1.849   6.874  0.00  0.00    +0.000 A 
ATOM     30  C   UNL     1      46.512   1.114   7.884  0.00  0.00    +0.000 A 
ATOM     31  N   UNL     1      45.660   1.630   8.798  0.00  0.00    +0.000 NA
ENDBRANCH  25  26
BRANCH  25  32
ATOM     32  O   UNL     1      43.649   4.605   9.189  0.00  0.00    +0.000 OA
ATOM     33  H   UNL     1      43.837   5.356   9.787  0.00  0.00    +0.000 HD
ENDBRANCH  25  32
ENDBRANCH  24  25
ENDBRANCH  23  24
ENDBRANCH   4  23
TORSDOF 9
ENDMDL
MODEL 4
REMARK VINA RESULT:    -7.573      2.237      2.710
REMARK INTER + INTRA:         -12.405
REMARK INTER:                 -11.232
REMARK INTRA:                  -1.173
REMARK UNBOUND:                -1.069
REMARK  Name = 
REMARK  10 active torsions:
REMARK  status: ('A' for Active; 'I' for Inactive)
REMARK    1  A    between atoms: C_1  and  O_2
REMARK    2  A    between atoms: O_2  and  C_3
REMARK    3  A    between atoms: C_10  and  C_11
REMARK    4  A    between atoms: N_13  and  C_14
REMARK    5  A    between atoms: C_14  and  C_15
REMARK    6  A    between atoms: C_18  and  O_19
REMARK    7  A    between atoms: O_19  and  C_20
REMARK    8  A    between atoms: C_20  and  C_21
REMARK    9  A    between atoms: C_21  and  O_22
REMARK   10  A    between atoms: C_21  and  C_23
REMARK                            x       y       z     vdW  Elec       q    Type
REMARK                         _______ _______ _______ _____ _____    ______ ____
ROOT
ATOM      1  C   UNL     1      46.506   7.095  13.072  0.00  0.00    +0.000 A 
ATOM      2  C   UNL     1      45.421   7.537  12.305  0.00  0.00    +0.000 A 
ATOM      3  C   UNL     1      44.555   6.622  11.692  0.00  0.00    +0.000 A 
ATOM      4  C   UNL     1      44.757   5.247  11.834  0.00  0.00    +0.000 A 
ATOM      5  C   UNL     1      45.830   4.802  12.607  0.00  0.00    +0.000 A 
ATOM      6  C   UNL     1      46.692   5.715  13.230  0.00  0.00    +0.000 A 
ENDROOT
BRANCH   1   7
ATOM      7  C   UNL     1      47.431   8.086  13.733  0.00  0.00    +0.000 C 
BRANCH   7  10
ATOM      8  C   UNL     1      49.334   8.061  15.298  0.00  0.00    +0.000 C 
ATOM      9  O   UNL     1      49.125   9.229  15.620  0.00  0.00    +0.000 OA
ATOM     10  N   UNL     1      48.544   7.430  14.374  0.00  0.00    +0.000 N 
ATOM     11  H   UNL     1      48.789   6.505  14.047  0.00  0.00    +0.000 HD
BRANCH   8  19
ATOM     12  C   UNL     1      49.462   5.147  17.120  0.00  0.00    +0.000 A 
ATOM     13  N   UNL     1      49.793   4.051  17.831  0.00  0.00    +0.000 NA
ATOM     14  C   UNL     1      51.079   3.843  18.104  0.00  0.00    +0.000 A 
ATOM     15  N   UNL     1      52.104   4.614  17.748  0.00  0.00    +0.000 NA
ATOM     16  C   UNL     1      51.734   5.686  17.033  0.00  0.00    +0.000 A 
ATOM     17  S   UNL     1      52.913   6.786  16.500  0.00  0.00    +0.000 S 
ATOM     18  C   UNL     1      51.737   7.765  15.756  0.00  0.00    +0.000 A 
ATOM     19  C   UNL     1      50.437   7.286  15.890  0.00  0.00    +0.000 A 
ATOM     20  C   UNL     1      50.440   6.042  16.660  0.00  0.00    +0.000 A 
BRANCH  12  22
ATOM     21  C   UNL     1      47.488   4.114  16.463  0.00  0.00    +0.000 C 
ATOM     22  O   UNL     1      48.128   5.336  16.825  0.00  0.00    +0.000 OA
ENDBRANCH  12  22
ENDBRANCH   8  19
ENDBRANCH   7  10
ENDBRANCH   1   7
BRANCH   4  23
ATOM     23  O   UNL     1      43.981   4.264  11.275  0.00  0.00    +0.000 OA
BRANCH  23  24
ATOM     24  C   UNL     1      44.684   3.240  10.556  0.00  0.00    +0.000 C 
BRANCH  24  25
ATOM     25  C   UNL     1      44.319   3.215   9.061  0.00  0.00    +0.000 C 
BRANCH  25  26
ATOM     26  C   UNL     1      45.486   2.821   8.171  0.00  0.00    +0.000 A 
ATOM     27  C   UNL     1      46.075   1.558   8.262  0.00  0.00    +0.000 A 
ATOM     28  C   UNL     1      47.136   1.241   7.412  0.00  0.00    +0.000 A 
ATOM     29  C   UNL     1      47.584   2.187   6.501  0.00  0.00    +0.000 A 
ATOM     30  C   UNL     1      46.947   3.416   6.474  0.00  0.00    +0.000 A 
ATOM     31  N   UNL     1      45.911   3.753   7.276  0.00  0.00    +0.000 NA
ENDBRANCH  25  26
BRANCH  25  32
ATOM     32  O   UNL     1      43.796   4.495   8.677  0.00  0.00    +0.000 OA
ATOM     33  H   UNL     1      44.391   4.792   7.959  0.00  0.00    +0.000 HD
ENDBRANCH  25  32
ENDBRANCH  24  25
ENDBRANCH  23  24
ENDBRANCH   4  23
TORSDOF 9
ENDMDL
MODEL 5
REMARK VINA RESULT:    -7.108      1.793      2.288
REMARK INTER + INTRA:         -11.709
REMARK INTER:                 -10.872
REMARK INTRA:                  -0.836
REMARK UNBOUND:                -1.069
REMARK  Name = 
REMARK  10 active torsions:
REMARK  status: ('A' for Active; 'I' for Inactive)
REMARK    1  A    between atoms: C_1  and  O_2
REMARK    2  A    between atoms: O_2  and  C_3
REMARK    3  A    between atoms: C_10  and  C_11
REMARK    4  A    between atoms: N_13  and  C_14
REMARK    5  A    between atoms: C_14  and  C_15
REMARK    6  A    between atoms: C_18  and  O_19
REMARK    7  A    between atoms: O_19  and  C_20
REMARK    8  A    between atoms: C_20  and  C_21
REMARK    9  A    between atoms: C_21  and  O_22
REMARK   10  A    between atoms: C_21  and  C_23
REMARK                            x       y       z     vdW  Elec       q    Type
REMARK                         _______ _______ _______ _____ _____    ______ ____
ROOT
ATOM      1  C   UNL     1      47.145   6.304  13.370  0.00  0.00    +0.000 A 
ATOM      2  C   UNL     1      46.497   6.903  12.283  0.00  0.00    +0.000 A 
ATOM      3  C   UNL     1      45.529   6.205  11.550  0.00  0.00    +0.000 A 
ATOM      4  C   UNL     1      45.187   4.895  11.891  0.00  0.00    +0.000 A 
ATOM      5  C   UNL     1      45.822   4.297  12.981  0.00  0.00    +0.000 A 
ATOM      6  C   UNL     1      46.783   4.996  13.722  0.00  0.00    +0.000 A 
ENDROOT
BRANCH   1   7
ATOM      7  C   UNL     1      48.183   7.064  14.157  0.00  0.00    +0.000 C 
BRANCH   7  10
ATOM      8  C   UNL     1      49.074   7.166  16.453  0.00  0.00    +0.000 C 
ATOM      9  O   UNL     1      49.643   8.230  16.218  0.00  0.00    +0.000 OA
ATOM     10  N   UNL     1      48.338   6.529  15.488  0.00  0.00    +0.000 N 
ATOM     11  H   UNL     1      47.960   5.609  15.667  0.00  0.00    +0.000 HD
BRANCH   8  19
ATOM     12  C   UNL     1      51.695   6.141  18.429  0.00  0.00    +0.000 A 
ATOM     13  N   UNL     1      52.516   5.660  19.384  0.00  0.00    +0.000 NA
ATOM     14  C   UNL     1      51.970   5.137  20.479  0.00  0.00    +0.000 A 
ATOM     15  N   UNL     1      50.671   5.028  20.747  0.00  0.00    +0.000 NA
ATOM     16  C   UNL     1      49.889   5.528  19.779  0.00  0.00    +0.000 A 
ATOM     17  S   UNL     1      48.200   5.466  19.949  0.00  0.00    +0.000 S 
ATOM     18  C   UNL     1      47.970   6.215  18.439  0.00  0.00    +0.000 A 
ATOM     19  C   UNL     1      49.153   6.528  17.777  0.00  0.00    +0.000 A 
ATOM     20  C   UNL     1      50.301   6.110  18.583  0.00  0.00    +0.000 A 
BRANCH  12  22
ATOM     21  C   UNL     1      53.268   5.847  16.745  0.00  0.00    +0.000 C 
ATOM     22  O   UNL     1      52.277   6.702  17.311  0.00  0.00    +0.000 OA
ENDBRANCH  12  22
ENDBRANCH   8  19
ENDBRANCH   7  10
ENDBRANCH   1   7
BRANCH   4  23
ATOM     23  O   UNL     1      44.263   4.116  11.244  0.00  0.00    +0.000 OA
BRANCH  23  24
ATOM     24  C   UNL     1      44.782   2.984  10.529  0.00  0.00    +0.000 C 
BRANCH  24  25
ATOM     25  C   UNL     1      44.445   3.029   9.029  0.00  0.00    +0.000 C 
BRANCH  25  26
ATOM     26  C   UNL     1      45.592   2.566   8.147  0.00  0.00    +0.000 A 
ATOM     27  C   UNL     1      46.145   3.403   7.175  0.00  0.00    +0.000 A 
ATOM     28  C   UNL     1      47.207   2.933   6.400  0.00  0.00    +0.000 A 
ATOM     29  C   UNL     1      47.684   1.647   6.607  0.00  0.00    +0.000 A 
ATOM     30  C   UNL     1      47.081   0.880   7.590  0.00  0.00    +0.000 A 
ATOM     31  N   UNL     1      46.059   1.307   8.365  0.00  0.00    +0.000 NA
ENDBRANCH  25  26
BRANCH  25  32
ATOM     32  O   UNL     1      44.035   4.358   8.673  0.00  0.00    +0.000 OA
ATOM     33  H   UNL     1      44.785   4.709   8.151  0.00  0.00    +0.000 HD
ENDBRANCH  25  32
ENDBRANCH  24  25
ENDBRANCH  23  24
ENDBRANCH   4  23
TORSDOF 9
ENDMDL
MODEL 6
REMARK VINA RESULT:    -6.463      3.697      8.545
REMARK INTER + INTRA:         -10.744
REMARK INTER:                  -9.123
REMARK INTRA:                  -1.621
REMARK UNBOUND:                -1.069
REMARK  Name = 
REMARK  10 active torsions:
REMARK  status: ('A' for Active; 'I' for Inactive)
REMARK    1  A    between atoms: C_1  and  O_2
REMARK    2  A    between atoms: O_2  and  C_3
REMARK    3  A    between atoms: C_10  and  C_11
REMARK    4  A    between atoms: N_13  and  C_14
REMARK    5  A    between atoms: C_14  and  C_15
REMARK    6  A    between atoms: C_18  and  O_19
REMARK    7  A    between atoms: O_19  and  C_20
REMARK    8  A    between atoms: C_20  and  C_21
REMARK    9  A    between atoms: C_21  and  O_22
REMARK   10  A    between atoms: C_21  and  C_23
REMARK                            x       y       z     vdW  Elec       q    Type
REMARK                         _______ _______ _______ _____ _____    ______ ____
ROOT
ATOM      1  C   UNL     1      48.414   8.518  15.473  0.00  0.00    +0.000 A 
ATOM      2  C   UNL     1      48.113   9.213  16.651  0.00  0.00    +0.000 A 
ATOM      3  C   UNL     1      48.548   8.739  17.895  0.00  0.00    +0.000 A 
ATOM      4  C   UNL     1      49.293   7.562  17.987  0.00  0.00    +0.000 A 
ATOM      5  C   UNL     1      49.606   6.872  16.814  0.00  0.00    +0.000 A 
ATOM      6  C   UNL     1      49.181   7.349  15.567  0.00  0.00    +0.000 A 
ENDROOT
BRANCH   1   7
ATOM      7  C   UNL     1      47.946   9.037  14.137  0.00  0.00    +0.000 C 
BRANCH   7  10
ATOM      8  C   UNL     1      46.843   7.416  12.644  0.00  0.00    +0.000 C 
ATOM      9  O   UNL     1      47.905   7.170  12.075  0.00  0.00    +0.000 OA
ATOM     10  N   UNL     1      46.783   8.325  13.667  0.00  0.00    +0.000 N 
ATOM     11  H   UNL     1      45.887   8.589  14.056  0.00  0.00    +0.000 HD
BRANCH   8  19
ATOM     12  C   UNL     1      45.728   4.172  12.882  0.00  0.00    +0.000 A 
ATOM     13  N   UNL     1      45.054   3.004  12.853  0.00  0.00    +0.000 NA
ATOM     14  C   UNL     1      43.834   2.994  12.322  0.00  0.00    +0.000 A 
ATOM     15  N   UNL     1      43.184   4.031  11.799  0.00  0.00    +0.000 NA
ATOM     16  C   UNL     1      43.882   5.174  11.857  0.00  0.00    +0.000 A 
ATOM     17  S   UNL     1      43.209   6.601  11.227  0.00  0.00    +0.000 S 
ATOM     18  C   UNL     1      44.595   7.497  11.638  0.00  0.00    +0.000 A 
ATOM     19  C   UNL     1      45.590   6.746  12.257  0.00  0.00    +0.000 A 
ATOM     20  C   UNL     1      45.159   5.354  12.382  0.00  0.00    +0.000 A 
BRANCH  12  22
ATOM     21  C   UNL     1      46.921   4.433  14.857  0.00  0.00    +0.000 C 
ATOM     22  O   UNL     1      46.981   4.171  13.457  0.00  0.00    +0.000 OA
ENDBRANCH  12  22
ENDBRANCH   8  19
ENDBRANCH   7  10
ENDBRANCH   1   7
BRANCH   4  23
ATOM     23  O   UNL     1      49.764   7.003  19.147  0.00  0.00    +0.000 OA
BRANCH  23  24
ATOM     24  C   UNL     1      48.782   6.382  19.991  0.00  0.00    +0.000 C 
BRANCH  24  25
ATOM     25  C   UNL     1      49.157   4.939  20.368  0.00  0.00    +0.000 C 
BRANCH  25  26
ATOM     26  C   UNL     1      49.484   4.074  19.161  0.00  0.00    +0.000 A 
ATOM     27  C   UNL     1      48.485   3.382  18.472  0.00  0.00    +0.000 A 
ATOM     28  C   UNL     1      48.836   2.612  17.362  0.00  0.00    +0.000 A 
ATOM     29  C   UNL     1      50.166   2.547  16.972  0.00  0.00    +0.000 A 
ATOM     30  C   UNL     1      51.095   3.262  17.708  0.00  0.00    +0.000 A 
ATOM     31  N   UNL     1      50.789   4.025  18.782  0.00  0.00    +0.000 NA
ENDBRANCH  25  26
BRANCH  25  32
ATOM     32  O   UNL     1      48.096   4.356  21.139  0.00  0.00    +0.000 OA
ATOM     33  H   UNL     1      47.866   3.539  20.652  0.00  0.00    +0.000 HD
ENDBRANCH  25  32
ENDBRANCH  24  25
ENDBRANCH  23  24
ENDBRANCH   4  23
TORSDOF 9
ENDMDL
MODEL 7
REMARK VINA RESULT:    -6.315      5.749      8.423
REMARK INTER + INTRA:         -10.522
REMARK INTER:                  -9.267
REMARK INTRA:                  -1.254
REMARK UNBOUND:                -1.069
REMARK  Name = 
REMARK  10 active torsions:
REMARK  status: ('A' for Active; 'I' for Inactive)
REMARK    1  A    between atoms: C_1  and  O_2
REMARK    2  A    between atoms: O_2  and  C_3
REMARK    3  A    between atoms: C_10  and  C_11
REMARK    4  A    between atoms: N_13  and  C_14
REMARK    5  A    between atoms: C_14  and  C_15
REMARK    6  A    between atoms: C_18  and  O_19
REMARK    7  A    between atoms: O_19  and  C_20
REMARK    8  A    between atoms: C_20  and  C_21
REMARK    9  A    between atoms: C_21  and  O_22
REMARK   10  A    between atoms: C_21  and  C_23
REMARK                            x       y       z     vdW  Elec       q    Type
REMARK                         _______ _______ _______ _____ _____    ______ ____
ROOT
ATOM      1  C   UNL     1      50.182   8.026  12.368  0.00  0.00    +0.000 A 
ATOM      2  C   UNL     1      49.887   7.764  13.712  0.00  0.00    +0.000 A 
ATOM      3  C   UNL     1      48.617   7.313  14.094  0.00  0.00    +0.000 A 
ATOM      4  C   UNL     1      47.617   7.114  13.141  0.00  0.00    +0.000 A 
ATOM      5  C   UNL     1      47.909   7.362  11.799  0.00  0.00    +0.000 A 
ATOM      6  C   UNL     1      49.181   7.803  11.412  0.00  0.00    +0.000 A 
ENDROOT
BRANCH   1   7
ATOM      7  C   UNL     1      51.552   8.506  11.964  0.00  0.00    +0.000 C 
BRANCH   7  10
ATOM      8  C   UNL     1      52.836   8.790   9.879  0.00  0.00    +0.000 C 
ATOM      9  O   UNL     1      53.498   9.700  10.373  0.00  0.00    +0.000 OA
ATOM     10  N   UNL     1      51.858   8.155  10.598  0.00  0.00    +0.000 N 
ATOM     11  H   UNL     1      51.258   7.478  10.146  0.00  0.00    +0.000 HD
BRANCH   8  19
ATOM     12  C   UNL     1      53.608   5.742   8.486  0.00  0.00    +0.000 A 
ATOM     13  N   UNL     1      53.902   4.692   7.693  0.00  0.00    +0.000 NA
ATOM     14  C   UNL     1      53.996   4.899   6.382  0.00  0.00    +0.000 A 
ATOM     15  N   UNL     1      53.832   6.055   5.745  0.00  0.00    +0.000 NA
ATOM     16  C   UNL     1      53.529   7.072   6.565  0.00  0.00    +0.000 A 
ATOM     17  S   UNL     1      53.291   8.626   5.924  0.00  0.00    +0.000 S 
ATOM     18  C   UNL     1      52.993   9.274   7.468  0.00  0.00    +0.000 A 
ATOM     19  C   UNL     1      53.063   8.338   8.496  0.00  0.00    +0.000 A 
ATOM     20  C   UNL     1      53.389   7.021   7.950  0.00  0.00    +0.000 A 
BRANCH  12  22
ATOM     21  C   UNL     1      54.753   5.566  10.499  0.00  0.00    +0.000 C 
ATOM     22  O   UNL     1      53.490   5.506   9.839  0.00  0.00    +0.000 OA
ENDBRANCH  12  22
ENDBRANCH   8  19
ENDBRANCH   7  10
ENDBRANCH   1   7
BRANCH   4  23
ATOM     23  O   UNL     1      46.341   6.684  13.400  0.00  0.00    +0.000 OA
BRANCH  23  24
ATOM     24  C   UNL     1      46.158   5.263  13.479  0.00  0.00    +0.000 C 
BRANCH  24  25
ATOM     25  C   UNL     1      44.768   4.819  12.990  0.00  0.00    +0.000 C 
BRANCH  25  26
ATOM     26  C   UNL     1      44.766   4.357  11.543  0.00  0.00    +0.000 A 
ATOM     27  C   UNL     1      45.307   5.149  10.526  0.00  0.00    +0.000 A 
ATOM     28  C   UNL     1      45.292   4.672   9.215  0.00  0.00    +0.000 A 
ATOM     29  C   UNL     1      44.736   3.429   8.949  0.00  0.00    +0.000 A 
ATOM     30  C   UNL     1      44.220   2.706  10.011  0.00  0.00    +0.000 A 
ATOM     31  N   UNL     1      44.228   3.133  11.295  0.00  0.00    +0.000 NA
ENDBRANCH  25  26
BRANCH  25  32
ATOM     32  O   UNL     1      43.831   5.890  13.184  0.00  0.00    +0.000 OA
ATOM     33  H   UNL     1      44.364   6.604  13.588  0.00  0.00    +0.000 HD
ENDBRANCH  25  32
ENDBRANCH  24  25
ENDBRANCH  23  24
ENDBRANCH   4  23
TORSDOF 9
ENDMDL
MODEL 8
REMARK VINA RESULT:    -6.289      3.881      8.260
REMARK INTER + INTRA:         -10.483
REMARK INTER:                  -9.025
REMARK INTRA:                  -1.458
REMARK UNBOUND:                -1.069
REMARK  Name = 
REMARK  10 active torsions:
REMARK  status: ('A' for Active; 'I' for Inactive)
REMARK    1  A    between atoms: C_1  and  O_2
REMARK    2  A    between atoms: O_2  and  C_3
REMARK    3  A    between atoms: C_10  and  C_11
REMARK    4  A    between atoms: N_13  and  C_14
REMARK    5  A    between atoms: C_14  and  C_15
REMARK    6  A    between atoms: C_18  and  O_19
REMARK    7  A    between atoms: O_19  and  C_20
REMARK    8  A    between atoms: C_20  and  C_21
REMARK    9  A    between atoms: C_21  and  O_22
REMARK   10  A    between atoms: C_21  and  C_23
REMARK                            x       y       z     vdW  Elec       q    Type
REMARK                         _______ _______ _______ _____ _____    ______ ____
ROOT
ATOM      1  C   UNL     1      48.817   8.423  15.053  0.00  0.00    +0.000 A 
ATOM      2  C   UNL     1      48.513   8.506  16.418  0.00  0.00    +0.000 A 
ATOM      3  C   UNL     1      49.292   7.836  17.369  0.00  0.00    +0.000 A 
ATOM      4  C   UNL     1      50.391   7.070  16.976  0.00  0.00    +0.000 A 
ATOM      5  C   UNL     1      50.706   6.993  15.618  0.00  0.00    +0.000 A 
ATOM      6  C   UNL     1      49.934   7.671  14.665  0.00  0.00    +0.000 A 
ENDROOT
BRANCH   1   7
ATOM      7  C   UNL     1      47.977   9.152  14.035  0.00  0.00    +0.000 C 
BRANCH   7  10
ATOM      8  C   UNL     1      46.860   7.607  12.472  0.00  0.00    +0.000 C 
ATOM      9  O   UNL     1      47.850   7.577  11.745  0.00  0.00    +0.000 OA
ATOM     10  N   UNL     1      46.844   8.362  13.616  0.00  0.00    +0.000 N 
ATOM     11  H   UNL     1      45.990   8.454  14.148  0.00  0.00    +0.000 HD
BRANCH   8  19
ATOM     12  C   UNL     1      45.973   4.313  12.901  0.00  0.00    +0.000 A 
ATOM     13  N   UNL     1      45.380   3.103  12.948  0.00  0.00    +0.000 NA
ATOM     14  C   UNL     1      44.152   2.983  12.450  0.00  0.00    +0.000 A 
ATOM     15  N   UNL     1      43.421   3.947  11.893  0.00  0.00    +0.000 NA
ATOM     16  C   UNL     1      44.040   5.136  11.876  0.00  0.00    +0.000 A 
ATOM     17  S   UNL     1      43.258   6.480  11.193  0.00  0.00    +0.000 S 
ATOM     18  C   UNL     1      44.590   7.486  11.522  0.00  0.00    +0.000 A 
ATOM     19  C   UNL     1      45.647   6.836  12.152  0.00  0.00    +0.000 A 
ATOM     20  C   UNL     1      45.315   5.427  12.357  0.00  0.00    +0.000 A 
BRANCH  12  22
ATOM     21  C   UNL     1      47.199   4.952  14.767  0.00  0.00    +0.000 C 
ATOM     22  O   UNL     1      47.236   4.425  13.443  0.00  0.00    +0.000 OA
ENDBRANCH  12  22
ENDBRANCH   8  19
ENDBRANCH   7  10
ENDBRANCH   1   7
BRANCH   4  23
ATOM     23  O   UNL     1      51.217   6.367  17.815  0.00  0.00    +0.000 OA
BRANCH  23  24
ATOM     24  C   UNL     1      51.954   5.290  17.218  0.00  0.00    +0.000 C 
BRANCH  24  25
ATOM     25  C   UNL     1      51.654   3.934  17.879  0.00  0.00    +0.000 C 
BRANCH  25  26
ATOM     26  C   UNL     1      50.206   3.503  17.722  0.00  0.00    +0.000 A 
ATOM     27  C   UNL     1      49.209   3.978  18.578  0.00  0.00    +0.000 A 
ATOM     28  C   UNL     1      47.892   3.562  18.382  0.00  0.00    +0.000 A 
ATOM     29  C   UNL     1      47.602   2.682  17.348  0.00  0.00    +0.000 A 
ATOM     30  C   UNL     1      48.646   2.257  16.545  0.00  0.00    +0.000 A 
ATOM     31  N   UNL     1      49.931   2.648  16.700  0.00  0.00    +0.000 NA
ENDBRANCH  25  26
BRANCH  25  32
ATOM     32  O   UNL     1      52.021   3.988  19.266  0.00  0.00    +0.000 OA
ATOM     33  H   UNL     1      51.205   4.285  19.718  0.00  0.00    +0.000 HD
ENDBRANCH  25  32
ENDBRANCH  24  25
ENDBRANCH  23  24
ENDBRANCH   4  23
TORSDOF 9
ENDMDL
MODEL 9
REMARK VINA RESULT:    -6.169      3.761      5.390
REMARK INTER + INTRA:         -10.303
REMARK INTER:                  -9.225
REMARK INTRA:                  -1.078
REMARK UNBOUND:                -1.069
REMARK  Name = 
REMARK  10 active torsions:
REMARK  status: ('A' for Active; 'I' for Inactive)
REMARK    1  A    between atoms: C_1  and  O_2
REMARK    2  A    between atoms: O_2  and  C_3
REMARK    3  A    between atoms: C_10  and  C_11
REMARK    4  A    between atoms: N_13  and  C_14
REMARK    5  A    between atoms: C_14  and  C_15
REMARK    6  A    between atoms: C_18  and  O_19
REMARK    7  A    between atoms: O_19  and  C_20
REMARK    8  A    between atoms: C_20  and  C_21
REMARK    9  A    between atoms: C_21  and  O_22
REMARK   10  A    between atoms: C_21  and  C_23
REMARK                            x       y       z     vdW  Elec       q    Type
REMARK                         _______ _______ _______ _____ _____    ______ ____
ROOT
ATOM      1  C   UNL     1      48.101   4.362  16.797  0.00  0.00    +0.000 A 
ATOM      2  C   UNL     1      48.738   5.598  16.623  0.00  0.00    +0.000 A 
ATOM      3  C   UNL     1      48.469   6.393  15.502  0.00  0.00    +0.000 A 
ATOM      4  C   UNL     1      47.556   5.970  14.533  0.00  0.00    +0.000 A 
ATOM      5  C   UNL     1      46.910   4.745  14.707  0.00  0.00    +0.000 A 
ATOM      6  C   UNL     1      47.170   3.952  15.833  0.00  0.00    +0.000 A 
ENDROOT
BRANCH   1   7
ATOM      7  C   UNL     1      48.393   3.514  18.009  0.00  0.00    +0.000 C 
BRANCH   7  10
ATOM      8  C   UNL     1      50.460   2.352  17.336  0.00  0.00    +0.000 C 
ATOM      9  O   UNL     1      49.864   1.734  16.457  0.00  0.00    +0.000 OA
ATOM     10  N   UNL     1      49.804   3.245  18.143  0.00  0.00    +0.000 N 
ATOM     11  H   UNL     1      50.287   3.669  18.924  0.00  0.00    +0.000 HD
BRANCH   8  19
ATOM     12  C   UNL     1      53.037   4.516  18.045  0.00  0.00    +0.000 A 
ATOM     13  N   UNL     1      54.206   5.127  18.323  0.00  0.00    +0.000 NA
ATOM     14  C   UNL     1      55.304   4.379  18.409  0.00  0.00    +0.000 A 
ATOM     15  N   UNL     1      55.383   3.060  18.245  0.00  0.00    +0.000 NA
ATOM     16  C   UNL     1      54.199   2.489  17.983  0.00  0.00    +0.000 A 
ATOM     17  S   UNL     1      54.113   0.811  17.736  0.00  0.00    +0.000 S 
ATOM     18  C   UNL     1      52.434   0.884  17.470  0.00  0.00    +0.000 A 
ATOM     19  C   UNL     1      51.903   2.167  17.563  0.00  0.00    +0.000 A 
ATOM     20  C   UNL     1      52.966   3.126  17.865  0.00  0.00    +0.000 A 
BRANCH  12  22
ATOM     21  C   UNL     1      52.208   6.632  17.568  0.00  0.00    +0.000 C 
ATOM     22  O   UNL     1      51.906   5.302  17.984  0.00  0.00    +0.000 OA
ENDBRANCH  12  22
ENDBRANCH   8  19
ENDBRANCH   7  10
ENDBRANCH   1   7
BRANCH   4  23
ATOM     23  O   UNL     1      47.221   6.659  13.396  0.00  0.00    +0.000 OA
BRANCH  23  24
ATOM     24  C   UNL     1      46.997   5.866  12.220  0.00  0.00    +0.000 C 
BRANCH  24  25
ATOM     25  C   UNL     1      45.539   5.931  11.735  0.00  0.00    +0.000 C 
BRANCH  25  26
ATOM     26  C   UNL     1      45.201   4.851  10.721  0.00  0.00    +0.000 A 
ATOM     27  C   UNL     1      44.573   3.664  11.105  0.00  0.00    +0.000 A 
ATOM     28  C   UNL     1      44.272   2.710  10.132  0.00  0.00    +0.000 A 
ATOM     29  C   UNL     1      44.608   2.958   8.809  0.00  0.00    +0.000 A 
ATOM     30  C   UNL     1      45.229   4.159   8.510  0.00  0.00    +0.000 A 
ATOM     31  N   UNL     1      45.525   5.109   9.425  0.00  0.00    +0.000 NA
ENDBRANCH  25  26
BRANCH  25  32
ATOM     32  O   UNL     1      45.273   7.235  11.198  0.00  0.00    +0.000 OA
ATOM     33  H   UNL     1      46.064   7.438  10.659  0.00  0.00    +0.000 HD
ENDBRANCH  25  32
ENDBRANCH  24  25
ENDBRANCH  23  24
ENDBRANCH   4  23
TORSDOF 9
ENDMDL
