MODEL 1
REMARK VINA RESULT:    -7.414      0.000      0.000
REMARK INTER + INTRA:          -9.828
REMARK INTER:                  -9.148
REMARK INTRA:                  -0.680
REMARK UNBOUND:                -0.680
REMARK  Name = 
REMARK  5 active torsions:
REMARK  status: ('A' for Active; 'I' for Inactive)
REMARK    1  A    between atoms: C_1  and  C_2
REMARK    2  A    between atoms: N_5  and  C_6
REMARK    3  A    between atoms: C_6  and  C_7
REMARK    4  A    between atoms: C_11  and  C_12
REMARK    5  A    between atoms: C_21  and  C_22
REMARK                            x       y       z     vdW  Elec       q    Type
REMARK                         _______ _______ _______ _____ _____    ______ ____
ROOT
ATOM      1  C   UNL     1      45.087   5.172  13.412  0.00  0.00    +0.000 C 
ENDROOT
BRANCH   1   6
ATOM      2  C   UNL     1      49.300   7.389  12.259  0.00  0.00    +0.000 C 
ATOM      3  C   UNL     1      47.897   7.924  12.337  0.00  0.00    +0.000 A 
ATOM      4  N   UNL     1      46.938   7.027  12.709  0.00  0.00    +0.000 NA
ATOM      5  C   UNL     1      45.652   7.429  12.775  0.00  0.00    +0.000 A 
ATOM      6  N   UNL     1      44.630   6.521  13.097  0.00  0.00    +0.000 N 
ATOM      7  C   UNL     1      45.291   8.735  12.460  0.00  0.00    +0.000 A 
ATOM      8  C   UNL     1      46.270   9.653  12.080  0.00  0.00    +0.000 A 
ATOM      9  C   UNL     1      47.601   9.247  12.013  0.00  0.00    +0.000 A 
ATOM     10  H   UNL     1      44.052   6.908  13.839  0.00  0.00    +0.000 HD
BRANCH   9  11
ATOM     11  C   UNL     1      48.614  10.177  11.609  0.00  0.00    +0.000 C 
ATOM     12  N   UNL     1      49.431  10.933  11.282  0.00  0.00    +0.000 NA
ENDBRANCH   9  11
ENDBRANCH   1   6
BRANCH   1  13
ATOM     13  C   UNL     1      44.626   4.217  12.339  0.00  0.00    +0.000 A 
ATOM     14  C   UNL     1      43.544   3.373  12.540  0.00  0.00    +0.000 A 
ATOM     15  N   UNL     1      43.097   2.488  11.625  0.00  0.00    +0.000 NA
ATOM     16  C   UNL     1      43.775   2.425  10.451  0.00  0.00    +0.000 A 
ATOM     17  C   UNL     1      44.894   3.196  10.126  0.00  0.00    +0.000 A 
ATOM     18  C   UNL     1      45.299   4.113  11.111  0.00  0.00    +0.000 A 
BRANCH  17  19
ATOM     19  C   UNL     1      45.625   3.036   8.853  0.00  0.00    +0.000 A 
ATOM     20  C   UNL     1      46.067   1.787   8.393  0.00  0.00    +0.000 A 
ATOM     21  C   UNL     1      46.708   1.665   7.159  0.00  0.00    +0.000 A 
ATOM     22  C   UNL     1      46.910   2.808   6.408  0.00  0.00    +0.000 A 
ATOM     23  N   UNL     1      46.525   4.035   6.806  0.00  0.00    +0.000 NA
ATOM     24  C   UNL     1      45.894   4.117   8.006  0.00  0.00    +0.000 A 
ENDBRANCH  17  19
ENDBRANCH   1  13
TORSDOF 4
ENDMDL
MODEL 2
REMARK VINA RESULT:    -7.342      1.882      2.469
REMARK INTER + INTRA:          -9.738
REMARK INTER:                  -9.094
REMARK INTRA:                  -0.645
REMARK UNBOUND:                -0.680
REMARK  Name = 
REMARK  5 active torsions:
REMARK  status: ('A' for Active; 'I' for Inactive)
REMARK    1  A    between atoms: C_1  and  C_2
REMARK    2  A    between atoms: N_5  and  C_6
REMARK    3  A    between atoms: C_6  and  C_7
REMARK    4  A    between atoms: C_11  and  C_12
REMARK    5  A    between atoms: C_21  and  C_22
REMARK                            x       y       z     vdW  Elec       q    Type
REMARK                         _______ _______ _______ _____ _____    ______ ____
ROOT
ATOM      1  C   UNL     1      44.876   5.881  12.035  0.00  0.00    +0.000 C 
ENDROOT
BRANCH   1   6
ATOM      2  C   UNL     1      48.261   6.087  15.570  0.00  0.00    +0.000 C 
ATOM      3  C   UNL     1      48.254   6.661  14.180  0.00  0.00    +0.000 A 
ATOM      4  N   UNL     1      47.129   6.427  13.445  0.00  0.00    +0.000 NA
ATOM      5  C   UNL     1      47.062   6.890  12.179  0.00  0.00    +0.000 A 
ATOM      6  N   UNL     1      45.946   6.619  11.372  0.00  0.00    +0.000 N 
ATOM      7  C   UNL     1      48.124   7.588  11.613  0.00  0.00    +0.000 A 
ATOM      8  C   UNL     1      49.276   7.827  12.364  0.00  0.00    +0.000 A 
ATOM      9  C   UNL     1      49.351   7.357  13.673  0.00  0.00    +0.000 A 
ATOM     10  H   UNL     1      45.608   7.483  10.957  0.00  0.00    +0.000 HD
BRANCH   9  11
ATOM     11  C   UNL     1      50.534   7.583  14.449  0.00  0.00    +0.000 C 
ATOM     12  N   UNL     1      51.490   7.770  15.079  0.00  0.00    +0.000 NA
ENDBRANCH   9  11
ENDBRANCH   1   6
BRANCH   1  13
ATOM     13  C   UNL     1      44.596   4.606  11.280  0.00  0.00    +0.000 A 
ATOM     14  C   UNL     1      43.656   3.690  11.731  0.00  0.00    +0.000 A 
ATOM     15  N   UNL     1      43.377   2.527  11.108  0.00  0.00    +0.000 NA
ATOM     16  C   UNL     1      44.083   2.249   9.983  0.00  0.00    +0.000 A 
ATOM     17  C   UNL     1      45.074   3.066   9.433  0.00  0.00    +0.000 A 
ATOM     18  C   UNL     1      45.306   4.273  10.115  0.00  0.00    +0.000 A 
BRANCH  17  19
ATOM     19  C   UNL     1      45.850   2.676   8.239  0.00  0.00    +0.000 A 
ATOM     20  C   UNL     1      46.167   3.587   7.220  0.00  0.00    +0.000 A 
ATOM     21  C   UNL     1      46.949   3.197   6.130  0.00  0.00    +0.000 A 
ATOM     22  C   UNL     1      47.391   1.889   6.073  0.00  0.00    +0.000 A 
ATOM     23  N   UNL     1      47.103   0.967   7.011  0.00  0.00    +0.000 NA
ATOM     24  C   UNL     1      46.351   1.381   8.062  0.00  0.00    +0.000 A 
ENDBRANCH  17  19
ENDBRANCH   1  13
TORSDOF 4
ENDMDL
MODEL 3
REMARK VINA RESULT:    -7.064      1.540      6.713
REMARK INTER + INTRA:          -9.396
REMARK INTER:                  -8.989
REMARK INTRA:                  -0.407
REMARK UNBOUND:                -0.680
REMARK  Name = 
REMARK  5 active torsions:
REMARK  status: ('A' for Active; 'I' for Inactive)
REMARK    1  A    between atoms: C_1  and  C_2
REMARK    2  A    between atoms: N_5  and  C_6
REMARK    3  A    between atoms: C_6  and  C_7
REMARK    4  A    between atoms: C_11  and  C_12
REMARK    5  A    between atoms: C_21  and  C_22
REMARK                            x       y       z     vdW  Elec       q    Type
REMARK                         _______ _______ _______ _____ _____    ______ ____
ROOT
ATOM      1  C   UNL     1      43.523   4.343  10.902  0.00  0.00    +0.000 C 
ENDROOT
BRANCH   1   6
ATOM      2  C   UNL     1      46.982   4.577   7.441  0.00  0.00    +0.000 C 
ATOM      3  C   UNL     1      46.240   3.400   8.013  0.00  0.00    +0.000 A 
ATOM      4  N   UNL     1      45.315   3.689   8.972  0.00  0.00    +0.000 NA
ATOM      5  C   UNL     1      44.629   2.680   9.548  0.00  0.00    +0.000 A 
ATOM      6  N   UNL     1      43.710   2.932  10.580  0.00  0.00    +0.000 N 
ATOM      7  C   UNL     1      44.861   1.357   9.189  0.00  0.00    +0.000 A 
ATOM      8  C   UNL     1      45.808   1.060   8.208  0.00  0.00    +0.000 A 
ATOM      9  C   UNL     1      46.517   2.096   7.605  0.00  0.00    +0.000 A 
ATOM     10  H   UNL     1      42.828   2.473  10.371  0.00  0.00    +0.000 HD
BRANCH   9  11
ATOM     11  C   UNL     1      47.504   1.803   6.607  0.00  0.00    +0.000 C 
ATOM     12  N   UNL     1      48.304   1.570   5.800  0.00  0.00    +0.000 NA
ENDBRANCH   9  11
ENDBRANCH   1   6
BRANCH   1  13
ATOM     13  C   UNL     1      44.633   4.807  11.812  0.00  0.00    +0.000 A 
ATOM     14  C   UNL     1      44.958   4.111  12.968  0.00  0.00    +0.000 A 
ATOM     15  N   UNL     1      45.928   4.487  13.827  0.00  0.00    +0.000 NA
ATOM     16  C   UNL     1      46.601   5.628  13.531  0.00  0.00    +0.000 A 
ATOM     17  C   UNL     1      46.361   6.437  12.418  0.00  0.00    +0.000 A 
ATOM     18  C   UNL     1      45.353   5.984  11.550  0.00  0.00    +0.000 A 
BRANCH  17  19
ATOM     19  C   UNL     1      47.088   7.701  12.185  0.00  0.00    +0.000 A 
ATOM     20  C   UNL     1      48.450   7.732  11.851  0.00  0.00    +0.000 A 
ATOM     21  C   UNL     1      49.094   8.943  11.585  0.00  0.00    +0.000 A 
ATOM     22  C   UNL     1      48.360  10.110  11.674  0.00  0.00    +0.000 A 
ATOM     23  N   UNL     1      47.056  10.144  12.009  0.00  0.00    +0.000 NA
ATOM     24  C   UNL     1      46.458   8.949  12.250  0.00  0.00    +0.000 A 
ENDBRANCH  17  19
ENDBRANCH   1  13
TORSDOF 4
ENDMDL
MODEL 4
REMARK VINA RESULT:    -6.969      2.397      6.937
REMARK INTER + INTRA:          -9.278
REMARK INTER:                  -8.920
REMARK INTRA:                  -0.358
REMARK UNBOUND:                -0.680
REMARK  Name = 
REMARK  5 active torsions:
REMARK  status: ('A' for Active; 'I' for Inactive)
REMARK    1  A    between atoms: C_1  and  C_2
REMARK    2  A    between atoms: N_5  and  C_6
REMARK    3  A    between atoms: C_6  and  C_7
REMARK    4  A    between atoms: C_11  and  C_12
REMARK    5  A    between atoms: C_21  and  C_22
REMARK                            x       y       z     vdW  Elec       q    Type
REMARK                         _______ _______ _______ _____ _____    ______ ____
ROOT
ATOM      1  C   UNL     1      43.411   5.221  10.926  0.00  0.00    +0.000 C 
ENDROOT
BRANCH   1   6
ATOM      2  C   UNL     1      46.748   4.638   7.387  0.00  0.00    +0.000 C 
ATOM      3  C   UNL     1      45.962   3.626   8.174  0.00  0.00    +0.000 A 
ATOM      4  N   UNL     1      45.090   4.133   9.092  0.00  0.00    +0.000 NA
ATOM      5  C   UNL     1      44.369   3.284   9.853  0.00  0.00    +0.000 A 
ATOM      6  N   UNL     1      43.504   3.767  10.849  0.00  0.00    +0.000 N 
ATOM      7  C   UNL     1      44.511   1.906   9.724  0.00  0.00    +0.000 A 
ATOM      8  C   UNL     1      45.403   1.386   8.785  0.00  0.00    +0.000 A 
ATOM      9  C   UNL     1      46.147   2.256   7.992  0.00  0.00    +0.000 A 
ATOM     10  H   UNL     1      42.591   3.335  10.746  0.00  0.00    +0.000 HD
BRANCH   9  11
ATOM     11  C   UNL     1      47.078   1.734   7.035  0.00  0.00    +0.000 C 
ATOM     12  N   UNL     1      47.831   1.316   6.258  0.00  0.00    +0.000 NA
ENDBRANCH   9  11
ENDBRANCH   1   6
BRANCH   1  13
ATOM     13  C   UNL     1      44.605   5.768  11.668  0.00  0.00    +0.000 A 
ATOM     14  C   UNL     1      45.185   6.977  11.312  0.00  0.00    +0.000 A 
ATOM     15  N   UNL     1      46.263   7.506  11.928  0.00  0.00    +0.000 NA
ATOM     16  C   UNL     1      46.806   6.785  12.941  0.00  0.00    +0.000 A 
ATOM     17  C   UNL     1      46.342   5.544  13.384  0.00  0.00    +0.000 A 
ATOM     18  C   UNL     1      45.205   5.055  12.719  0.00  0.00    +0.000 A 
BRANCH  17  19
ATOM     19  C   UNL     1      47.016   4.781  14.453  0.00  0.00    +0.000 A 
ATOM     20  C   UNL     1      47.460   5.383  15.640  0.00  0.00    +0.000 A 
ATOM     21  C   UNL     1      48.045   4.621  16.653  0.00  0.00    +0.000 A 
ATOM     22  C   UNL     1      48.191   3.262  16.452  0.00  0.00    +0.000 A 
ATOM     23  N   UNL     1      47.802   2.632  15.327  0.00  0.00    +0.000 NA
ATOM     24  C   UNL     1      47.226   3.400  14.367  0.00  0.00    +0.000 A 
ENDBRANCH  17  19
ENDBRANCH   1  13
TORSDOF 4
ENDMDL
MODEL 5
REMARK VINA RESULT:    -6.853      3.708      4.746
REMARK INTER + INTRA:          -9.135
REMARK INTER:                  -8.686
REMARK INTRA:                  -0.448
REMARK UNBOUND:                -0.680
REMARK  Name = 
REMARK  5 active torsions:
REMARK  status: ('A' for Active; 'I' for Inactive)
REMARK    1  A    between atoms: C_1  and  C_2
REMARK    2  A    between atoms: N_5  and  C_6
REMARK    3  A    between atoms: C_6  and  C_7
REMARK    4  A    between atoms: C_11  and  C_12
REMARK    5  A    between atoms: C_21  and  C_22
REMARK                            x       y       z     vdW  Elec       q    Type
REMARK                         _______ _______ _______ _____ _____    ______ ____
ROOT
ATOM      1  C   UNL     1      46.044   5.247  13.980  0.00  0.00    +0.000 C 
ENDROOT
BRANCH   1   6
ATOM      2  C   UNL     1      49.613   6.800  16.955  0.00  0.00    +0.000 C 
ATOM      3  C   UNL     1      49.043   5.425  16.736  0.00  0.00    +0.000 A 
ATOM      4  N   UNL     1      48.048   5.335  15.808  0.00  0.00    +0.000 NA
ATOM      5  C   UNL     1      47.472   4.137  15.577  0.00  0.00    +0.000 A 
ATOM      6  N   UNL     1      46.405   4.014  14.672  0.00  0.00    +0.000 N 
ATOM      7  C   UNL     1      47.869   3.002  16.277  0.00  0.00    +0.000 A 
ATOM      8  C   UNL     1      48.887   3.094  17.226  0.00  0.00    +0.000 A 
ATOM      9  C   UNL     1      49.490   4.326  17.468  0.00  0.00    +0.000 A 
ATOM     10  H   UNL     1      46.595   3.257  14.022  0.00  0.00    +0.000 HD
BRANCH   9  11
ATOM     11  C   UNL     1      50.526   4.436  18.452  0.00  0.00    +0.000 C 
ATOM     12  N   UNL     1      51.366   4.521  19.248  0.00  0.00    +0.000 NA
ENDBRANCH   9  11
ENDBRANCH   1   6
BRANCH   1  13
ATOM     13  C   UNL     1      45.158   4.927  12.803  0.00  0.00    +0.000 A 
ATOM     14  C   UNL     1      43.782   5.094  12.868  0.00  0.00    +0.000 A 
ATOM     15  N   UNL     1      42.938   4.809  11.854  0.00  0.00    +0.000 NA
ATOM     16  C   UNL     1      43.490   4.311  10.719  0.00  0.00    +0.000 A 
ATOM     17  C   UNL     1      44.852   4.068  10.526  0.00  0.00    +0.000 A 
ATOM     18  C   UNL     1      45.683   4.404  11.609  0.00  0.00    +0.000 A 
BRANCH  17  19
ATOM     19  C   UNL     1      45.383   3.467   9.286  0.00  0.00    +0.000 A 
ATOM     20  C   UNL     1      45.822   4.244   8.204  0.00  0.00    +0.000 A 
ATOM     21  C   UNL     1      46.369   3.644   7.068  0.00  0.00    +0.000 A 
ATOM     22  C   UNL     1      46.452   2.265   7.029  0.00  0.00    +0.000 A 
ATOM     23  N   UNL     1      46.030   1.467   8.028  0.00  0.00    +0.000 NA
ATOM     24  C   UNL     1      45.515   2.084   9.123  0.00  0.00    +0.000 A 
ENDBRANCH  17  19
ENDBRANCH   1  13
TORSDOF 4
ENDMDL
MODEL 6
REMARK VINA RESULT:    -6.662      3.237      4.242
REMARK INTER + INTRA:          -8.900
REMARK INTER:                  -8.451
REMARK INTRA:                  -0.449
REMARK UNBOUND:                -0.680
REMARK  Name = 
REMARK  5 active torsions:
REMARK  status: ('A' for Active; 'I' for Inactive)
REMARK    1  A    between atoms: C_1  and  C_2
REMARK    2  A    between atoms: N_5  and  C_6
REMARK    3  A    between atoms: C_6  and  C_7
REMARK    4  A    between atoms: C_11  and  C_12
REMARK    5  A    between atoms: C_21  and  C_22
REMARK                            x       y       z     vdW  Elec       q    Type
REMARK                         _______ _______ _______ _____ _____    ______ ____
ROOT
ATOM      1  C   UNL     1      45.393   4.292  13.282  0.00  0.00    +0.000 C 
ENDROOT
BRANCH   1   6
ATOM      2  C   UNL     1      47.344   2.914  17.559  0.00  0.00    +0.000 C 
ATOM      3  C   UNL     1      47.650   4.088  16.671  0.00  0.00    +0.000 A 
ATOM      4  N   UNL     1      46.899   4.189  15.537  0.00  0.00    +0.000 NA
ATOM      5  C   UNL     1      47.136   5.203  14.679  0.00  0.00    +0.000 A 
ATOM      6  N   UNL     1      46.424   5.307  13.474  0.00  0.00    +0.000 N 
ATOM      7  C   UNL     1      48.138   6.136  14.929  0.00  0.00    +0.000 A 
ATOM      8  C   UNL     1      48.907   6.034  16.089  0.00  0.00    +0.000 A 
ATOM      9  C   UNL     1      48.666   4.992  16.982  0.00  0.00    +0.000 A 
ATOM     10  H   UNL     1      46.051   6.248  13.378  0.00  0.00    +0.000 HD
BRANCH   9  11
ATOM     11  C   UNL     1      49.459   4.868  18.169  0.00  0.00    +0.000 C 
ATOM     12  N   UNL     1      50.099   4.763  19.131  0.00  0.00    +0.000 NA
ENDBRANCH   9  11
ENDBRANCH   1   6
BRANCH   1  13
ATOM     13  C   UNL     1      44.910   4.324  11.854  0.00  0.00    +0.000 A 
ATOM     14  C   UNL     1      43.714   4.938  11.509  0.00  0.00    +0.000 A 
ATOM     15  N   UNL     1      43.224   4.983  10.253  0.00  0.00    +0.000 NA
ATOM     16  C   UNL     1      43.953   4.367   9.288  0.00  0.00    +0.000 A 
ATOM     17  C   UNL     1      45.157   3.691   9.498  0.00  0.00    +0.000 A 
ATOM     18  C   UNL     1      45.627   3.696  10.823  0.00  0.00    +0.000 A 
BRANCH  17  19
ATOM     19  C   UNL     1      45.871   2.988   8.414  0.00  0.00    +0.000 A 
ATOM     20  C   UNL     1      46.102   1.604   8.440  0.00  0.00    +0.000 A 
ATOM     21  C   UNL     1      46.734   0.964   7.372  0.00  0.00    +0.000 A 
ATOM     22  C   UNL     1      47.140   1.728   6.295  0.00  0.00    +0.000 A 
ATOM     23  N   UNL     1      46.964   3.061   6.222  0.00  0.00    +0.000 NA
ATOM     24  C   UNL     1      46.336   3.651   7.272  0.00  0.00    +0.000 A 
ENDBRANCH  17  19
ENDBRANCH   1  13
TORSDOF 4
ENDMDL
MODEL 7
REMARK VINA RESULT:    -6.220      1.796      2.736
REMARK INTER + INTRA:          -8.355
REMARK INTER:                  -8.527
REMARK INTRA:                   0.172
REMARK UNBOUND:                -0.680
REMARK  Name = 
REMARK  5 active torsions:
REMARK  status: ('A' for Active; 'I' for Inactive)
REMARK    1  A    between atoms: C_1  and  C_2
REMARK    2  A    between atoms: N_5  and  C_6
REMARK    3  A    between atoms: C_6  and  C_7
REMARK    4  A    between atoms: C_11  and  C_12
REMARK    5  A    between atoms: C_21  and  C_22
REMARK                            x       y       z     vdW  Elec       q    Type
REMARK                         _______ _______ _______ _____ _____    ______ ____
ROOT
ATOM      1  C   UNL     1      44.400   3.227  12.698  0.00  0.00    +0.000 C 
ENDROOT
BRANCH   1   6
ATOM      2  C   UNL     1      45.023   8.081  12.484  0.00  0.00    +0.000 C 
ATOM      3  C   UNL     1      45.960   6.987  12.917  0.00  0.00    +0.000 A 
ATOM      4  N   UNL     1      45.468   5.718  12.840  0.00  0.00    +0.000 NA
ATOM      5  C   UNL     1      46.243   4.687  13.237  0.00  0.00    +0.000 A 
ATOM      6  N   UNL     1      45.751   3.372  13.228  0.00  0.00    +0.000 N 
ATOM      7  C   UNL     1      47.525   4.902  13.732  0.00  0.00    +0.000 A 
ATOM      8  C   UNL     1      48.029   6.201  13.811  0.00  0.00    +0.000 A 
ATOM      9  C   UNL     1      47.237   7.270  13.399  0.00  0.00    +0.000 A 
ATOM     10  H   UNL     1      46.412   2.764  12.750  0.00  0.00    +0.000 HD
BRANCH   9  11
ATOM     11  C   UNL     1      47.738   8.610  13.491  0.00  0.00    +0.000 C 
ATOM     12  N   UNL     1      48.140   9.695  13.568  0.00  0.00    +0.000 NA
ENDBRANCH   9  11
ENDBRANCH   1   6
BRANCH   1  13
ATOM     13  C   UNL     1      44.380   3.621  11.243  0.00  0.00    +0.000 A 
ATOM     14  C   UNL     1      43.499   4.581  10.766  0.00  0.00    +0.000 A 
ATOM     15  N   UNL     1      43.426   4.962   9.473  0.00  0.00    +0.000 NA
ATOM     16  C   UNL     1      44.260   4.340   8.602  0.00  0.00    +0.000 A 
ATOM     17  C   UNL     1      45.176   3.340   8.940  0.00  0.00    +0.000 A 
ATOM     18  C   UNL     1      45.221   3.002  10.304  0.00  0.00    +0.000 A 
BRANCH  17  19
ATOM     19  C   UNL     1      46.014   2.659   7.934  0.00  0.00    +0.000 A 
ATOM     20  C   UNL     1      46.502   3.317   6.794  0.00  0.00    +0.000 A 
ATOM     21  C   UNL     1      47.337   2.657   5.890  0.00  0.00    +0.000 A 
ATOM     22  C   UNL     1      47.658   1.336   6.136  0.00  0.00    +0.000 A 
ATOM     23  N   UNL     1      47.205   0.648   7.201  0.00  0.00    +0.000 NA
ATOM     24  C   UNL     1      46.405   1.323   8.067  0.00  0.00    +0.000 A 
ENDBRANCH  17  19
ENDBRANCH   1  13
TORSDOF 4
ENDMDL
MODEL 8
REMARK VINA RESULT:    -6.120      3.961      5.660
REMARK INTER + INTRA:          -8.231
REMARK INTER:                  -7.664
REMARK INTRA:                  -0.566
REMARK UNBOUND:                -0.680
REMARK  Name = 
REMARK  5 active torsions:
REMARK  status: ('A' for Active; 'I' for Inactive)
REMARK    1  A    between atoms: C_1  and  C_2
REMARK    2  A    between atoms: N_5  and  C_6
REMARK    3  A    between atoms: C_6  and  C_7
REMARK    4  A    between atoms: C_11  and  C_12
REMARK    5  A    between atoms: C_21  and  C_22
REMARK                            x       y       z     vdW  Elec       q    Type
REMARK                         _______ _______ _______ _____ _____    ______ ____
ROOT
ATOM      1  C   UNL     1      48.823   7.025  13.734  0.00  0.00    +0.000 C 
ENDROOT
BRANCH   1   6
ATOM      2  C   UNL     1      48.819   3.502  17.137  0.00  0.00    +0.000 C 
ATOM      3  C   UNL     1      48.744   4.998  17.270  0.00  0.00    +0.000 A 
ATOM      4  N   UNL     1      48.754   5.700  16.101  0.00  0.00    +0.000 NA
ATOM      5  C   UNL     1      48.714   7.048  16.144  0.00  0.00    +0.000 A 
ATOM      6  N   UNL     1      48.782   7.808  14.964  0.00  0.00    +0.000 N 
ATOM      7  C   UNL     1      48.676   7.727  17.357  0.00  0.00    +0.000 A 
ATOM      8  C   UNL     1      48.666   7.009  18.553  0.00  0.00    +0.000 A 
ATOM      9  C   UNL     1      48.702   5.618  18.518  0.00  0.00    +0.000 A 
ATOM     10  H   UNL     1      48.028   8.489  14.954  0.00  0.00    +0.000 HD
BRANCH   9  11
ATOM     11  C   UNL     1      48.708   4.870  19.741  0.00  0.00    +0.000 C 
ATOM     12  N   UNL     1      48.712   4.260  20.728  0.00  0.00    +0.000 NA
ENDBRANCH   9  11
ENDBRANCH   1   6
BRANCH   1  13
ATOM     13  C   UNL     1      47.489   7.111  13.034  0.00  0.00    +0.000 A 
ATOM     14  C   UNL     1      46.618   8.165  13.267  0.00  0.00    +0.000 A 
ATOM     15  N   UNL     1      45.407   8.286  12.684  0.00  0.00    +0.000 NA
ATOM     16  C   UNL     1      45.033   7.294  11.836  0.00  0.00    +0.000 A 
ATOM     17  C   UNL     1      45.798   6.166  11.531  0.00  0.00    +0.000 A 
ATOM     18  C   UNL     1      47.057   6.106  12.153  0.00  0.00    +0.000 A 
BRANCH  17  19
ATOM     19  C   UNL     1      45.307   5.090  10.646  0.00  0.00    +0.000 A 
ATOM     20  C   UNL     1      45.587   5.063   9.272  0.00  0.00    +0.000 A 
ATOM     21  C   UNL     1      45.153   4.003   8.474  0.00  0.00    +0.000 A 
ATOM     22  C   UNL     1      44.427   2.988   9.069  0.00  0.00    +0.000 A 
ATOM     23  N   UNL     1      44.111   2.970  10.377  0.00  0.00    +0.000 NA
ATOM     24  C   UNL     1      44.559   4.010  11.127  0.00  0.00    +0.000 A 
ENDBRANCH  17  19
ENDBRANCH   1  13
TORSDOF 4
ENDMDL
MODEL 9
REMARK VINA RESULT:    -6.102      5.634      8.375
REMARK INTER + INTRA:          -8.209
REMARK INTER:                  -7.746
REMARK INTRA:                  -0.463
REMARK UNBOUND:                -0.680
REMARK  Name = 
REMARK  5 active torsions:
REMARK  status: ('A' for Active; 'I' for Inactive)
REMARK    1  A    between atoms: C_1  and  C_2
REMARK    2  A    between atoms: N_5  and  C_6
REMARK    3  A    between atoms: C_6  and  C_7
REMARK    4  A    between atoms: C_11  and  C_12
REMARK    5  A    between atoms: C_21  and  C_22
REMARK                            x       y       z     vdW  Elec       q    Type
REMARK                         _______ _______ _______ _____ _____    ______ ____
ROOT
ATOM      1  C   UNL     1      47.033   4.360  15.961  0.00  0.00    +0.000 C 
ENDROOT
BRANCH   1   6
ATOM      2  C   UNL     1      43.992   2.847  12.430  0.00  0.00    +0.000 C 
ATOM      3  C   UNL     1      44.998   3.965  12.450  0.00  0.00    +0.000 A 
ATOM      4  N   UNL     1      45.703   4.111  13.608  0.00  0.00    +0.000 NA
ATOM      5  C   UNL     1      46.605   5.109  13.708  0.00  0.00    +0.000 A 
ATOM      6  N   UNL     1      47.308   5.327  14.903  0.00  0.00    +0.000 N 
ATOM      7  C   UNL     1      46.815   5.995  12.655  0.00  0.00    +0.000 A 
ATOM      8  C   UNL     1      46.094   5.847  11.470  0.00  0.00    +0.000 A 
ATOM      9  C   UNL     1      45.164   4.816  11.358  0.00  0.00    +0.000 A 
ATOM     10  H   UNL     1      48.303   5.398  14.706  0.00  0.00    +0.000 HD
BRANCH   9  11
ATOM     11  C   UNL     1      44.406   4.663  10.151  0.00  0.00    +0.000 C 
ATOM     12  N   UNL     1      43.789   4.537   9.177  0.00  0.00    +0.000 NA
ENDBRANCH   9  11
ENDBRANCH   1   6
BRANCH   1  13
ATOM     13  C   UNL     1      48.112   4.436  17.012  0.00  0.00    +0.000 A 
ATOM     14  C   UNL     1      48.058   5.371  18.036  0.00  0.00    +0.000 A 
ATOM     15  N   UNL     1      49.001   5.497  18.993  0.00  0.00    +0.000 NA
ATOM     16  C   UNL     1      50.066   4.660  18.917  0.00  0.00    +0.000 A 
ATOM     17  C   UNL     1      50.261   3.693  17.928  0.00  0.00    +0.000 A 
ATOM     18  C   UNL     1      49.236   3.595  16.971  0.00  0.00    +0.000 A 
BRANCH  17  19
ATOM     19  C   UNL     1      51.474   2.854  17.867  0.00  0.00    +0.000 A 
ATOM     20  C   UNL     1      51.435   1.503  17.491  0.00  0.00    +0.000 A 
ATOM     21  C   UNL     1      52.608   0.753  17.392  0.00  0.00    +0.000 A 
ATOM     22  C   UNL     1      53.809   1.370  17.689  0.00  0.00    +0.000 A 
ATOM     23  N   UNL     1      53.907   2.657  18.074  0.00  0.00    +0.000 NA
ATOM     24  C   UNL     1      52.748   3.360  18.148  0.00  0.00    +0.000 A 
ENDBRANCH  17  19
ENDBRANCH   1  13
TORSDOF 4
ENDMDL
