MODEL 1
REMARK VINA RESULT:    -8.661      0.000      0.000
REMARK INTER + INTRA:         -11.276
REMARK INTER:                 -10.686
REMARK INTRA:                  -0.590
REMARK UNBOUND:                -0.590
REMARK  Name = 
REMARK  7 active torsions:
REMARK  status: ('A' for Active; 'I' for Inactive)
REMARK    1  A    between atoms: C_1  and  C_2
REMARK    2  A    between atoms: C_2  and  C_3
REMARK    3  A    between atoms: C_2  and  C_4
REMARK    4  A    between atoms: C_2  and  C_5
REMARK    5  A    between atoms: C_7  and  C_8
REMARK    6  A    between atoms: N_13  and  C_14
REMARK    7  A    between atoms: C_14  and  C_15
REMARK                            x       y       z     vdW  Elec       q    Type
REMARK                         _______ _______ _______ _____ _____    ______ ____
ROOT
ATOM      1  C   UNL     1      46.433   7.300  12.433  0.00  0.00    +0.000 A 
ATOM      2  C   UNL     1      46.802   6.384  13.392  0.00  0.00    +0.000 A 
ATOM      3  C   UNL     1      46.451   5.081  13.158  0.00  0.00    +0.000 A 
ATOM      4  N   UNL     1      45.766   4.659  12.072  0.00  0.00    +0.000 NA
ATOM      5  C   UNL     1      45.430   5.608  11.196  0.00  0.00    +0.000 A 
ATOM      6  N   UNL     1      44.771   5.273  10.038  0.00  0.00    +0.000 N 
ATOM      7  N   UNL     1      45.732   6.911  11.341  0.00  0.00    +0.000 NA
ATOM      8  H   UNL     1      44.428   6.056   9.508  0.00  0.00    +0.000 HD
ENDROOT
BRANCH   3   9
ATOM      9  C   UNL     1      46.868   4.049  14.154  0.00  0.00    +0.000 C 
ATOM     10  N   UNL     1      46.840   4.424  15.465  0.00  0.00    +0.000 N 
ATOM     11  O   UNL     1      47.214   2.921  13.818  0.00  0.00    +0.000 OA
ATOM     12  H   UNL     1      46.525   5.351  15.728  0.00  0.00    +0.000 HD
ATOM     13  H   UNL     1      47.091   3.745  16.170  0.00  0.00    +0.000 HD
ENDBRANCH   3   9
BRANCH   1  15
ATOM     14  C   UNL     1      47.239   9.031  14.047  0.00  0.00    +0.000 C 
ATOM     15  C   UNL     1      46.875   8.763  12.571  0.00  0.00    +0.000 C 
ATOM     16  C   UNL     1      45.734   9.709  12.143  0.00  0.00    +0.000 C 
ATOM     17  C   UNL     1      48.109   9.098  11.707  0.00  0.00    +0.000 C 
ENDBRANCH   1  15
BRANCH   6  18
ATOM     18  C   UNL     1      44.352   3.922   9.775  0.00  0.00    +0.000 C 
BRANCH  18  19
ATOM     19  C   UNL     1      45.282   3.268   8.770  0.00  0.00    +0.000 A 
ATOM     20  C   UNL     1      45.973   4.020   7.798  0.00  0.00    +0.000 A 
ATOM     21  C   UNL     1      46.839   3.388   6.896  0.00  0.00    +0.000 A 
ATOM     22  C   UNL     1      47.038   2.013   6.972  0.00  0.00    +0.000 A 
ATOM     23  F   UNL     1      47.895   1.423   6.127  0.00  0.00    +0.000 F 
ATOM     24  C   UNL     1      46.364   1.263   7.924  0.00  0.00    +0.000 A 
ATOM     25  F   UNL     1      46.565  -0.057   8.011  0.00  0.00    +0.000 F 
ATOM     26  C   UNL     1      45.483   1.881   8.813  0.00  0.00    +0.000 A 
ENDBRANCH  18  19
ENDBRANCH   6  18
TORSDOF 4
ENDMDL
MODEL 2
REMARK VINA RESULT:    -8.419      0.758      1.717
REMARK INTER + INTRA:         -10.978
REMARK INTER:                 -10.389
REMARK INTRA:                  -0.589
REMARK UNBOUND:                -0.590
REMARK  Name = 
REMARK  7 active torsions:
REMARK  status: ('A' for Active; 'I' for Inactive)
REMARK    1  A    between atoms: C_1  and  C_2
REMARK    2  A    between atoms: C_2  and  C_3
REMARK    3  A    between atoms: C_2  and  C_4
REMARK    4  A    between atoms: C_2  and  C_5
REMARK    5  A    between atoms: C_7  and  C_8
REMARK    6  A    between atoms: N_13  and  C_14
REMARK    7  A    between atoms: C_14  and  C_15
REMARK                            x       y       z     vdW  Elec       q    Type
REMARK                         _______ _______ _______ _____ _____    ______ ____
ROOT
ATOM      1  C   UNL     1      46.814   7.382  12.538  0.00  0.00    +0.000 A 
ATOM      2  C   UNL     1      47.110   6.420  13.477  0.00  0.00    +0.000 A 
ATOM      3  C   UNL     1      46.561   5.182  13.276  0.00  0.00    +0.000 A 
ATOM      4  N   UNL     1      45.752   4.865  12.240  0.00  0.00    +0.000 NA
ATOM      5  C   UNL     1      45.500   5.855  11.381  0.00  0.00    +0.000 A 
ATOM      6  N   UNL     1      44.726   5.620  10.270  0.00  0.00    +0.000 N 
ATOM      7  N   UNL     1      45.995   7.100  11.496  0.00  0.00    +0.000 NA
ATOM      8  H   UNL     1      44.465   6.445   9.758  0.00  0.00    +0.000 HD
ENDROOT
BRANCH   3   9
ATOM      9  C   UNL     1      46.889   4.099  14.251  0.00  0.00    +0.000 C 
ATOM     10  N   UNL     1      46.799   4.423  15.572  0.00  0.00    +0.000 N 
ATOM     11  O   UNL     1      47.218   2.974  13.889  0.00  0.00    +0.000 OA
ATOM     12  H   UNL     1      46.498   5.350  15.855  0.00  0.00    +0.000 HD
ATOM     13  H   UNL     1      46.989   3.709  16.262  0.00  0.00    +0.000 HD
ENDBRANCH   3   9
BRANCH   1  15
ATOM     14  C   UNL     1      46.457   9.827  12.156  0.00  0.00    +0.000 C 
ATOM     15  C   UNL     1      47.470   8.766  12.636  0.00  0.00    +0.000 C 
ATOM     16  C   UNL     1      48.733   8.823  11.751  0.00  0.00    +0.000 C 
ATOM     17  C   UNL     1      47.892   9.126  14.076  0.00  0.00    +0.000 C 
ENDBRANCH   1  15
BRANCH   6  18
ATOM     18  C   UNL     1      44.101   4.344  10.045  0.00  0.00    +0.000 C 
BRANCH  18  19
ATOM     19  C   UNL     1      44.943   3.503   9.104  0.00  0.00    +0.000 A 
ATOM     20  C   UNL     1      45.123   2.118   9.304  0.00  0.00    +0.000 A 
ATOM     21  C   UNL     1      45.891   1.367   8.405  0.00  0.00    +0.000 A 
ATOM     22  C   UNL     1      46.462   1.981   7.296  0.00  0.00    +0.000 A 
ATOM     23  F   UNL     1      47.165   1.246   6.423  0.00  0.00    +0.000 F 
ATOM     24  C   UNL     1      46.290   3.342   7.088  0.00  0.00    +0.000 A 
ATOM     25  F   UNL     1      46.823   3.934   6.012  0.00  0.00    +0.000 F 
ATOM     26  C   UNL     1      45.544   4.103   7.989  0.00  0.00    +0.000 A 
ENDBRANCH  18  19
ENDBRANCH   6  18
TORSDOF 4
ENDMDL
MODEL 3
REMARK VINA RESULT:    -7.517      1.801      2.549
REMARK INTER + INTRA:          -9.865
REMARK INTER:                  -9.304
REMARK INTRA:                  -0.561
REMARK UNBOUND:                -0.590
REMARK  Name = 
REMARK  7 active torsions:
REMARK  status: ('A' for Active; 'I' for Inactive)
REMARK    1  A    between atoms: C_1  and  C_2
REMARK    2  A    between atoms: C_2  and  C_3
REMARK    3  A    between atoms: C_2  and  C_4
REMARK    4  A    between atoms: C_2  and  C_5
REMARK    5  A    between atoms: C_7  and  C_8
REMARK    6  A    between atoms: N_13  and  C_14
REMARK    7  A    between atoms: C_14  and  C_15
REMARK                            x       y       z     vdW  Elec       q    Type
REMARK                         _______ _______ _______ _____ _____    ______ ____
ROOT
ATOM      1  C   UNL     1      46.571   6.545  12.448  0.00  0.00    +0.000 A 
ATOM      2  C   UNL     1      45.538   5.935  13.122  0.00  0.00    +0.000 A 
ATOM      3  C   UNL     1      44.686   5.171  12.369  0.00  0.00    +0.000 A 
ATOM      4  N   UNL     1      44.793   5.001  11.033  0.00  0.00    +0.000 NA
ATOM      5  C   UNL     1      45.810   5.638  10.449  0.00  0.00    +0.000 A 
ATOM      6  N   UNL     1      46.031   5.490   9.101  0.00  0.00    +0.000 N 
ATOM      7  N   UNL     1      46.697   6.407  11.106  0.00  0.00    +0.000 NA
ATOM      8  H   UNL     1      46.721   6.113   8.718  0.00  0.00    +0.000 HD
ENDROOT
BRANCH   3   9
ATOM      9  C   UNL     1      43.574   4.459  13.068  0.00  0.00    +0.000 C 
ATOM     10  N   UNL     1      43.677   3.101  13.147  0.00  0.00    +0.000 N 
ATOM     11  O   UNL     1      42.620   5.057  13.552  0.00  0.00    +0.000 OA
ATOM     12  H   UNL     1      44.488   2.624  12.766  0.00  0.00    +0.000 HD
ATOM     13  H   UNL     1      42.958   2.586  13.635  0.00  0.00    +0.000 HD
ENDBRANCH   3   9
BRANCH   1  15
ATOM     14  C   UNL     1      48.810   7.648  12.292  0.00  0.00    +0.000 C 
ATOM     15  C   UNL     1      47.626   7.336  13.233  0.00  0.00    +0.000 C 
ATOM     16  C   UNL     1      48.129   6.510  14.436  0.00  0.00    +0.000 C 
ATOM     17  C   UNL     1      47.086   8.675  13.779  0.00  0.00    +0.000 C 
ENDBRANCH   1  15
BRANCH   6  18
ATOM     18  C   UNL     1      45.136   4.728   8.272  0.00  0.00    +0.000 C 
BRANCH  18  19
ATOM     19  C   UNL     1      45.668   3.321   8.077  0.00  0.00    +0.000 A 
ATOM     20  C   UNL     1      45.091   2.211   8.729  0.00  0.00    +0.000 A 
ATOM     21  C   UNL     1      45.594   0.922   8.513  0.00  0.00    +0.000 A 
ATOM     22  C   UNL     1      46.654   0.728   7.634  0.00  0.00    +0.000 A 
ATOM     23  F   UNL     1      47.105  -0.514   7.408  0.00  0.00    +0.000 F 
ATOM     24  C   UNL     1      47.230   1.811   6.986  0.00  0.00    +0.000 A 
ATOM     25  F   UNL     1      48.238   1.627   6.127  0.00  0.00    +0.000 F 
ATOM     26  C   UNL     1      46.749   3.102   7.211  0.00  0.00    +0.000 A 
ENDBRANCH  18  19
ENDBRANCH   6  18
TORSDOF 4
ENDMDL
MODEL 4
REMARK VINA RESULT:    -7.375      2.271      4.067
REMARK INTER + INTRA:          -9.690
REMARK INTER:                  -9.100
REMARK INTRA:                  -0.589
REMARK UNBOUND:                -0.590
REMARK  Name = 
REMARK  7 active torsions:
REMARK  status: ('A' for Active; 'I' for Inactive)
REMARK    1  A    between atoms: C_1  and  C_2
REMARK    2  A    between atoms: C_2  and  C_3
REMARK    3  A    between atoms: C_2  and  C_4
REMARK    4  A    between atoms: C_2  and  C_5
REMARK    5  A    between atoms: C_7  and  C_8
REMARK    6  A    between atoms: N_13  and  C_14
REMARK    7  A    between atoms: C_14  and  C_15
REMARK                            x       y       z     vdW  Elec       q    Type
REMARK                         _______ _______ _______ _____ _____    ______ ____
ROOT
ATOM      1  C   UNL     1      47.389   4.582  15.298  0.00  0.00    +0.000 A 
ATOM      2  C   UNL     1      47.841   5.833  14.946  0.00  0.00    +0.000 A 
ATOM      3  C   UNL     1      47.180   6.453  13.920  0.00  0.00    +0.000 A 
ATOM      4  N   UNL     1      46.144   5.911  13.240  0.00  0.00    +0.000 NA
ATOM      5  C   UNL     1      45.776   4.689  13.629  0.00  0.00    +0.000 A 
ATOM      6  N   UNL     1      44.705   4.071  13.031  0.00  0.00    +0.000 N 
ATOM      7  N   UNL     1      46.364   4.004  14.626  0.00  0.00    +0.000 NA
ATOM      8  H   UNL     1      44.586   3.104  13.278  0.00  0.00    +0.000 HD
ENDROOT
BRANCH   3   9
ATOM      9  C   UNL     1      47.612   7.830  13.533  0.00  0.00    +0.000 C 
ATOM     10  N   UNL     1      46.852   8.860  14.003  0.00  0.00    +0.000 N 
ATOM     11  O   UNL     1      48.600   8.031  12.834  0.00  0.00    +0.000 OA
ATOM     12  H   UNL     1      46.054   8.678  14.603  0.00  0.00    +0.000 HD
ATOM     13  H   UNL     1      47.128   9.807  13.784  0.00  0.00    +0.000 HD
ENDBRANCH   3   9
BRANCH   1  15
ATOM     14  C   UNL     1      46.930   3.700  17.592  0.00  0.00    +0.000 C 
ATOM     15  C   UNL     1      48.011   3.861  16.503  0.00  0.00    +0.000 C 
ATOM     16  C   UNL     1      49.190   4.682  17.065  0.00  0.00    +0.000 C 
ATOM     17  C   UNL     1      48.544   2.458  16.149  0.00  0.00    +0.000 C 
ENDBRANCH   1  15
BRANCH   6  18
ATOM     18  C   UNL     1      44.010   4.674  11.925  0.00  0.00    +0.000 C 
BRANCH  18  19
ATOM     19  C   UNL     1      44.563   4.157  10.610  0.00  0.00    +0.000 A 
ATOM     20  C   UNL     1      45.256   4.997   9.713  0.00  0.00    +0.000 A 
ATOM     21  C   UNL     1      45.771   4.484   8.515  0.00  0.00    +0.000 A 
ATOM     22  C   UNL     1      45.620   3.134   8.216  0.00  0.00    +0.000 A 
ATOM     23  F   UNL     1      46.146   2.646   7.084  0.00  0.00    +0.000 F 
ATOM     24  C   UNL     1      44.941   2.298   9.091  0.00  0.00    +0.000 A 
ATOM     25  F   UNL     1      44.808   0.995   8.815  0.00  0.00    +0.000 F 
ATOM     26  C   UNL     1      44.406   2.804  10.276  0.00  0.00    +0.000 A 
ENDBRANCH  18  19
ENDBRANCH   6  18
TORSDOF 4
ENDMDL
MODEL 5
REMARK VINA RESULT:    -7.327      1.641      2.590
REMARK INTER + INTRA:          -9.631
REMARK INTER:                  -9.217
REMARK INTRA:                  -0.413
REMARK UNBOUND:                -0.590
REMARK  Name = 
REMARK  7 active torsions:
REMARK  status: ('A' for Active; 'I' for Inactive)
REMARK    1  A    between atoms: C_1  and  C_2
REMARK    2  A    between atoms: C_2  and  C_3
REMARK    3  A    between atoms: C_2  and  C_4
REMARK    4  A    between atoms: C_2  and  C_5
REMARK    5  A    between atoms: C_7  and  C_8
REMARK    6  A    between atoms: N_13  and  C_14
REMARK    7  A    between atoms: C_14  and  C_15
REMARK                            x       y       z     vdW  Elec       q    Type
REMARK                         _______ _______ _______ _____ _____    ______ ____
ROOT
ATOM      1  C   UNL     1      48.046   7.429  12.588  0.00  0.00    +0.000 A 
ATOM      2  C   UNL     1      48.122   6.422  13.523  0.00  0.00    +0.000 A 
ATOM      3  C   UNL     1      47.079   5.534  13.549  0.00  0.00    +0.000 A 
ATOM      4  N   UNL     1      46.000   5.601  12.737  0.00  0.00    +0.000 NA
ATOM      5  C   UNL     1      45.992   6.615  11.870  0.00  0.00    +0.000 A 
ATOM      6  N   UNL     1      44.960   6.742  10.971  0.00  0.00    +0.000 N 
ATOM      7  N   UNL     1      46.970   7.532  11.771  0.00  0.00    +0.000 NA
ATOM      8  H   UNL     1      44.956   7.606  10.456  0.00  0.00    +0.000 HD
ENDROOT
BRANCH   3   9
ATOM      9  C   UNL     1      47.141   4.402  14.522  0.00  0.00    +0.000 C 
ATOM     10  N   UNL     1      47.043   4.729  15.841  0.00  0.00    +0.000 N 
ATOM     11  O   UNL     1      47.269   3.238  14.159  0.00  0.00    +0.000 OA
ATOM     12  H   UNL     1      46.909   5.695  16.123  0.00  0.00    +0.000 HD
ATOM     13  H   UNL     1      47.055   3.988  16.529  0.00  0.00    +0.000 HD
ENDBRANCH   3   9
BRANCH   1  15
ATOM     14  C   UNL     1      50.237   7.794  11.440  0.00  0.00    +0.000 C 
ATOM     15  C   UNL     1      49.220   8.405  12.427  0.00  0.00    +0.000 C 
ATOM     16  C   UNL     1      49.904   8.647  13.789  0.00  0.00    +0.000 C 
ATOM     17  C   UNL     1      48.783   9.777  11.873  0.00  0.00    +0.000 C 
ENDBRANCH   1  15
BRANCH   6  18
ATOM     18  C   UNL     1      43.830   5.853  10.993  0.00  0.00    +0.000 C 
BRANCH  18  19
ATOM     19  C   UNL     1      44.192   4.524  10.355  0.00  0.00    +0.000 A 
ATOM     20  C   UNL     1      43.829   3.294  10.943  0.00  0.00    +0.000 A 
ATOM     21  C   UNL     1      44.162   2.085  10.318  0.00  0.00    +0.000 A 
ATOM     22  C   UNL     1      44.833   2.094   9.100  0.00  0.00    +0.000 A 
ATOM     23  F   UNL     1      45.115   0.932   8.494  0.00  0.00    +0.000 F 
ATOM     24  C   UNL     1      45.194   3.297   8.512  0.00  0.00    +0.000 A 
ATOM     25  F   UNL     1      45.824   3.311   7.332  0.00  0.00    +0.000 F 
ATOM     26  C   UNL     1      44.885   4.507   9.137  0.00  0.00    +0.000 A 
ENDBRANCH  18  19
ENDBRANCH   6  18
TORSDOF 4
ENDMDL
MODEL 6
REMARK VINA RESULT:    -7.261      2.177      3.268
REMARK INTER + INTRA:          -9.550
REMARK INTER:                  -8.996
REMARK INTRA:                  -0.554
REMARK UNBOUND:                -0.590
REMARK  Name = 
REMARK  7 active torsions:
REMARK  status: ('A' for Active; 'I' for Inactive)
REMARK    1  A    between atoms: C_1  and  C_2
REMARK    2  A    between atoms: C_2  and  C_3
REMARK    3  A    between atoms: C_2  and  C_4
REMARK    4  A    between atoms: C_2  and  C_5
REMARK    5  A    between atoms: C_7  and  C_8
REMARK    6  A    between atoms: N_13  and  C_14
REMARK    7  A    between atoms: C_14  and  C_15
REMARK                            x       y       z     vdW  Elec       q    Type
REMARK                         _______ _______ _______ _____ _____    ______ ____
ROOT
ATOM      1  C   UNL     1      47.140   7.227  13.238  0.00  0.00    +0.000 A 
ATOM      2  C   UNL     1      46.394   8.284  12.770  0.00  0.00    +0.000 A 
ATOM      3  C   UNL     1      45.376   7.976  11.907  0.00  0.00    +0.000 A 
ATOM      4  N   UNL     1      45.083   6.725  11.488  0.00  0.00    +0.000 NA
ATOM      5  C   UNL     1      45.862   5.756  11.973  0.00  0.00    +0.000 A 
ATOM      6  N   UNL     1      45.615   4.446  11.642  0.00  0.00    +0.000 N 
ATOM      7  N   UNL     1      46.881   5.963  12.825  0.00  0.00    +0.000 NA
ATOM      8  H   UNL     1      46.329   3.799  11.929  0.00  0.00    +0.000 HD
ENDROOT
BRANCH   3   9
ATOM      9  C   UNL     1      44.516   9.090  11.406  0.00  0.00    +0.000 C 
ATOM     10  N   UNL     1      43.329   8.733  10.837  0.00  0.00    +0.000 N 
ATOM     11  O   UNL     1      44.850  10.266  11.503  0.00  0.00    +0.000 OA
ATOM     12  H   UNL     1      43.055   7.757  10.790  0.00  0.00    +0.000 HD
ATOM     13  H   UNL     1      42.708   9.460  10.510  0.00  0.00    +0.000 HD
ENDBRANCH   3   9
BRANCH   1  15
ATOM     14  C   UNL     1      49.594   7.578  13.565  0.00  0.00    +0.000 C 
ATOM     15  C   UNL     1      48.234   7.475  14.286  0.00  0.00    +0.000 C 
ATOM     16  C   UNL     1      48.276   6.313  15.301  0.00  0.00    +0.000 C 
ATOM     17  C   UNL     1      48.015   8.780  15.080  0.00  0.00    +0.000 C 
ENDBRANCH   1  15
BRANCH   6  18
ATOM     18  C   UNL     1      44.581   4.087  10.709  0.00  0.00    +0.000 C 
BRANCH  18  19
ATOM     19  C   UNL     1      45.188   3.502   9.448  0.00  0.00    +0.000 A 
ATOM     20  C   UNL     1      45.660   4.322   8.401  0.00  0.00    +0.000 A 
ATOM     21  C   UNL     1      46.233   3.751   7.257  0.00  0.00    +0.000 A 
ATOM     22  C   UNL     1      46.360   2.369   7.160  0.00  0.00    +0.000 A 
ATOM     23  F   UNL     1      46.942   1.835   6.077  0.00  0.00    +0.000 F 
ATOM     24  C   UNL     1      45.900   1.553   8.183  0.00  0.00    +0.000 A 
ATOM     25  F   UNL     1      46.036   0.225   8.101  0.00  0.00    +0.000 F 
ATOM     26  C   UNL     1      45.309   2.112   9.317  0.00  0.00    +0.000 A 
ENDBRANCH  18  19
ENDBRANCH   6  18
TORSDOF 4
ENDMDL
MODEL 7
REMARK VINA RESULT:    -6.559      3.286      6.092
REMARK INTER + INTRA:          -8.683
REMARK INTER:                  -8.126
REMARK INTRA:                  -0.557
REMARK UNBOUND:                -0.590
REMARK  Name = 
REMARK  7 active torsions:
REMARK  status: ('A' for Active; 'I' for Inactive)
REMARK    1  A    between atoms: C_1  and  C_2
REMARK    2  A    between atoms: C_2  and  C_3
REMARK    3  A    between atoms: C_2  and  C_4
REMARK    4  A    between atoms: C_2  and  C_5
REMARK    5  A    between atoms: C_7  and  C_8
REMARK    6  A    between atoms: N_13  and  C_14
REMARK    7  A    between atoms: C_14  and  C_15
REMARK                            x       y       z     vdW  Elec       q    Type
REMARK                         _______ _______ _______ _____ _____    ______ ____
ROOT
ATOM      1  C   UNL     1      45.344   4.962  11.800  0.00  0.00    +0.000 A 
ATOM      2  C   UNL     1      45.763   4.244  12.896  0.00  0.00    +0.000 A 
ATOM      3  C   UNL     1      46.744   4.816  13.661  0.00  0.00    +0.000 A 
ATOM      4  N   UNL     1      47.319   6.010  13.396  0.00  0.00    +0.000 NA
ATOM      5  C   UNL     1      46.871   6.638  12.308  0.00  0.00    +0.000 A 
ATOM      6  N   UNL     1      47.360   7.879  11.980  0.00  0.00    +0.000 N 
ATOM      7  N   UNL     1      45.911   6.155  11.499  0.00  0.00    +0.000 NA
ATOM      8  H   UNL     1      47.080   8.215  11.074  0.00  0.00    +0.000 HD
ENDROOT
BRANCH   3   9
ATOM      9  C   UNL     1      47.200   4.087  14.883  0.00  0.00    +0.000 C 
ATOM     10  N   UNL     1      47.148   4.778  16.057  0.00  0.00    +0.000 N 
ATOM     11  O   UNL     1      47.597   2.927  14.840  0.00  0.00    +0.000 OA
ATOM     12  H   UNL     1      46.790   5.727  16.080  0.00  0.00    +0.000 HD
ATOM     13  H   UNL     1      47.424   4.310  16.910  0.00  0.00    +0.000 HD
ENDBRANCH   3   9
BRANCH   1  15
ATOM     14  C   UNL     1      43.002   5.429  11.059  0.00  0.00    +0.000 C 
ATOM     15  C   UNL     1      44.179   4.438  10.949  0.00  0.00    +0.000 C 
ATOM     16  C   UNL     1      43.732   3.049  11.452  0.00  0.00    +0.000 C 
ATOM     17  C   UNL     1      44.546   4.298   9.456  0.00  0.00    +0.000 C 
ENDBRANCH   1  15
BRANCH   6  18
ATOM     18  C   UNL     1      48.417   8.495  12.736  0.00  0.00    +0.000 C 
BRANCH  18  19
ATOM     19  C   UNL     1      49.647   8.683  11.868  0.00  0.00    +0.000 A 
ATOM     20  C   UNL     1      50.117   9.964  11.512  0.00  0.00    +0.000 A 
ATOM     21  C   UNL     1      51.267  10.104  10.724  0.00  0.00    +0.000 A 
ATOM     22  C   UNL     1      51.965   8.975  10.308  0.00  0.00    +0.000 A 
ATOM     23  F   UNL     1      53.084   9.121   9.584  0.00  0.00    +0.000 F 
ATOM     24  C   UNL     1      51.513   7.710  10.652  0.00  0.00    +0.000 A 
ATOM     25  F   UNL     1      52.191   6.622  10.269  0.00  0.00    +0.000 F 
ATOM     26  C   UNL     1      50.356   7.560  11.419  0.00  0.00    +0.000 A 
ENDBRANCH  18  19
ENDBRANCH   6  18
TORSDOF 4
ENDMDL
MODEL 8
REMARK VINA RESULT:    -6.521      4.814      7.645
REMARK INTER + INTRA:          -8.636
REMARK INTER:                  -8.050
REMARK INTRA:                  -0.586
REMARK UNBOUND:                -0.590
REMARK  Name = 
REMARK  7 active torsions:
REMARK  status: ('A' for Active; 'I' for Inactive)
REMARK    1  A    between atoms: C_1  and  C_2
REMARK    2  A    between atoms: C_2  and  C_3
REMARK    3  A    between atoms: C_2  and  C_4
REMARK    4  A    between atoms: C_2  and  C_5
REMARK    5  A    between atoms: C_7  and  C_8
REMARK    6  A    between atoms: N_13  and  C_14
REMARK    7  A    between atoms: C_14  and  C_15
REMARK                            x       y       z     vdW  Elec       q    Type
REMARK                         _______ _______ _______ _____ _____    ______ ____
ROOT
ATOM      1  C   UNL     1      45.949   5.044  13.077  0.00  0.00    +0.000 A 
ATOM      2  C   UNL     1      46.870   5.887  12.497  0.00  0.00    +0.000 A 
ATOM      3  C   UNL     1      47.931   6.260  13.279  0.00  0.00    +0.000 A 
ATOM      4  N   UNL     1      48.111   5.868  14.560  0.00  0.00    +0.000 NA
ATOM      5  C   UNL     1      47.167   5.065  15.055  0.00  0.00    +0.000 A 
ATOM      6  N   UNL     1      47.283   4.576  16.334  0.00  0.00    +0.000 N 
ATOM      7  N   UNL     1      46.093   4.646  14.364  0.00  0.00    +0.000 NA
ATOM      8  H   UNL     1      46.466   4.102  16.678  0.00  0.00    +0.000 HD
ENDROOT
BRANCH   3   9
ATOM      9  C   UNL     1      48.975   7.142  12.675  0.00  0.00    +0.000 C 
ATOM     10  N   UNL     1      50.101   7.346  13.416  0.00  0.00    +0.000 N 
ATOM     11  O   UNL     1      48.835   7.655  11.570  0.00  0.00    +0.000 OA
ATOM     12  H   UNL     1      50.213   6.891  14.317  0.00  0.00    +0.000 HD
ATOM     13  H   UNL     1      50.841   7.916  13.030  0.00  0.00    +0.000 HD
ENDBRANCH   3   9
BRANCH   1  15
ATOM     14  C   UNL     1      44.870   5.110  10.823  0.00  0.00    +0.000 C 
ATOM     15  C   UNL     1      44.785   4.500  12.237  0.00  0.00    +0.000 C 
ATOM     16  C   UNL     1      43.437   4.881  12.883  0.00  0.00    +0.000 C 
ATOM     17  C   UNL     1      44.818   2.963  12.097  0.00  0.00    +0.000 C 
ENDBRANCH   1  15
BRANCH   6  18
ATOM     18  C   UNL     1      48.362   4.975  17.197  0.00  0.00    +0.000 C 
BRANCH  18  19
ATOM     19  C   UNL     1      49.415   3.884  17.265  0.00  0.00    +0.000 A 
ATOM     20  C   UNL     1      49.128   2.552  16.902  0.00  0.00    +0.000 A 
ATOM     21  C   UNL     1      50.128   1.572  16.958  0.00  0.00    +0.000 A 
ATOM     22  C   UNL     1      51.417   1.915  17.351  0.00  0.00    +0.000 A 
ATOM     23  F   UNL     1      52.374   0.977  17.367  0.00  0.00    +0.000 F 
ATOM     24  C   UNL     1      51.711   3.223  17.709  0.00  0.00    +0.000 A 
ATOM     25  F   UNL     1      52.953   3.562  18.071  0.00  0.00    +0.000 F 
ATOM     26  C   UNL     1      50.716   4.202  17.677  0.00  0.00    +0.000 A 
ENDBRANCH  18  19
ENDBRANCH   6  18
TORSDOF 4
ENDMDL
MODEL 9
REMARK VINA RESULT:    -6.456      3.328      5.200
REMARK INTER + INTRA:          -8.556
REMARK INTER:                  -8.083
REMARK INTRA:                  -0.473
REMARK UNBOUND:                -0.590
REMARK  Name = 
REMARK  7 active torsions:
REMARK  status: ('A' for Active; 'I' for Inactive)
REMARK    1  A    between atoms: C_1  and  C_2
REMARK    2  A    between atoms: C_2  and  C_3
REMARK    3  A    between atoms: C_2  and  C_4
REMARK    4  A    between atoms: C_2  and  C_5
REMARK    5  A    between atoms: C_7  and  C_8
REMARK    6  A    between atoms: N_13  and  C_14
REMARK    7  A    between atoms: C_14  and  C_15
REMARK                            x       y       z     vdW  Elec       q    Type
REMARK                         _______ _______ _______ _____ _____    ______ ____
ROOT
ATOM      1  C   UNL     1      48.475   4.773  16.464  0.00  0.00    +0.000 A 
ATOM      2  C   UNL     1      49.339   5.832  16.304  0.00  0.00    +0.000 A 
ATOM      3  C   UNL     1      49.077   6.680  15.261  0.00  0.00    +0.000 A 
ATOM      4  N   UNL     1      48.052   6.529  14.393  0.00  0.00    +0.000 NA
ATOM      5  C   UNL     1      47.269   5.469  14.604  0.00  0.00    +0.000 A 
ATOM      6  N   UNL     1      46.173   5.254  13.804  0.00  0.00    +0.000 N 
ATOM      7  N   UNL     1      47.447   4.585  15.602  0.00  0.00    +0.000 NA
ATOM      8  H   UNL     1      45.725   4.364  13.935  0.00  0.00    +0.000 HD
ENDROOT
BRANCH   3   9
ATOM      9  C   UNL     1      49.968   7.866  15.076  0.00  0.00    +0.000 C 
ATOM     10  N   UNL     1      51.147   7.645  14.429  0.00  0.00    +0.000 N 
ATOM     11  O   UNL     1      49.658   8.982  15.478  0.00  0.00    +0.000 OA
ATOM     12  H   UNL     1      51.375   6.721  14.077  0.00  0.00    +0.000 HD
ATOM     13  H   UNL     1      51.764   8.428  14.262  0.00  0.00    +0.000 HD
ENDBRANCH   3   9
BRANCH   1  15
ATOM     14  C   UNL     1      49.962   3.054  17.507  0.00  0.00    +0.000 C 
ATOM     15  C   UNL     1      48.640   3.834  17.667  0.00  0.00    +0.000 C 
ATOM     16  C   UNL     1      47.461   2.841  17.735  0.00  0.00    +0.000 C 
ATOM     17  C   UNL     1      48.692   4.590  19.011  0.00  0.00    +0.000 C 
ENDBRANCH   1  15
BRANCH   6  18
ATOM     18  C   UNL     1      45.888   6.100  12.676  0.00  0.00    +0.000 C 
BRANCH  18  19
ATOM     19  C   UNL     1      45.445   5.265  11.489  0.00  0.00    +0.000 A 
ATOM     20  C   UNL     1      45.816   5.595  10.168  0.00  0.00    +0.000 A 
ATOM     21  C   UNL     1      45.406   4.793   9.096  0.00  0.00    +0.000 A 
ATOM     22  C   UNL     1      44.649   3.651   9.332  0.00  0.00    +0.000 A 
ATOM     23  F   UNL     1      44.291   2.871   8.302  0.00  0.00    +0.000 F 
ATOM     24  C   UNL     1      44.278   3.315  10.626  0.00  0.00    +0.000 A 
ATOM     25  F   UNL     1      43.564   2.209  10.860  0.00  0.00    +0.000 F 
ATOM     26  C   UNL     1      44.664   4.121  11.700  0.00  0.00    +0.000 A 
ENDBRANCH  18  19
ENDBRANCH   6  18
TORSDOF 4
ENDMDL
