MODEL 1
REMARK VINA RESULT:    -7.144      0.000      0.000
REMARK INTER + INTRA:         -12.072
REMARK INTER:                 -10.485
REMARK INTRA:                  -1.586
REMARK UNBOUND:                -1.586
REMARK  Name = 
REMARK  10 active torsions:
REMARK  status: ('A' for Active; 'I' for Inactive)
REMARK    1  A    between atoms: C_2  and  C_3
REMARK    2  A    between atoms: C_4  and  C_5
REMARK    3  A    between atoms: C_7  and  C_8
REMARK    4  A    between atoms: C_13  and  N_14
REMARK    5  A    between atoms: N_14  and  C_15
REMARK    6  A    between atoms: C_15  and  C_16
REMARK    7  A    between atoms: C_16  and  C_17
REMARK    8  A    between atoms: C_16  and  C_18
REMARK    9  A    between atoms: C_16  and  C_19
REMARK   10  A    between atoms: C_23  and  C_24
REMARK                            x       y       z     vdW  Elec       q    Type
REMARK                         _______ _______ _______ _____ _____    ______ ____
ROOT
ATOM      1  N   UNL     1      45.052   5.209  13.004  0.00  0.00    +0.000 N 
ATOM      2  H   UNL     1      44.205   5.708  12.754  0.00  0.00    +0.000 HD
ENDROOT
BRANCH   1   8
ATOM      3  C   UNL     1      46.034   7.331  12.264  0.00  0.00    +0.000 A 
ATOM      4  C   UNL     1      47.184   8.125  12.117  0.00  0.00    +0.000 A 
ATOM      5  C   UNL     1      48.436   7.634  12.494  0.00  0.00    +0.000 A 
ATOM      6  C   UNL     1      48.480   6.346  12.993  0.00  0.00    +0.000 A 
ATOM      7  N   UNL     1      47.395   5.544  13.129  0.00  0.00    +0.000 NA
ATOM      8  C   UNL     1      46.181   6.018  12.767  0.00  0.00    +0.000 A 
BRANCH   5   9
ATOM      9  C   UNL     1      49.633   8.499  12.358  0.00  0.00    +0.000 C 
ATOM     10  N   UNL     1      49.618   9.530  11.459  0.00  0.00    +0.000 N 
ATOM     11  O   UNL     1      50.635   8.301  13.039  0.00  0.00    +0.000 OA
ATOM     12  H   UNL     1      48.858   9.781  10.846  0.00  0.00    +0.000 HD
ATOM     13  H   UNL     1      50.460  10.088  11.402  0.00  0.00    +0.000 HD
ENDBRANCH   5   9
BRANCH   3  15
ATOM     14  C   UNL     1      44.610   9.121  11.342  0.00  0.00    +0.000 C 
ATOM     15  C   UNL     1      44.733   7.896  11.875  0.00  0.00    +0.000 C 
BRANCH  14  17
ATOM     16  C   UNL     1      42.121  10.045  10.379  0.00  0.00    +0.000 C 
ATOM     17  C   UNL     1      43.271   9.619  10.824  0.00  0.00    +0.000 C 
ENDBRANCH  14  17
ENDBRANCH   3  15
ENDBRANCH   1   8
BRANCH   1  18
ATOM     18  C   UNL     1      45.148   3.852  12.435  0.00  0.00    +0.000 C 
BRANCH  18  19
ATOM     19  C   UNL     1      44.111   3.574  11.295  0.00  0.00    +0.000 C 
ATOM     20  C   UNL     1      43.409   2.225  11.585  0.00  0.00    +0.000 C 
ATOM     21  C   UNL     1      43.026   4.675  11.268  0.00  0.00    +0.000 C 
BRANCH  19  22
ATOM     22  C   UNL     1      44.872   3.569   9.941  0.00  0.00    +0.000 A 
ATOM     23  C   UNL     1      45.244   4.775   9.315  0.00  0.00    +0.000 A 
ATOM     24  C   UNL     1      46.013   4.789   8.145  0.00  0.00    +0.000 A 
ATOM     25  C   UNL     1      46.455   3.593   7.583  0.00  0.00    +0.000 A 
ATOM     26  C   UNL     1      46.112   2.382   8.187  0.00  0.00    +0.000 A 
ATOM     27  C   UNL     1      45.290   2.373   9.325  0.00  0.00    +0.000 A 
BRANCH  26  28
ATOM     28  C   UNL     1      46.675   1.125   7.628  0.00  0.00    +0.000 C 
ATOM     29  N   UNL     1      47.477   1.240   6.520  0.00  0.00    +0.000 N 
ATOM     30  O   UNL     1      46.393   0.026   8.084  0.00  0.00    +0.000 OA
ATOM     31  H   UNL     1      47.541   2.091   5.979  0.00  0.00    +0.000 HD
ATOM     32  H   UNL     1      47.727   0.377   6.056  0.00  0.00    +0.000 HD
ENDBRANCH  26  28
ENDBRANCH  19  22
ENDBRANCH  18  19
ENDBRANCH   1  18
TORSDOF 8
ENDMDL
MODEL 2
REMARK VINA RESULT:    -7.063      1.853      3.497
REMARK INTER + INTRA:         -11.952
REMARK INTER:                 -10.936
REMARK INTRA:                  -1.017
REMARK UNBOUND:                -1.586
REMARK  Name = 
REMARK  10 active torsions:
REMARK  status: ('A' for Active; 'I' for Inactive)
REMARK    1  A    between atoms: C_2  and  C_3
REMARK    2  A    between atoms: C_4  and  C_5
REMARK    3  A    between atoms: C_7  and  C_8
REMARK    4  A    between atoms: C_13  and  N_14
REMARK    5  A    between atoms: N_14  and  C_15
REMARK    6  A    between atoms: C_15  and  C_16
REMARK    7  A    between atoms: C_16  and  C_17
REMARK    8  A    between atoms: C_16  and  C_18
REMARK    9  A    between atoms: C_16  and  C_19
REMARK   10  A    between atoms: C_23  and  C_24
REMARK                            x       y       z     vdW  Elec       q    Type
REMARK                         _______ _______ _______ _____ _____    ______ ____
ROOT
ATOM      1  N   UNL     1      45.042   5.147  12.998  0.00  0.00    +0.000 N 
ATOM      2  H   UNL     1      44.234   5.686  12.703  0.00  0.00    +0.000 HD
ENDROOT
BRANCH   1   8
ATOM      3  C   UNL     1      47.397   5.576  13.533  0.00  0.00    +0.000 A 
ATOM      4  C   UNL     1      48.566   6.309  13.267  0.00  0.00    +0.000 A 
ATOM      5  C   UNL     1      48.564   7.313  12.297  0.00  0.00    +0.000 A 
ATOM      6  C   UNL     1      47.372   7.550  11.639  0.00  0.00    +0.000 A 
ATOM      7  N   UNL     1      46.220   6.877  11.885  0.00  0.00    +0.000 NA
ATOM      8  C   UNL     1      46.219   5.902  12.822  0.00  0.00    +0.000 A 
BRANCH   5   9
ATOM      9  C   UNL     1      49.815   8.056  12.011  0.00  0.00    +0.000 C 
ATOM     10  N   UNL     1      50.852   7.412  11.393  0.00  0.00    +0.000 N 
ATOM     11  O   UNL     1      49.932   9.239  12.321  0.00  0.00    +0.000 OA
ATOM     12  H   UNL     1      50.871   6.448  11.100  0.00  0.00    +0.000 HD
ATOM     13  H   UNL     1      51.685   7.962  11.223  0.00  0.00    +0.000 HD
ENDBRANCH   5   9
BRANCH   3  15
ATOM     14  C   UNL     1      47.510   4.773  15.862  0.00  0.00    +0.000 C 
ATOM     15  C   UNL     1      47.448   4.512  14.548  0.00  0.00    +0.000 C 
BRANCH  14  17
ATOM     16  C   UNL     1      47.344   2.695  17.767  0.00  0.00    +0.000 C 
ATOM     17  C   UNL     1      47.421   3.654  16.887  0.00  0.00    +0.000 C 
ENDBRANCH  14  17
ENDBRANCH   3  15
ENDBRANCH   1   8
BRANCH   1  18
ATOM     18  C   UNL     1      45.104   3.786  12.433  0.00  0.00    +0.000 C 
BRANCH  18  19
ATOM     19  C   UNL     1      44.089   3.544  11.266  0.00  0.00    +0.000 C 
ATOM     20  C   UNL     1      43.358   2.203  11.519  0.00  0.00    +0.000 C 
ATOM     21  C   UNL     1      43.024   4.663  11.231  0.00  0.00    +0.000 C 
BRANCH  19  22
ATOM     22  C   UNL     1      44.881   3.545   9.929  0.00  0.00    +0.000 A 
ATOM     23  C   UNL     1      45.230   4.755   9.297  0.00  0.00    +0.000 A 
ATOM     24  C   UNL     1      46.025   4.778   8.145  0.00  0.00    +0.000 A 
ATOM     25  C   UNL     1      46.516   3.589   7.608  0.00  0.00    +0.000 A 
ATOM     26  C   UNL     1      46.196   2.376   8.219  0.00  0.00    +0.000 A 
ATOM     27  C   UNL     1      45.348   2.355   9.339  0.00  0.00    +0.000 A 
BRANCH  26  28
ATOM     28  C   UNL     1      46.809   1.130   7.689  0.00  0.00    +0.000 C 
ATOM     29  N   UNL     1      47.809   1.274   6.761  0.00  0.00    +0.000 N 
ATOM     30  O   UNL     1      46.406   0.020   8.007  0.00  0.00    +0.000 OA
ATOM     31  H   UNL     1      48.004   2.153   6.301  0.00  0.00    +0.000 HD
ATOM     32  H   UNL     1      48.111   0.430   6.292  0.00  0.00    +0.000 HD
ENDBRANCH  26  28
ENDBRANCH  19  22
ENDBRANCH  18  19
ENDBRANCH   1  18
TORSDOF 8
ENDMDL
MODEL 3
REMARK VINA RESULT:    -6.867      2.527      3.740
REMARK INTER + INTRA:         -11.665
REMARK INTER:                 -10.635
REMARK INTRA:                  -1.030
REMARK UNBOUND:                -1.586
REMARK  Name = 
REMARK  10 active torsions:
REMARK  status: ('A' for Active; 'I' for Inactive)
REMARK    1  A    between atoms: C_2  and  C_3
REMARK    2  A    between atoms: C_4  and  C_5
REMARK    3  A    between atoms: C_7  and  C_8
REMARK    4  A    between atoms: C_13  and  N_14
REMARK    5  A    between atoms: N_14  and  C_15
REMARK    6  A    between atoms: C_15  and  C_16
REMARK    7  A    between atoms: C_16  and  C_17
REMARK    8  A    between atoms: C_16  and  C_18
REMARK    9  A    between atoms: C_16  and  C_19
REMARK   10  A    between atoms: C_23  and  C_24
REMARK                            x       y       z     vdW  Elec       q    Type
REMARK                         _______ _______ _______ _____ _____    ______ ____
ROOT
ATOM      1  N   UNL     1      46.399   4.615  12.725  0.00  0.00    +0.000 N 
ATOM      2  H   UNL     1      47.057   4.832  11.985  0.00  0.00    +0.000 HD
ENDROOT
BRANCH   1   8
ATOM      3  C   UNL     1      47.663   5.809  14.454  0.00  0.00    +0.000 A 
ATOM      4  C   UNL     1      48.234   5.793  15.739  0.00  0.00    +0.000 A 
ATOM      5  C   UNL     1      48.164   4.645  16.530  0.00  0.00    +0.000 A 
ATOM      6  C   UNL     1      47.530   3.544  15.984  0.00  0.00    +0.000 A 
ATOM      7  N   UNL     1      46.987   3.516  14.742  0.00  0.00    +0.000 NA
ATOM      8  C   UNL     1      47.051   4.628  13.975  0.00  0.00    +0.000 A 
BRANCH   5   9
ATOM      9  C   UNL     1      48.747   4.658  17.893  0.00  0.00    +0.000 C 
ATOM     10  N   UNL     1      48.128   3.962  18.895  0.00  0.00    +0.000 N 
ATOM     11  O   UNL     1      49.775   5.286  18.134  0.00  0.00    +0.000 OA
ATOM     12  H   UNL     1      47.281   3.421  18.815  0.00  0.00    +0.000 HD
ATOM     13  H   UNL     1      48.563   4.006  19.808  0.00  0.00    +0.000 HD
ENDBRANCH   5   9
BRANCH   3  15
ATOM     14  C   UNL     1      48.897   7.516  13.171  0.00  0.00    +0.000 C 
ATOM     15  C   UNL     1      47.740   7.047  13.664  0.00  0.00    +0.000 C 
BRANCH  14  17
ATOM     16  C   UNL     1      48.941   9.752  11.447  0.00  0.00    +0.000 C 
ATOM     17  C   UNL     1      48.921   8.719  12.243  0.00  0.00    +0.000 C 
ENDBRANCH  14  17
ENDBRANCH   3  15
ENDBRANCH   1   8
BRANCH   1  18
ATOM     18  C   UNL     1      45.583   3.411  12.480  0.00  0.00    +0.000 C 
BRANCH  18  19
ATOM     19  C   UNL     1      44.439   3.630  11.433  0.00  0.00    +0.000 C 
ATOM     20  C   UNL     1      43.371   2.527  11.632  0.00  0.00    +0.000 C 
ATOM     21  C   UNL     1      43.754   4.997  11.656  0.00  0.00    +0.000 C 
BRANCH  19  22
ATOM     22  C   UNL     1      45.070   3.596  10.014  0.00  0.00    +0.000 A 
ATOM     23  C   UNL     1      45.305   4.787   9.298  0.00  0.00    +0.000 A 
ATOM     24  C   UNL     1      45.959   4.782   8.060  0.00  0.00    +0.000 A 
ATOM     25  C   UNL     1      46.423   3.586   7.516  0.00  0.00    +0.000 A 
ATOM     26  C   UNL     1      46.215   2.391   8.208  0.00  0.00    +0.000 A 
ATOM     27  C   UNL     1      45.505   2.395   9.419  0.00  0.00    +0.000 A 
BRANCH  26  28
ATOM     28  C   UNL     1      46.803   1.141   7.659  0.00  0.00    +0.000 C 
ATOM     29  N   UNL     1      47.747   1.278   6.672  0.00  0.00    +0.000 N 
ATOM     30  O   UNL     1      46.426   0.034   8.014  0.00  0.00    +0.000 OA
ATOM     31  H   UNL     1      47.910   2.151   6.191  0.00  0.00    +0.000 HD
ATOM     32  H   UNL     1      48.025   0.429   6.198  0.00  0.00    +0.000 HD
ENDBRANCH  26  28
ENDBRANCH  19  22
ENDBRANCH  18  19
ENDBRANCH   1  18
TORSDOF 8
ENDMDL
MODEL 4
REMARK VINA RESULT:    -6.634      4.410      7.933
REMARK INTER + INTRA:         -11.323
REMARK INTER:                 -10.418
REMARK INTRA:                  -0.906
REMARK UNBOUND:                -1.586
REMARK  Name = 
REMARK  10 active torsions:
REMARK  status: ('A' for Active; 'I' for Inactive)
REMARK    1  A    between atoms: C_2  and  C_3
REMARK    2  A    between atoms: C_4  and  C_5
REMARK    3  A    between atoms: C_7  and  C_8
REMARK    4  A    between atoms: C_13  and  N_14
REMARK    5  A    between atoms: N_14  and  C_15
REMARK    6  A    between atoms: C_15  and  C_16
REMARK    7  A    between atoms: C_16  and  C_17
REMARK    8  A    between atoms: C_16  and  C_18
REMARK    9  A    between atoms: C_16  and  C_19
REMARK   10  A    between atoms: C_23  and  C_24
REMARK                            x       y       z     vdW  Elec       q    Type
REMARK                         _______ _______ _______ _____ _____    ______ ____
ROOT
ATOM      1  N   UNL     1      47.226   5.470  14.639  0.00  0.00    +0.000 N 
ATOM      2  H   UNL     1      47.009   6.423  14.910  0.00  0.00    +0.000 HD
ENDROOT
BRANCH   1   8
ATOM      3  C   UNL     1      46.293   5.920  12.415  0.00  0.00    +0.000 A 
ATOM      4  C   UNL     1      45.545   5.455  11.320  0.00  0.00    +0.000 A 
ATOM      5  C   UNL     1      44.976   4.180  11.342  0.00  0.00    +0.000 A 
ATOM      6  C   UNL     1      45.173   3.424  12.483  0.00  0.00    +0.000 A 
ATOM      7  N   UNL     1      45.870   3.848  13.566  0.00  0.00    +0.000 NA
ATOM      8  C   UNL     1      46.424   5.082  13.546  0.00  0.00    +0.000 A 
BRANCH   5   9
ATOM      9  C   UNL     1      44.215   3.697  10.165  0.00  0.00    +0.000 C 
ATOM     10  N   UNL     1      44.104   4.499   9.062  0.00  0.00    +0.000 N 
ATOM     11  O   UNL     1      43.685   2.589  10.167  0.00  0.00    +0.000 OA
ATOM     12  H   UNL     1      44.490   5.424   8.951  0.00  0.00    +0.000 HD
ATOM     13  H   UNL     1      43.572   4.125   8.286  0.00  0.00    +0.000 HD
ENDBRANCH   5   9
BRANCH   3  15
ATOM     14  C   UNL     1      48.137   7.468  11.880  0.00  0.00    +0.000 C 
ATOM     15  C   UNL     1      46.894   7.260  12.340  0.00  0.00    +0.000 C 
BRANCH  14  17
ATOM     16  C   UNL     1      49.136  10.084  11.517  0.00  0.00    +0.000 C 
ATOM     17  C   UNL     1      48.674   8.876  11.685  0.00  0.00    +0.000 C 
ENDBRANCH  14  17
ENDBRANCH   3  15
ENDBRANCH   1   8
BRANCH   1  18
ATOM     18  C   UNL     1      47.237   4.508  15.755  0.00  0.00    +0.000 C 
BRANCH  18  19
ATOM     19  C   UNL     1      48.165   4.934  16.943  0.00  0.00    +0.000 C 
ATOM     20  C   UNL     1      48.801   6.304  16.604  0.00  0.00    +0.000 C 
ATOM     21  C   UNL     1      47.342   5.104  18.240  0.00  0.00    +0.000 C 
BRANCH  19  22
ATOM     22  C   UNL     1      49.228   3.820  17.150  0.00  0.00    +0.000 A 
ATOM     23  C   UNL     1      49.018   2.520  16.650  0.00  0.00    +0.000 A 
ATOM     24  C   UNL     1      50.005   1.530  16.743  0.00  0.00    +0.000 A 
ATOM     25  C   UNL     1      51.241   1.824  17.316  0.00  0.00    +0.000 A 
ATOM     26  C   UNL     1      51.481   3.108  17.809  0.00  0.00    +0.000 A 
ATOM     27  C   UNL     1      50.467   4.078  17.768  0.00  0.00    +0.000 A 
BRANCH  26  28
ATOM     28  C   UNL     1      52.838   3.427  18.326  0.00  0.00    +0.000 C 
ATOM     29  N   UNL     1      53.160   2.946  19.569  0.00  0.00    +0.000 N 
ATOM     30  O   UNL     1      53.617   4.141  17.710  0.00  0.00    +0.000 OA
ATOM     31  H   UNL     1      52.471   2.561  20.201  0.00  0.00    +0.000 HD
ATOM     32  H   UNL     1      54.018   3.296  19.977  0.00  0.00    +0.000 HD
ENDBRANCH  26  28
ENDBRANCH  19  22
ENDBRANCH  18  19
ENDBRANCH   1  18
TORSDOF 8
ENDMDL
MODEL 5
REMARK VINA RESULT:    -6.340      3.939      8.592
REMARK INTER + INTRA:         -10.891
REMARK INTER:                  -8.657
REMARK INTRA:                  -2.234
REMARK UNBOUND:                -1.586
REMARK  Name = 
REMARK  10 active torsions:
REMARK  status: ('A' for Active; 'I' for Inactive)
REMARK    1  A    between atoms: C_2  and  C_3
REMARK    2  A    between atoms: C_4  and  C_5
REMARK    3  A    between atoms: C_7  and  C_8
REMARK    4  A    between atoms: C_13  and  N_14
REMARK    5  A    between atoms: N_14  and  C_15
REMARK    6  A    between atoms: C_15  and  C_16
REMARK    7  A    between atoms: C_16  and  C_17
REMARK    8  A    between atoms: C_16  and  C_18
REMARK    9  A    between atoms: C_16  and  C_19
REMARK   10  A    between atoms: C_23  and  C_24
REMARK                            x       y       z     vdW  Elec       q    Type
REMARK                         _______ _______ _______ _____ _____    ______ ____
ROOT
ATOM      1  N   UNL     1      48.149   6.933  13.079  0.00  0.00    +0.000 N 
ATOM      2  H   UNL     1      48.685   7.212  12.265  0.00  0.00    +0.000 HD
ENDROOT
BRANCH   1   8
ATOM      3  C   UNL     1      46.427   5.190  13.193  0.00  0.00    +0.000 A 
ATOM      4  C   UNL     1      45.138   4.761  12.829  0.00  0.00    +0.000 A 
ATOM      5  C   UNL     1      44.333   5.558  12.013  0.00  0.00    +0.000 A 
ATOM      6  C   UNL     1      44.868   6.756  11.580  0.00  0.00    +0.000 A 
ATOM      7  N   UNL     1      46.113   7.192  11.892  0.00  0.00    +0.000 NA
ATOM      8  C   UNL     1      46.895   6.424  12.685  0.00  0.00    +0.000 A 
BRANCH   5   9
ATOM      9  C   UNL     1      42.965   5.101  11.665  0.00  0.00    +0.000 C 
ATOM     10  N   UNL     1      41.921   5.981  11.749  0.00  0.00    +0.000 N 
ATOM     11  O   UNL     1      42.759   3.945  11.304  0.00  0.00    +0.000 OA
ATOM     12  H   UNL     1      41.971   6.946  12.037  0.00  0.00    +0.000 HD
ATOM     13  H   UNL     1      41.008   5.620  11.504  0.00  0.00    +0.000 HD
ENDBRANCH   5   9
BRANCH   3  15
ATOM     14  C   UNL     1      47.084   4.324  15.406  0.00  0.00    +0.000 C 
ATOM     15  C   UNL     1      47.233   4.331  14.072  0.00  0.00    +0.000 C 
BRANCH  14  17
ATOM     16  C   UNL     1      48.478   2.468  17.015  0.00  0.00    +0.000 C 
ATOM     17  C   UNL     1      47.834   3.325  16.272  0.00  0.00    +0.000 C 
ENDBRANCH  14  17
ENDBRANCH   3  15
ENDBRANCH   1   8
BRANCH   1  18
ATOM     18  C   UNL     1      48.082   7.953  14.142  0.00  0.00    +0.000 C 
BRANCH  18  19
ATOM     19  C   UNL     1      49.459   8.229  14.835  0.00  0.00    +0.000 C 
ATOM     20  C   UNL     1      50.582   8.073  13.781  0.00  0.00    +0.000 C 
ATOM     21  C   UNL     1      49.515   9.677  15.373  0.00  0.00    +0.000 C 
BRANCH  19  22
ATOM     22  C   UNL     1      49.612   7.234  16.018  0.00  0.00    +0.000 A 
ATOM     23  C   UNL     1      50.823   6.545  16.230  0.00  0.00    +0.000 A 
ATOM     24  C   UNL     1      51.011   5.719  17.345  0.00  0.00    +0.000 A 
ATOM     25  C   UNL     1      50.000   5.581  18.294  0.00  0.00    +0.000 A 
ATOM     26  C   UNL     1      48.794   6.261  18.117  0.00  0.00    +0.000 A 
ATOM     27  C   UNL     1      48.589   7.039  16.966  0.00  0.00    +0.000 A 
BRANCH  26  28
ATOM     28  C   UNL     1      47.768   6.178  19.189  0.00  0.00    +0.000 C 
ATOM     29  N   UNL     1      46.563   5.612  18.856  0.00  0.00    +0.000 N 
ATOM     30  O   UNL     1      47.951   6.649  20.303  0.00  0.00    +0.000 OA
ATOM     31  H   UNL     1      46.291   5.432  17.899  0.00  0.00    +0.000 HD
ATOM     32  H   UNL     1      45.822   5.701  19.539  0.00  0.00    +0.000 HD
ENDBRANCH  26  28
ENDBRANCH  19  22
ENDBRANCH  18  19
ENDBRANCH   1  18
TORSDOF 8
ENDMDL
MODEL 6
REMARK VINA RESULT:    -6.225      3.846      7.846
REMARK INTER + INTRA:         -10.722
REMARK INTER:                  -8.772
REMARK INTRA:                  -1.950
REMARK UNBOUND:                -1.586
REMARK  Name = 
REMARK  10 active torsions:
REMARK  status: ('A' for Active; 'I' for Inactive)
REMARK    1  A    between atoms: C_2  and  C_3
REMARK    2  A    between atoms: C_4  and  C_5
REMARK    3  A    between atoms: C_7  and  C_8
REMARK    4  A    between atoms: C_13  and  N_14
REMARK    5  A    between atoms: N_14  and  C_15
REMARK    6  A    between atoms: C_15  and  C_16
REMARK    7  A    between atoms: C_16  and  C_17
REMARK    8  A    between atoms: C_16  and  C_18
REMARK    9  A    between atoms: C_16  and  C_19
REMARK   10  A    between atoms: C_23  and  C_24
REMARK                            x       y       z     vdW  Elec       q    Type
REMARK                         _______ _______ _______ _____ _____    ______ ____
ROOT
ATOM      1  N   UNL     1      46.563   4.466  15.137  0.00  0.00    +0.000 N 
ATOM      2  H   UNL     1      45.745   4.329  15.720  0.00  0.00    +0.000 HD
ENDROOT
BRANCH   1   8
ATOM      3  C   UNL     1      46.645   5.736  13.040  0.00  0.00    +0.000 A 
ATOM      4  C   UNL     1      46.295   5.818  11.681  0.00  0.00    +0.000 A 
ATOM      5  C   UNL     1      45.531   4.811  11.086  0.00  0.00    +0.000 A 
ATOM      6  C   UNL     1      45.134   3.763  11.894  0.00  0.00    +0.000 A 
ATOM      7  N   UNL     1      45.435   3.662  13.213  0.00  0.00    +0.000 NA
ATOM      8  C   UNL     1      46.177   4.633  13.791  0.00  0.00    +0.000 A 
BRANCH   5   9
ATOM      9  C   UNL     1      45.197   4.902   9.644  0.00  0.00    +0.000 C 
ATOM     10  N   UNL     1      43.962   4.498   9.214  0.00  0.00    +0.000 N 
ATOM     11  O   UNL     1      46.013   5.332   8.833  0.00  0.00    +0.000 OA
ATOM     12  H   UNL     1      43.220   4.125   9.785  0.00  0.00    +0.000 HD
ATOM     13  H   UNL     1      43.785   4.577   8.220  0.00  0.00    +0.000 HD
ENDBRANCH   5   9
BRANCH   3  15
ATOM     14  C   UNL     1      48.784   6.916  13.374  0.00  0.00    +0.000 C 
ATOM     15  C   UNL     1      47.470   6.806  13.620  0.00  0.00    +0.000 C 
BRANCH  14  17
ATOM     16  C   UNL     1      50.258   9.138  14.305  0.00  0.00    +0.000 C 
ATOM     17  C   UNL     1      49.578   8.111  13.876  0.00  0.00    +0.000 C 
ENDBRANCH  14  17
ENDBRANCH   3  15
ENDBRANCH   1   8
BRANCH   1  18
ATOM     18  C   UNL     1      47.631   3.471  15.343  0.00  0.00    +0.000 C 
BRANCH  18  19
ATOM     19  C   UNL     1      48.179   3.432  16.809  0.00  0.00    +0.000 C 
ATOM     20  C   UNL     1      47.070   2.876  17.735  0.00  0.00    +0.000 C 
ATOM     21  C   UNL     1      49.395   2.484  16.908  0.00  0.00    +0.000 C 
BRANCH  19  22
ATOM     22  C   UNL     1      48.614   4.871  17.201  0.00  0.00    +0.000 A 
ATOM     23  C   UNL     1      47.820   5.658  18.058  0.00  0.00    +0.000 A 
ATOM     24  C   UNL     1      48.242   6.918  18.498  0.00  0.00    +0.000 A 
ATOM     25  C   UNL     1      49.486   7.415  18.113  0.00  0.00    +0.000 A 
ATOM     26  C   UNL     1      50.299   6.653  17.273  0.00  0.00    +0.000 A 
ATOM     27  C   UNL     1      49.844   5.417  16.786  0.00  0.00    +0.000 A 
BRANCH  26  28
ATOM     28  C   UNL     1      51.661   7.157  16.954  0.00  0.00    +0.000 C 
ATOM     29  N   UNL     1      52.306   6.578  15.890  0.00  0.00    +0.000 N 
ATOM     30  O   UNL     1      52.219   8.002  17.639  0.00  0.00    +0.000 OA
ATOM     31  H   UNL     1      51.982   5.727  15.453  0.00  0.00    +0.000 HD
ATOM     32  H   UNL     1      53.283   6.814  15.777  0.00  0.00    +0.000 HD
ENDBRANCH  26  28
ENDBRANCH  19  22
ENDBRANCH  18  19
ENDBRANCH   1  18
TORSDOF 8
ENDMDL
MODEL 7
REMARK VINA RESULT:    -6.102      3.598      7.396
REMARK INTER + INTRA:         -10.542
REMARK INTER:                  -9.700
REMARK INTRA:                  -0.842
REMARK UNBOUND:                -1.586
REMARK  Name = 
REMARK  10 active torsions:
REMARK  status: ('A' for Active; 'I' for Inactive)
REMARK    1  A    between atoms: C_2  and  C_3
REMARK    2  A    between atoms: C_4  and  C_5
REMARK    3  A    between atoms: C_7  and  C_8
REMARK    4  A    between atoms: C_13  and  N_14
REMARK    5  A    between atoms: N_14  and  C_15
REMARK    6  A    between atoms: C_15  and  C_16
REMARK    7  A    between atoms: C_16  and  C_17
REMARK    8  A    between atoms: C_16  and  C_18
REMARK    9  A    between atoms: C_16  and  C_19
REMARK   10  A    between atoms: C_23  and  C_24
REMARK                            x       y       z     vdW  Elec       q    Type
REMARK                         _______ _______ _______ _____ _____    ______ ____
ROOT
ATOM      1  N   UNL     1      46.700   6.045  14.030  0.00  0.00    +0.000 N 
ATOM      2  H   UNL     1      46.448   5.573  14.892  0.00  0.00    +0.000 HD
ENDROOT
BRANCH   1   8
ATOM      3  C   UNL     1      45.821   6.132  11.742  0.00  0.00    +0.000 A 
ATOM      4  C   UNL     1      45.271   5.441  10.649  0.00  0.00    +0.000 A 
ATOM      5  C   UNL     1      45.021   4.070  10.733  0.00  0.00    +0.000 A 
ATOM      6  C   UNL     1      45.323   3.449  11.930  0.00  0.00    +0.000 A 
ATOM      7  N   UNL     1      45.834   4.087  13.012  0.00  0.00    +0.000 NA
ATOM      8  C   UNL     1      46.080   5.415  12.932  0.00  0.00    +0.000 A 
BRANCH   5   9
ATOM      9  C   UNL     1      44.467   3.353   9.559  0.00  0.00    +0.000 C 
ATOM     10  N   UNL     1      44.120   4.063   8.442  0.00  0.00    +0.000 N 
ATOM     11  O   UNL     1      44.317   2.134   9.576  0.00  0.00    +0.000 OA
ATOM     12  H   UNL     1      44.193   5.060   8.317  0.00  0.00    +0.000 HD
ATOM     13  H   UNL     1      43.744   3.528   7.669  0.00  0.00    +0.000 HD
ENDBRANCH   5   9
BRANCH   3  15
ATOM     14  C   UNL     1      45.152   8.504  11.829  0.00  0.00    +0.000 C 
ATOM     15  C   UNL     1      46.089   7.572  11.603  0.00  0.00    +0.000 C 
BRANCH  14  17
ATOM     16  C   UNL     1      45.797  11.253  11.797  0.00  0.00    +0.000 C 
ATOM     17  C   UNL     1      45.499   9.984  11.812  0.00  0.00    +0.000 C 
ENDBRANCH  14  17
ENDBRANCH   3  15
ENDBRANCH   1   8
BRANCH   1  18
ATOM     18  C   UNL     1      48.147   6.271  13.862  0.00  0.00    +0.000 C 
BRANCH  18  19
ATOM     19  C   UNL     1      48.735   7.337  14.846  0.00  0.00    +0.000 C 
ATOM     20  C   UNL     1      50.211   7.603  14.460  0.00  0.00    +0.000 C 
ATOM     21  C   UNL     1      47.967   8.673  14.722  0.00  0.00    +0.000 C 
BRANCH  19  22
ATOM     22  C   UNL     1      48.589   6.792  16.293  0.00  0.00    +0.000 A 
ATOM     23  C   UNL     1      48.637   7.660  17.402  0.00  0.00    +0.000 A 
ATOM     24  C   UNL     1      48.411   7.200  18.705  0.00  0.00    +0.000 A 
ATOM     25  C   UNL     1      48.104   5.860  18.932  0.00  0.00    +0.000 A 
ATOM     26  C   UNL     1      48.038   4.978  17.852  0.00  0.00    +0.000 A 
ATOM     27  C   UNL     1      48.325   5.433  16.555  0.00  0.00    +0.000 A 
BRANCH  26  28
ATOM     28  C   UNL     1      47.613   3.576  18.105  0.00  0.00    +0.000 C 
ATOM     29  N   UNL     1      48.264   2.898  19.104  0.00  0.00    +0.000 N 
ATOM     30  O   UNL     1      46.768   3.019  17.418  0.00  0.00    +0.000 OA
ATOM     31  H   UNL     1      49.117   3.238  19.528  0.00  0.00    +0.000 HD
ATOM     32  H   UNL     1      48.081   1.905  19.165  0.00  0.00    +0.000 HD
ENDBRANCH  26  28
ENDBRANCH  19  22
ENDBRANCH  18  19
ENDBRANCH   1  18
TORSDOF 8
ENDMDL
MODEL 8
REMARK VINA RESULT:    -5.847      3.973      8.557
REMARK INTER + INTRA:         -10.167
REMARK INTER:                  -8.409
REMARK INTRA:                  -1.758
REMARK UNBOUND:                -1.586
REMARK  Name = 
REMARK  10 active torsions:
REMARK  status: ('A' for Active; 'I' for Inactive)
REMARK    1  A    between atoms: C_2  and  C_3
REMARK    2  A    between atoms: C_4  and  C_5
REMARK    3  A    between atoms: C_7  and  C_8
REMARK    4  A    between atoms: C_13  and  N_14
REMARK    5  A    between atoms: N_14  and  C_15
REMARK    6  A    between atoms: C_15  and  C_16
REMARK    7  A    between atoms: C_16  and  C_17
REMARK    8  A    between atoms: C_16  and  C_18
REMARK    9  A    between atoms: C_16  and  C_19
REMARK   10  A    between atoms: C_23  and  C_24
REMARK                            x       y       z     vdW  Elec       q    Type
REMARK                         _______ _______ _______ _____ _____    ______ ____
ROOT
ATOM      1  N   UNL     1      47.252   6.857  14.007  0.00  0.00    +0.000 N 
ATOM      2  H   UNL     1      47.009   6.764  14.988  0.00  0.00    +0.000 HD
ENDROOT
BRANCH   1   8
ATOM      3  C   UNL     1      46.567   4.530  13.646  0.00  0.00    +0.000 A 
ATOM      4  C   UNL     1      45.814   3.612  12.894  0.00  0.00    +0.000 A 
ATOM      5  C   UNL     1      45.065   4.043  11.797  0.00  0.00    +0.000 A 
ATOM      6  C   UNL     1      45.118   5.389  11.490  0.00  0.00    +0.000 A 
ATOM      7  N   UNL     1      45.851   6.299  12.179  0.00  0.00    +0.000 NA
ATOM      8  C   UNL     1      46.574   5.885  13.244  0.00  0.00    +0.000 A 
BRANCH   5   9
ATOM      9  C   UNL     1      44.254   3.063  11.034  0.00  0.00    +0.000 C 
ATOM     10  N   UNL     1      44.828   2.376  10.000  0.00  0.00    +0.000 N 
ATOM     11  O   UNL     1      43.076   2.862  11.319  0.00  0.00    +0.000 OA
ATOM     12  H   UNL     1      45.779   2.463   9.676  0.00  0.00    +0.000 HD
ATOM     13  H   UNL     1      44.232   1.721   9.510  0.00  0.00    +0.000 HD
ENDBRANCH   5   9
BRANCH   3  15
ATOM     14  C   UNL     1      46.858   4.135  16.063  0.00  0.00    +0.000 C 
ATOM     15  C   UNL     1      47.323   4.038  14.808  0.00  0.00    +0.000 C 
BRANCH  14  17
ATOM     16  C   UNL     1      48.235   2.939  18.219  0.00  0.00    +0.000 C 
ATOM     17  C   UNL     1      47.599   3.492  17.224  0.00  0.00    +0.000 C 
ENDBRANCH  14  17
ENDBRANCH   3  15
ENDBRANCH   1   8
BRANCH   1  18
ATOM     18  C   UNL     1      48.701   6.933  13.745  0.00  0.00    +0.000 C 
BRANCH  18  19
ATOM     19  C   UNL     1      49.449   7.973  14.645  0.00  0.00    +0.000 C 
ATOM     20  C   UNL     1      50.789   8.341  13.963  0.00  0.00    +0.000 C 
ATOM     21  C   UNL     1      48.618   9.268  14.783  0.00  0.00    +0.000 C 
BRANCH  19  22
ATOM     22  C   UNL     1      49.652   7.339  16.049  0.00  0.00    +0.000 A 
ATOM     23  C   UNL     1      48.704   7.533  17.073  0.00  0.00    +0.000 A 
ATOM     24  C   UNL     1      48.821   6.892  18.313  0.00  0.00    +0.000 A 
ATOM     25  C   UNL     1      49.879   6.017  18.552  0.00  0.00    +0.000 A 
ATOM     26  C   UNL     1      50.827   5.796  17.552  0.00  0.00    +0.000 A 
ATOM     27  C   UNL     1      50.737   6.488  16.333  0.00  0.00    +0.000 A 
BRANCH  26  28
ATOM     28  C   UNL     1      51.890   4.785  17.791  0.00  0.00    +0.000 C 
ATOM     29  N   UNL     1      51.598   3.769  18.667  0.00  0.00    +0.000 N 
ATOM     30  O   UNL     1      53.001   4.877  17.289  0.00  0.00    +0.000 OA
ATOM     31  H   UNL     1      50.791   3.789  19.275  0.00  0.00    +0.000 HD
ATOM     32  H   UNL     1      52.371   3.179  18.943  0.00  0.00    +0.000 HD
ENDBRANCH  26  28
ENDBRANCH  19  22
ENDBRANCH  18  19
ENDBRANCH   1  18
TORSDOF 8
ENDMDL
MODEL 9
REMARK VINA RESULT:    -5.689      3.489      5.656
REMARK INTER + INTRA:          -9.936
REMARK INTER:                  -8.616
REMARK INTRA:                  -1.320
REMARK UNBOUND:                -1.586
REMARK  Name = 
REMARK  10 active torsions:
REMARK  status: ('A' for Active; 'I' for Inactive)
REMARK    1  A    between atoms: C_2  and  C_3
REMARK    2  A    between atoms: C_4  and  C_5
REMARK    3  A    between atoms: C_7  and  C_8
REMARK    4  A    between atoms: C_13  and  N_14
REMARK    5  A    between atoms: N_14  and  C_15
REMARK    6  A    between atoms: C_15  and  C_16
REMARK    7  A    between atoms: C_16  and  C_17
REMARK    8  A    between atoms: C_16  and  C_18
REMARK    9  A    between atoms: C_16  and  C_19
REMARK   10  A    between atoms: C_23  and  C_24
REMARK                            x       y       z     vdW  Elec       q    Type
REMARK                         _______ _______ _______ _____ _____    ______ ____
ROOT
ATOM      1  N   UNL     1      47.865   6.842  15.037  0.00  0.00    +0.000 N 
ATOM      2  H   UNL     1      47.990   7.842  14.921  0.00  0.00    +0.000 HD
ENDROOT
BRANCH   1   8
ATOM      3  C   UNL     1      50.188   6.965  15.814  0.00  0.00    +0.000 A 
ATOM      4  C   UNL     1      51.207   6.424  16.617  0.00  0.00    +0.000 A 
ATOM      5  C   UNL     1      50.974   5.275  17.375  0.00  0.00    +0.000 A 
ATOM      6  C   UNL     1      49.719   4.704  17.281  0.00  0.00    +0.000 A 
ATOM      7  N   UNL     1      48.720   5.185  16.501  0.00  0.00    +0.000 NA
ATOM      8  C   UNL     1      48.941   6.300  15.767  0.00  0.00    +0.000 A 
BRANCH   5   9
ATOM      9  C   UNL     1      52.053   4.737  18.239  0.00  0.00    +0.000 C 
ATOM     10  N   UNL     1      51.889   3.518  18.838  0.00  0.00    +0.000 N 
ATOM     11  O   UNL     1      53.089   5.370  18.423  0.00  0.00    +0.000 OA
ATOM     12  H   UNL     1      51.083   2.916  18.764  0.00  0.00    +0.000 HD
ATOM     13  H   UNL     1      52.652   3.197  19.420  0.00  0.00    +0.000 HD
ENDBRANCH   5   9
BRANCH   3  15
ATOM     14  C   UNL     1      50.875   8.162  13.770  0.00  0.00    +0.000 C 
ATOM     15  C   UNL     1      50.469   8.189  15.049  0.00  0.00    +0.000 C 
BRANCH  14  17
ATOM     16  C   UNL     1      51.148  10.545  12.279  0.00  0.00    +0.000 C 
ATOM     17  C   UNL     1      51.021   9.445  12.968  0.00  0.00    +0.000 C 
ENDBRANCH  14  17
ENDBRANCH   3  15
ENDBRANCH   1   8
BRANCH   1  18
ATOM     18  C   UNL     1      47.551   6.120  13.791  0.00  0.00    +0.000 C 
BRANCH  18  19
ATOM     19  C   UNL     1      46.906   7.022  12.686  0.00  0.00    +0.000 C 
ATOM     20  C   UNL     1      46.369   8.312  13.355  0.00  0.00    +0.000 C 
ATOM     21  C   UNL     1      47.964   7.439  11.640  0.00  0.00    +0.000 C 
BRANCH  19  22
ATOM     22  C   UNL     1      45.785   6.205  11.988  0.00  0.00    +0.000 A 
ATOM     23  C   UNL     1      44.481   6.165  12.521  0.00  0.00    +0.000 A 
ATOM     24  C   UNL     1      43.436   5.513  11.854  0.00  0.00    +0.000 A 
ATOM     25  C   UNL     1      43.662   4.905  10.621  0.00  0.00    +0.000 A 
ATOM     26  C   UNL     1      44.941   4.939  10.063  0.00  0.00    +0.000 A 
ATOM     27  C   UNL     1      45.998   5.541  10.765  0.00  0.00    +0.000 A 
BRANCH  26  28
ATOM     28  C   UNL     1      45.137   4.371   8.703  0.00  0.00    +0.000 C 
ATOM     29  N   UNL     1      44.235   3.425   8.287  0.00  0.00    +0.000 N 
ATOM     30  O   UNL     1      46.093   4.675   8.003  0.00  0.00    +0.000 OA
ATOM     31  H   UNL     1      43.582   2.980   8.916  0.00  0.00    +0.000 HD
ATOM     32  H   UNL     1      44.463   2.934   7.432  0.00  0.00    +0.000 HD
ENDBRANCH  26  28
ENDBRANCH  19  22
ENDBRANCH  18  19
ENDBRANCH   1  18
TORSDOF 8
ENDMDL
