MODEL 1
REMARK VINA RESULT:    -8.026      0.000      0.000
REMARK INTER + INTRA:         -12.024
REMARK INTER:                 -11.311
REMARK INTRA:                  -0.713
REMARK UNBOUND:                -0.713
REMARK  Name = 
REMARK  7 active torsions:
REMARK  status: ('A' for Active; 'I' for Inactive)
REMARK    1  A    between atoms: C_2  and  C_3
REMARK    2  A    between atoms: C_6  and  N_7
REMARK    3  A    between atoms: N_7  and  C_8
REMARK    4  A    between atoms: C_8  and  C_9
REMARK    5  A    between atoms: C_9  and  C_12
REMARK    6  A    between atoms: C_16  and  N_17
REMARK    7  A    between atoms: N_17  and  C_18
REMARK                            x       y       z     vdW  Elec       q    Type
REMARK                         _______ _______ _______ _____ _____    ______ ____
ROOT
ATOM      1  C   UNL     1      43.498   5.450  12.219  0.00  0.00    +0.000 C 
ATOM      2  F   UNL     1      43.011   6.626  11.715  0.00  0.00    +0.000 F 
ATOM      3  F   UNL     1      42.659   5.147  13.260  0.00  0.00    +0.000 F 
ENDROOT
BRANCH   1   4
ATOM      4  C   UNL     1      44.927   5.581  12.710  0.00  0.00    +0.000 A 
ATOM      5  C   UNL     1      45.757   6.605  12.235  0.00  0.00    +0.000 A 
ATOM      6  C   UNL     1      47.054   6.751  12.732  0.00  0.00    +0.000 A 
ATOM      7  C   UNL     1      47.543   5.869  13.700  0.00  0.00    +0.000 A 
ATOM      8  C   UNL     1      46.734   4.845  14.193  0.00  0.00    +0.000 A 
ATOM      9  C   UNL     1      45.430   4.714  13.694  0.00  0.00    +0.000 A 
BRANCH   8  10
ATOM     10  N   UNL     1      47.159   3.917  15.168  0.00  0.00    +0.000 N 
ATOM     11  H   UNL     1      46.789   2.994  14.942  0.00  0.00    +0.000 HD
BRANCH  10  12
ATOM     12  C   UNL     1      47.248   4.144  16.586  0.00  0.00    +0.000 C 
ATOM     13  C   UNL     1      48.614   4.668  17.057  0.00  0.00    +0.000 C 
ATOM     14  O   UNL     1      48.767   3.557  17.980  0.00  0.00    +0.000 OA
ATOM     15  C   UNL     1      47.652   2.873  17.356  0.00  0.00    +0.000 C 
ENDBRANCH  10  12
ENDBRANCH   8  10
ENDBRANCH   1   4
BRANCH   1  16
ATOM     16  C   UNL     1      43.297   4.348  11.143  0.00  0.00    +0.000 C 
BRANCH  16  17
ATOM     17  N   UNL     1      43.697   4.743   9.775  0.00  0.00    +0.000 N 
ATOM     18  H   UNL     1      43.832   5.749   9.677  0.00  0.00    +0.000 HD
BRANCH  17  22
ATOM     19  C   UNL     1      46.571   2.654   7.588  0.00  0.00    +0.000 A 
ATOM     20  C   UNL     1      45.720   1.921   8.404  0.00  0.00    +0.000 A 
ATOM     21  C   UNL     1      44.765   2.607   9.163  0.00  0.00    +0.000 A 
ATOM     22  C   UNL     1      44.683   4.000   9.117  0.00  0.00    +0.000 A 
ATOM     23  C   UNL     1      45.570   4.626   8.234  0.00  0.00    +0.000 A 
ATOM     24  N   UNL     1      46.515   3.999   7.488  0.00  0.00    +0.000 NA
BRANCH  19  26
ATOM     25  N   UNL     1      48.355   1.493   6.098  0.00  0.00    +0.000 NA
ATOM     26  C   UNL     1      47.562   1.994   6.781  0.00  0.00    +0.000 C 
ENDBRANCH  19  26
ENDBRANCH  17  22
ENDBRANCH  16  17
ENDBRANCH   1  16
TORSDOF 7
ENDMDL
MODEL 2
REMARK VINA RESULT:    -7.434      3.622      4.934
REMARK INTER + INTRA:         -11.189
REMARK INTER:                 -10.395
REMARK INTRA:                  -0.795
REMARK UNBOUND:                -0.713
REMARK  Name = 
REMARK  7 active torsions:
REMARK  status: ('A' for Active; 'I' for Inactive)
REMARK    1  A    between atoms: C_2  and  C_3
REMARK    2  A    between atoms: C_6  and  N_7
REMARK    3  A    between atoms: N_7  and  C_8
REMARK    4  A    between atoms: C_8  and  C_9
REMARK    5  A    between atoms: C_9  and  C_12
REMARK    6  A    between atoms: C_16  and  N_17
REMARK    7  A    between atoms: N_17  and  C_18
REMARK                            x       y       z     vdW  Elec       q    Type
REMARK                         _______ _______ _______ _____ _____    ______ ____
ROOT
ATOM      1  C   UNL     1      44.332   5.034  12.279  0.00  0.00    +0.000 C 
ATOM      2  F   UNL     1      43.375   5.073  13.258  0.00  0.00    +0.000 F 
ATOM      3  F   UNL     1      45.085   3.927  12.577  0.00  0.00    +0.000 F 
ENDROOT
BRANCH   1   4
ATOM      4  C   UNL     1      45.198   6.279  12.271  0.00  0.00    +0.000 A 
ATOM      5  C   UNL     1      46.577   6.193  12.046  0.00  0.00    +0.000 A 
ATOM      6  C   UNL     1      47.358   7.349  11.988  0.00  0.00    +0.000 A 
ATOM      7  C   UNL     1      46.772   8.606  12.166  0.00  0.00    +0.000 A 
ATOM      8  C   UNL     1      45.399   8.719  12.385  0.00  0.00    +0.000 A 
ATOM      9  C   UNL     1      44.624   7.552  12.433  0.00  0.00    +0.000 A 
BRANCH   8  10
ATOM     10  N   UNL     1      44.740   9.952  12.576  0.00  0.00    +0.000 N 
ATOM     11  H   UNL     1      44.064   9.863  13.335  0.00  0.00    +0.000 HD
BRANCH  10  12
ATOM     12  C   UNL     1      44.296  10.854  11.546  0.00  0.00    +0.000 C 
ATOM     13  C   UNL     1      42.783  11.123  11.554  0.00  0.00    +0.000 C 
ATOM     14  O   UNL     1      42.656  10.678  10.177  0.00  0.00    +0.000 OA
ATOM     15  C   UNL     1      43.996  10.128  10.223  0.00  0.00    +0.000 C 
ENDBRANCH  10  12
ENDBRANCH   8  10
ENDBRANCH   1   4
BRANCH   1  16
ATOM     16  C   UNL     1      43.624   4.746  10.927  0.00  0.00    +0.000 C 
BRANCH  16  17
ATOM     17  N   UNL     1      43.778   3.361  10.434  0.00  0.00    +0.000 N 
ATOM     18  H   UNL     1      42.886   2.884  10.306  0.00  0.00    +0.000 HD
BRANCH  17  22
ATOM     19  C   UNL     1      46.599   2.460   7.495  0.00  0.00    +0.000 A 
ATOM     20  C   UNL     1      46.243   3.792   7.665  0.00  0.00    +0.000 A 
ATOM     21  C   UNL     1      45.281   4.110   8.629  0.00  0.00    +0.000 A 
ATOM     22  C   UNL     1      44.677   3.108   9.392  0.00  0.00    +0.000 A 
ATOM     23  C   UNL     1      45.140   1.810   9.155  0.00  0.00    +0.000 A 
ATOM     24  N   UNL     1      46.063   1.458   8.224  0.00  0.00    +0.000 NA
BRANCH  19  26
ATOM     25  N   UNL     1      48.357   1.772   5.710  0.00  0.00    +0.000 NA
ATOM     26  C   UNL     1      47.591   2.085   6.523  0.00  0.00    +0.000 C 
ENDBRANCH  19  26
ENDBRANCH  17  22
ENDBRANCH  16  17
ENDBRANCH   1  16
TORSDOF 7
ENDMDL
MODEL 3
REMARK VINA RESULT:    -7.255      1.760      2.120
REMARK INTER + INTRA:         -10.937
REMARK INTER:                 -10.063
REMARK INTRA:                  -0.873
REMARK UNBOUND:                -0.713
REMARK  Name = 
REMARK  7 active torsions:
REMARK  status: ('A' for Active; 'I' for Inactive)
REMARK    1  A    between atoms: C_2  and  C_3
REMARK    2  A    between atoms: C_6  and  N_7
REMARK    3  A    between atoms: N_7  and  C_8
REMARK    4  A    between atoms: C_8  and  C_9
REMARK    5  A    between atoms: C_9  and  C_12
REMARK    6  A    between atoms: C_16  and  N_17
REMARK    7  A    between atoms: N_17  and  C_18
REMARK                            x       y       z     vdW  Elec       q    Type
REMARK                         _______ _______ _______ _____ _____    ______ ____
ROOT
ATOM      1  C   UNL     1      44.515   5.044  12.387  0.00  0.00    +0.000 C 
ATOM      2  F   UNL     1      43.609   5.624  13.235  0.00  0.00    +0.000 F 
ATOM      3  F   UNL     1      44.562   3.732  12.779  0.00  0.00    +0.000 F 
ENDROOT
BRANCH   1   4
ATOM      4  C   UNL     1      45.888   5.680  12.490  0.00  0.00    +0.000 A 
ATOM      5  C   UNL     1      46.431   6.392  11.414  0.00  0.00    +0.000 A 
ATOM      6  C   UNL     1      47.673   7.018  11.535  0.00  0.00    +0.000 A 
ATOM      7  C   UNL     1      48.394   6.931  12.730  0.00  0.00    +0.000 A 
ATOM      8  C   UNL     1      47.871   6.233  13.819  0.00  0.00    +0.000 A 
ATOM      9  C   UNL     1      46.620   5.616  13.688  0.00  0.00    +0.000 A 
BRANCH   8  10
ATOM     10  N   UNL     1      48.542   6.101  15.054  0.00  0.00    +0.000 N 
ATOM     11  H   UNL     1      48.242   5.241  15.513  0.00  0.00    +0.000 HD
BRANCH  10  12
ATOM     12  C   UNL     1      48.827   7.155  15.991  0.00  0.00    +0.000 C 
ATOM     13  C   UNL     1      50.314   7.289  16.355  0.00  0.00    +0.000 C 
ATOM     14  O   UNL     1      50.025   7.127  17.769  0.00  0.00    +0.000 OA
ATOM     15  C   UNL     1      48.679   6.693  17.452  0.00  0.00    +0.000 C 
ENDBRANCH  10  12
ENDBRANCH   8  10
ENDBRANCH   1   4
BRANCH   1  16
ATOM     16  C   UNL     1      43.913   5.066  10.956  0.00  0.00    +0.000 C 
BRANCH  16  17
ATOM     17  N   UNL     1      43.783   3.736  10.322  0.00  0.00    +0.000 N 
ATOM     18  H   UNL     1      42.821   3.506  10.076  0.00  0.00    +0.000 HD
BRANCH  17  22
ATOM     19  C   UNL     1      46.633   2.494   7.539  0.00  0.00    +0.000 A 
ATOM     20  C   UNL     1      46.348   3.851   7.612  0.00  0.00    +0.000 A 
ATOM     21  C   UNL     1      45.378   4.283   8.522  0.00  0.00    +0.000 A 
ATOM     22  C   UNL     1      44.696   3.368   9.328  0.00  0.00    +0.000 A 
ATOM     23  C   UNL     1      45.092   2.033   9.189  0.00  0.00    +0.000 A 
ATOM     24  N   UNL     1      46.021   1.572   8.312  0.00  0.00    +0.000 NA
BRANCH  19  26
ATOM     25  N   UNL     1      48.399   1.594   5.859  0.00  0.00    +0.000 NA
ATOM     26  C   UNL     1      47.629   2.002   6.625  0.00  0.00    +0.000 C 
ENDBRANCH  19  26
ENDBRANCH  17  22
ENDBRANCH  16  17
ENDBRANCH   1  16
TORSDOF 7
ENDMDL
MODEL 4
REMARK VINA RESULT:    -6.817      2.979      3.697
REMARK INTER + INTRA:         -10.319
REMARK INTER:                  -9.562
REMARK INTRA:                  -0.757
REMARK UNBOUND:                -0.713
REMARK  Name = 
REMARK  7 active torsions:
REMARK  status: ('A' for Active; 'I' for Inactive)
REMARK    1  A    between atoms: C_2  and  C_3
REMARK    2  A    between atoms: C_6  and  N_7
REMARK    3  A    between atoms: N_7  and  C_8
REMARK    4  A    between atoms: C_8  and  C_9
REMARK    5  A    between atoms: C_9  and  C_12
REMARK    6  A    between atoms: C_16  and  N_17
REMARK    7  A    between atoms: N_17  and  C_18
REMARK                            x       y       z     vdW  Elec       q    Type
REMARK                         _______ _______ _______ _____ _____    ______ ____
ROOT
ATOM      1  C   UNL     1      44.440   5.422  12.177  0.00  0.00    +0.000 C 
ATOM      2  F   UNL     1      43.540   5.352  13.206  0.00  0.00    +0.000 F 
ATOM      3  F   UNL     1      45.308   4.386  12.407  0.00  0.00    +0.000 F 
ENDROOT
BRANCH   1   4
ATOM      4  C   UNL     1      45.182   6.744  12.150  0.00  0.00    +0.000 A 
ATOM      5  C   UNL     1      44.535   7.922  11.762  0.00  0.00    +0.000 A 
ATOM      6  C   UNL     1      45.211   9.143  11.791  0.00  0.00    +0.000 A 
ATOM      7  C   UNL     1      46.547   9.201  12.198  0.00  0.00    +0.000 A 
ATOM      8  C   UNL     1      47.213   8.041  12.596  0.00  0.00    +0.000 A 
ATOM      9  C   UNL     1      46.521   6.822  12.571  0.00  0.00    +0.000 A 
BRANCH   8  10
ATOM     10  N   UNL     1      48.560   8.022  13.016  0.00  0.00    +0.000 N 
ATOM     11  H   UNL     1      48.598   8.018  14.036  0.00  0.00    +0.000 HD
BRANCH  10  12
ATOM     12  C   UNL     1      49.652   8.751  12.427  0.00  0.00    +0.000 C 
ATOM     13  C   UNL     1      50.447   7.958  11.378  0.00  0.00    +0.000 C 
ATOM     14  O   UNL     1      51.687   8.159  12.107  0.00  0.00    +0.000 OA
ATOM     15  C   UNL     1      50.944   8.637  13.256  0.00  0.00    +0.000 C 
ENDBRANCH  10  12
ENDBRANCH   8  10
ENDBRANCH   1   4
BRANCH   1  16
ATOM     16  C   UNL     1      43.686   5.092  10.859  0.00  0.00    +0.000 C 
BRANCH  16  17
ATOM     17  N   UNL     1      43.777   3.678  10.435  0.00  0.00    +0.000 N 
ATOM     18  H   UNL     1      42.863   3.240  10.318  0.00  0.00    +0.000 HD
BRANCH  17  22
ATOM     19  C   UNL     1      46.584   2.499   7.583  0.00  0.00    +0.000 A 
ATOM     20  C   UNL     1      46.288   3.852   7.679  0.00  0.00    +0.000 A 
ATOM     21  C   UNL     1      45.331   4.263   8.613  0.00  0.00    +0.000 A 
ATOM     22  C   UNL     1      44.674   3.331   9.419  0.00  0.00    +0.000 A 
ATOM     23  C   UNL     1      45.080   2.002   9.256  0.00  0.00    +0.000 A 
ATOM     24  N   UNL     1      45.996   1.561   8.356  0.00  0.00    +0.000 NA
BRANCH  19  26
ATOM     25  N   UNL     1      48.337   1.610   5.884  0.00  0.00    +0.000 NA
ATOM     26  C   UNL     1      47.567   2.028   6.645  0.00  0.00    +0.000 C 
ENDBRANCH  19  26
ENDBRANCH  17  22
ENDBRANCH  16  17
ENDBRANCH   1  16
TORSDOF 7
ENDMDL
MODEL 5
REMARK VINA RESULT:    -6.802      2.971      7.635
REMARK INTER + INTRA:         -10.298
REMARK INTER:                  -9.698
REMARK INTRA:                  -0.600
REMARK UNBOUND:                -0.713
REMARK  Name = 
REMARK  7 active torsions:
REMARK  status: ('A' for Active; 'I' for Inactive)
REMARK    1  A    between atoms: C_2  and  C_3
REMARK    2  A    between atoms: C_6  and  N_7
REMARK    3  A    between atoms: N_7  and  C_8
REMARK    4  A    between atoms: C_8  and  C_9
REMARK    5  A    between atoms: C_9  and  C_12
REMARK    6  A    between atoms: C_16  and  N_17
REMARK    7  A    between atoms: N_17  and  C_18
REMARK                            x       y       z     vdW  Elec       q    Type
REMARK                         _______ _______ _______ _____ _____    ______ ____
ROOT
ATOM      1  C   UNL     1      44.511   6.188  11.343  0.00  0.00    +0.000 C 
ATOM      2  F   UNL     1      43.212   6.596  11.491  0.00  0.00    +0.000 F 
ATOM      3  F   UNL     1      45.104   7.185  10.612  0.00  0.00    +0.000 F 
ENDROOT
BRANCH   1   4
ATOM      4  C   UNL     1      44.619   4.860  10.619  0.00  0.00    +0.000 A 
ATOM      5  C   UNL     1      43.930   3.733  11.082  0.00  0.00    +0.000 A 
ATOM      6  C   UNL     1      43.992   2.528  10.379  0.00  0.00    +0.000 A 
ATOM      7  C   UNL     1      44.754   2.431   9.210  0.00  0.00    +0.000 A 
ATOM      8  C   UNL     1      45.445   3.542   8.725  0.00  0.00    +0.000 A 
ATOM      9  C   UNL     1      45.367   4.748   9.435  0.00  0.00    +0.000 A 
BRANCH   8  10
ATOM     10  N   UNL     1      46.234   3.518   7.556  0.00  0.00    +0.000 N 
ATOM     11  H   UNL     1      46.100   4.386   7.038  0.00  0.00    +0.000 HD
BRANCH  10  12
ATOM     12  C   UNL     1      46.450   2.389   6.691  0.00  0.00    +0.000 C 
ATOM     13  C   UNL     1      47.650   1.513   7.085  0.00  0.00    +0.000 C 
ATOM     14  O   UNL     1      48.256   1.683   5.776  0.00  0.00    +0.000 OA
ATOM     15  C   UNL     1      47.319   2.745   5.471  0.00  0.00    +0.000 C 
ENDBRANCH  10  12
ENDBRANCH   8  10
ENDBRANCH   1   4
BRANCH   1  16
ATOM     16  C   UNL     1      45.179   6.201  12.745  0.00  0.00    +0.000 C 
BRANCH  16  17
ATOM     17  N   UNL     1      46.482   5.505  12.813  0.00  0.00    +0.000 N 
ATOM     18  H   UNL     1      47.151   5.849  12.124  0.00  0.00    +0.000 HD
BRANCH  17  22
ATOM     19  C   UNL     1      48.458   4.891  16.436  0.00  0.00    +0.000 A 
ATOM     20  C   UNL     1      47.569   3.914  16.010  0.00  0.00    +0.000 A 
ATOM     21  C   UNL     1      46.879   4.113  14.809  0.00  0.00    +0.000 A 
ATOM     22  C   UNL     1      47.066   5.280  14.064  0.00  0.00    +0.000 A 
ATOM     23  C   UNL     1      48.011   6.176  14.576  0.00  0.00    +0.000 A 
ATOM     24  N   UNL     1      48.693   6.024  15.741  0.00  0.00    +0.000 NA
BRANCH  19  26
ATOM     25  N   UNL     1      49.823   4.627  18.631  0.00  0.00    +0.000 NA
ATOM     26  C   UNL     1      49.197   4.727  17.659  0.00  0.00    +0.000 C 
ENDBRANCH  19  26
ENDBRANCH  17  22
ENDBRANCH  16  17
ENDBRANCH   1  16
TORSDOF 7
ENDMDL
MODEL 6
REMARK VINA RESULT:    -6.624      3.401      7.940
REMARK INTER + INTRA:         -10.048
REMARK INTER:                  -9.486
REMARK INTRA:                  -0.561
REMARK UNBOUND:                -0.713
REMARK  Name = 
REMARK  7 active torsions:
REMARK  status: ('A' for Active; 'I' for Inactive)
REMARK    1  A    between atoms: C_2  and  C_3
REMARK    2  A    between atoms: C_6  and  N_7
REMARK    3  A    between atoms: N_7  and  C_8
REMARK    4  A    between atoms: C_8  and  C_9
REMARK    5  A    between atoms: C_9  and  C_12
REMARK    6  A    between atoms: C_16  and  N_17
REMARK    7  A    between atoms: N_17  and  C_18
REMARK                            x       y       z     vdW  Elec       q    Type
REMARK                         _______ _______ _______ _____ _____    ______ ____
ROOT
ATOM      1  C   UNL     1      46.847   4.366  13.696  0.00  0.00    +0.000 C 
ATOM      2  F   UNL     1      47.724   5.228  13.092  0.00  0.00    +0.000 F 
ATOM      3  F   UNL     1      47.497   3.158  13.696  0.00  0.00    +0.000 F 
ENDROOT
BRANCH   1   4
ATOM      4  C   UNL     1      45.533   4.263  12.946  0.00  0.00    +0.000 A 
ATOM      5  C   UNL     1      44.491   5.163  13.199  0.00  0.00    +0.000 A 
ATOM      6  C   UNL     1      43.304   5.094  12.467  0.00  0.00    +0.000 A 
ATOM      7  C   UNL     1      43.138   4.117  11.481  0.00  0.00    +0.000 A 
ATOM      8  C   UNL     1      44.164   3.212  11.206  0.00  0.00    +0.000 A 
ATOM      9  C   UNL     1      45.355   3.297  11.941  0.00  0.00    +0.000 A 
BRANCH   8  10
ATOM     10  N   UNL     1      44.067   2.199  10.229  0.00  0.00    +0.000 N 
ATOM     11  H   UNL     1      44.365   1.310  10.631  0.00  0.00    +0.000 HD
BRANCH  10  12
ATOM     12  C   UNL     1      44.411   2.316   8.836  0.00  0.00    +0.000 C 
ATOM     13  C   UNL     1      45.859   1.919   8.509  0.00  0.00    +0.000 C 
ATOM     14  O   UNL     1      46.124   3.217   7.914  0.00  0.00    +0.000 OA
ATOM     15  C   UNL     1      44.889   3.733   8.470  0.00  0.00    +0.000 C 
ENDBRANCH  10  12
ENDBRANCH   8  10
ENDBRANCH   1   4
BRANCH   1  16
ATOM     16  C   UNL     1      46.698   4.796  15.181  0.00  0.00    +0.000 C 
BRANCH  16  17
ATOM     17  N   UNL     1      46.901   3.708  16.161  0.00  0.00    +0.000 N 
ATOM     18  H   UNL     1      46.455   2.834  15.881  0.00  0.00    +0.000 HD
BRANCH  17  22
ATOM     19  C   UNL     1      50.788   3.327  17.628  0.00  0.00    +0.000 A 
ATOM     20  C   UNL     1      50.155   2.181  17.166  0.00  0.00    +0.000 A 
ATOM     21  C   UNL     1      48.842   2.284  16.693  0.00  0.00    +0.000 A 
ATOM     22  C   UNL     1      48.176   3.512  16.702  0.00  0.00    +0.000 A 
ATOM     23  C   UNL     1      48.926   4.601  17.158  0.00  0.00    +0.000 A 
ATOM     24  N   UNL     1      50.196   4.540  17.634  0.00  0.00    +0.000 NA
BRANCH  19  26
ATOM     25  N   UNL     1      53.236   3.188  18.487  0.00  0.00    +0.000 NA
ATOM     26  C   UNL     1      52.140   3.272  18.115  0.00  0.00    +0.000 C 
ENDBRANCH  19  26
ENDBRANCH  17  22
ENDBRANCH  16  17
ENDBRANCH   1  16
TORSDOF 7
ENDMDL
MODEL 7
REMARK VINA RESULT:    -6.214      3.157      8.081
REMARK INTER + INTRA:          -9.470
REMARK INTER:                  -8.974
REMARK INTRA:                  -0.496
REMARK UNBOUND:                -0.713
REMARK  Name = 
REMARK  7 active torsions:
REMARK  status: ('A' for Active; 'I' for Inactive)
REMARK    1  A    between atoms: C_2  and  C_3
REMARK    2  A    between atoms: C_6  and  N_7
REMARK    3  A    between atoms: N_7  and  C_8
REMARK    4  A    between atoms: C_8  and  C_9
REMARK    5  A    between atoms: C_9  and  C_12
REMARK    6  A    between atoms: C_16  and  N_17
REMARK    7  A    between atoms: N_17  and  C_18
REMARK                            x       y       z     vdW  Elec       q    Type
REMARK                         _______ _______ _______ _____ _____    ______ ____
ROOT
ATOM      1  C   UNL     1      46.701   6.517  12.386  0.00  0.00    +0.000 C 
ATOM      2  F   UNL     1      46.313   7.717  12.920  0.00  0.00    +0.000 F 
ATOM      3  F   UNL     1      47.468   6.855  11.301  0.00  0.00    +0.000 F 
ENDROOT
BRANCH   1   4
ATOM      4  C   UNL     1      45.519   5.668  11.959  0.00  0.00    +0.000 A 
ATOM      5  C   UNL     1      44.581   5.221  12.897  0.00  0.00    +0.000 A 
ATOM      6  C   UNL     1      43.467   4.485  12.487  0.00  0.00    +0.000 A 
ATOM      7  C   UNL     1      43.283   4.177  11.136  0.00  0.00    +0.000 A 
ATOM      8  C   UNL     1      44.200   4.617  10.181  0.00  0.00    +0.000 A 
ATOM      9  C   UNL     1      45.309   5.362  10.603  0.00  0.00    +0.000 A 
BRANCH   8  10
ATOM     10  N   UNL     1      44.080   4.342   8.802  0.00  0.00    +0.000 N 
ATOM     11  H   UNL     1      43.174   4.669   8.468  0.00  0.00    +0.000 HD
BRANCH  10  12
ATOM     12  C   UNL     1      44.520   3.151   8.124  0.00  0.00    +0.000 C 
ATOM     13  C   UNL     1      45.162   2.102   9.045  0.00  0.00    +0.000 C 
ATOM     14  O   UNL     1      46.383   2.101   8.259  0.00  0.00    +0.000 OA
ATOM     15  C   UNL     1      45.945   3.293   7.561  0.00  0.00    +0.000 C 
ENDBRANCH  10  12
ENDBRANCH   8  10
ENDBRANCH   1   4
BRANCH   1  16
ATOM     16  C   UNL     1      47.645   5.821  13.405  0.00  0.00    +0.000 C 
BRANCH  16  17
ATOM     17  N   UNL     1      47.590   6.379  14.774  0.00  0.00    +0.000 N 
ATOM     18  H   UNL     1      46.649   6.375  15.166  0.00  0.00    +0.000 HD
BRANCH  17  22
ATOM     19  C   UNL     1      50.303   5.240  17.732  0.00  0.00    +0.000 A 
ATOM     20  C   UNL     1      50.690   6.239  16.849  0.00  0.00    +0.000 A 
ATOM     21  C   UNL     1      49.803   6.617  15.836  0.00  0.00    +0.000 A 
ATOM     22  C   UNL     1      48.562   5.990  15.703  0.00  0.00    +0.000 A 
ATOM     23  C   UNL     1      48.270   5.023  16.671  0.00  0.00    +0.000 A 
ATOM     24  N   UNL     1      49.106   4.621  17.662  0.00  0.00    +0.000 NA
BRANCH  19  26
ATOM     25  N   UNL     1      51.916   4.508  19.633  0.00  0.00    +0.000 NA
ATOM     26  C   UNL     1      51.177   4.824  18.796  0.00  0.00    +0.000 C 
ENDBRANCH  19  26
ENDBRANCH  17  22
ENDBRANCH  16  17
ENDBRANCH   1  16
TORSDOF 7
ENDMDL
MODEL 8
REMARK VINA RESULT:    -6.115      4.325      7.406
REMARK INTER + INTRA:          -9.330
REMARK INTER:                  -8.772
REMARK INTRA:                  -0.558
REMARK UNBOUND:                -0.713
REMARK  Name = 
REMARK  7 active torsions:
REMARK  status: ('A' for Active; 'I' for Inactive)
REMARK    1  A    between atoms: C_2  and  C_3
REMARK    2  A    between atoms: C_6  and  N_7
REMARK    3  A    between atoms: N_7  and  C_8
REMARK    4  A    between atoms: C_8  and  C_9
REMARK    5  A    between atoms: C_9  and  C_12
REMARK    6  A    between atoms: C_16  and  N_17
REMARK    7  A    between atoms: N_17  and  C_18
REMARK                            x       y       z     vdW  Elec       q    Type
REMARK                         _______ _______ _______ _____ _____    ______ ____
ROOT
ATOM      1  C   UNL     1      45.180   6.181  11.654  0.00  0.00    +0.000 C 
ATOM      2  F   UNL     1      44.405   6.159  12.782  0.00  0.00    +0.000 F 
ATOM      3  F   UNL     1      44.744   7.278  10.957  0.00  0.00    +0.000 F 
ENDROOT
BRANCH   1   4
ATOM      4  C   UNL     1      45.020   4.924  10.820  0.00  0.00    +0.000 A 
ATOM      5  C   UNL     1      44.232   3.859  11.273  0.00  0.00    +0.000 A 
ATOM      6  C   UNL     1      44.047   2.728  10.476  0.00  0.00    +0.000 A 
ATOM      7  C   UNL     1      44.656   2.641   9.221  0.00  0.00    +0.000 A 
ATOM      8  C   UNL     1      45.441   3.691   8.744  0.00  0.00    +0.000 A 
ATOM      9  C   UNL     1      45.612   4.826   9.550  0.00  0.00    +0.000 A 
BRANCH   8  10
ATOM     10  N   UNL     1      46.088   3.673   7.491  0.00  0.00    +0.000 N 
ATOM     11  H   UNL     1      45.798   4.486   6.947  0.00  0.00    +0.000 HD
BRANCH  10  12
ATOM     12  C   UNL     1      46.330   2.517   6.668  0.00  0.00    +0.000 C 
ATOM     13  C   UNL     1      47.454   1.603   7.179  0.00  0.00    +0.000 C 
ATOM     14  O   UNL     1      48.175   1.721   5.924  0.00  0.00    +0.000 OA
ATOM     15  C   UNL     1      47.312   2.813   5.520  0.00  0.00    +0.000 C 
ENDBRANCH  10  12
ENDBRANCH   8  10
ENDBRANCH   1   4
BRANCH   1  16
ATOM     16  C   UNL     1      46.644   6.473  12.084  0.00  0.00    +0.000 C 
BRANCH  16  17
ATOM     17  N   UNL     1      46.987   7.910  12.163  0.00  0.00    +0.000 N 
ATOM     18  H   UNL     1      46.597   8.366  12.987  0.00  0.00    +0.000 HD
BRANCH  17  22
ATOM     19  C   UNL     1      50.815   9.247  11.181  0.00  0.00    +0.000 A 
ATOM     20  C   UNL     1      50.626   7.879  11.330  0.00  0.00    +0.000 A 
ATOM     21  C   UNL     1      49.354   7.414  11.682  0.00  0.00    +0.000 A 
ATOM     22  C   UNL     1      48.302   8.307  11.899  0.00  0.00    +0.000 A 
ATOM     23  C   UNL     1      48.605   9.656  11.686  0.00  0.00    +0.000 A 
ATOM     24  N   UNL     1      49.826  10.149  11.354  0.00  0.00    +0.000 NA
BRANCH  19  26
ATOM     25  N   UNL     1      53.128  10.235  10.531  0.00  0.00    +0.000 NA
ATOM     26  C   UNL     1      52.102   9.772  10.810  0.00  0.00    +0.000 C 
ENDBRANCH  19  26
ENDBRANCH  17  22
ENDBRANCH  16  17
ENDBRANCH   1  16
TORSDOF 7
ENDMDL
MODEL 9
REMARK VINA RESULT:    -5.940      2.756      4.234
REMARK INTER + INTRA:          -9.084
REMARK INTER:                  -8.267
REMARK INTRA:                  -0.817
REMARK UNBOUND:                -0.713
REMARK  Name = 
REMARK  7 active torsions:
REMARK  status: ('A' for Active; 'I' for Inactive)
REMARK    1  A    between atoms: C_2  and  C_3
REMARK    2  A    between atoms: C_6  and  N_7
REMARK    3  A    between atoms: N_7  and  C_8
REMARK    4  A    between atoms: C_8  and  C_9
REMARK    5  A    between atoms: C_9  and  C_12
REMARK    6  A    between atoms: C_16  and  N_17
REMARK    7  A    between atoms: N_17  and  C_18
REMARK                            x       y       z     vdW  Elec       q    Type
REMARK                         _______ _______ _______ _____ _____    ______ ____
ROOT
ATOM      1  C   UNL     1      48.043   7.774  13.153  0.00  0.00    +0.000 C 
ATOM      2  F   UNL     1      48.405   6.637  12.480  0.00  0.00    +0.000 F 
ATOM      3  F   UNL     1      48.758   8.775  12.548  0.00  0.00    +0.000 F 
ENDROOT
BRANCH   1   4
ATOM      4  C   UNL     1      48.377   7.699  14.630  0.00  0.00    +0.000 A 
ATOM      5  C   UNL     1      48.244   8.824  15.453  0.00  0.00    +0.000 A 
ATOM      6  C   UNL     1      48.502   8.733  16.822  0.00  0.00    +0.000 A 
ATOM      7  C   UNL     1      48.908   7.520  17.385  0.00  0.00    +0.000 A 
ATOM      8  C   UNL     1      49.042   6.383  16.588  0.00  0.00    +0.000 A 
ATOM      9  C   UNL     1      48.771   6.484  15.216  0.00  0.00    +0.000 A 
BRANCH   8  10
ATOM     10  N   UNL     1      49.449   5.126  17.085  0.00  0.00    +0.000 N 
ATOM     11  H   UNL     1      50.142   4.720  16.455  0.00  0.00    +0.000 HD
BRANCH  10  12
ATOM     12  C   UNL     1      48.606   4.131  17.691  0.00  0.00    +0.000 C 
ATOM     13  C   UNL     1      48.044   3.095  16.705  0.00  0.00    +0.000 C 
ATOM     14  O   UNL     1      46.679   3.409  17.090  0.00  0.00    +0.000 OA
ATOM     15  C   UNL     1      47.140   4.590  17.792  0.00  0.00    +0.000 C 
ENDBRANCH  10  12
ENDBRANCH   8  10
ENDBRANCH   1   4
BRANCH   1  16
ATOM     16  C   UNL     1      46.543   8.049  12.855  0.00  0.00    +0.000 C 
BRANCH  16  17
ATOM     17  N   UNL     1      45.628   6.952  13.238  0.00  0.00    +0.000 N 
ATOM     18  H   UNL     1      44.789   7.284  13.713  0.00  0.00    +0.000 HD
BRANCH  17  22
ATOM     19  C   UNL     1      44.999   3.783  10.599  0.00  0.00    +0.000 A 
ATOM     20  C   UNL     1      45.229   5.041  10.057  0.00  0.00    +0.000 A 
ATOM     21  C   UNL     1      45.418   6.120  10.927  0.00  0.00    +0.000 A 
ATOM     22  C   UNL     1      45.358   5.940  12.311  0.00  0.00    +0.000 A 
ATOM     23  C   UNL     1      45.155   4.624  12.738  0.00  0.00    +0.000 A 
ATOM     24  N   UNL     1      44.957   3.552  11.928  0.00  0.00    +0.000 NA
BRANCH  19  26
ATOM     25  N   UNL     1      44.681   1.740   9.026  0.00  0.00    +0.000 NA
ATOM     26  C   UNL     1      44.809   2.641   9.746  0.00  0.00    +0.000 C 
ENDBRANCH  19  26
ENDBRANCH  17  22
ENDBRANCH  16  17
ENDBRANCH   1  16
TORSDOF 7
ENDMDL
