MODEL 1
REMARK VINA RESULT:    -9.598      0.000      0.000
REMARK INTER + INTRA:         -14.238
REMARK INTER:                 -13.245
REMARK INTRA:                  -0.994
REMARK UNBOUND:                -0.994
REMARK  Name = 
REMARK  7 active torsions:
REMARK  status: ('A' for Active; 'I' for Inactive)
REMARK    1  A    between atoms: C_2  and  O_3
REMARK    2  A    between atoms: C_2  and  C_4
REMARK    3  A    between atoms: C_7  and  N_8
REMARK    4  A    between atoms: N_8  and  C_9
REMARK    5  A    between atoms: C_9  and  C_10
REMARK    6  A    between atoms: C_10  and  C_13
REMARK    7  A    between atoms: C_17  and  C_18
REMARK                            x       y       z     vdW  Elec       q    Type
REMARK                         _______ _______ _______ _____ _____    ______ ____
ROOT
ATOM      1  C   UNL     1      43.546   5.683  12.147  0.00  0.00    +0.000 C 
ATOM      2  F   UNL     1      43.150   6.848  11.555  0.00  0.00    +0.000 F 
ATOM      3  F   UNL     1      42.725   5.541  13.237  0.00  0.00    +0.000 F 
ENDROOT
BRANCH   1   4
ATOM      4  C   UNL     1      45.011   5.706  12.541  0.00  0.00    +0.000 A 
ATOM      5  C   UNL     1      45.907   6.530  11.847  0.00  0.00    +0.000 A 
ATOM      6  C   UNL     1      47.249   6.571  12.208  0.00  0.00    +0.000 A 
ATOM      7  C   UNL     1      47.704   5.811  13.287  0.00  0.00    +0.000 A 
ATOM      8  C   UNL     1      46.831   5.005  14.043  0.00  0.00    +0.000 A 
ATOM      9  C   UNL     1      45.486   4.942  13.626  0.00  0.00    +0.000 A 
BRANCH   8  10
ATOM     10  C   UNL     1      47.303   4.293  15.252  0.00  0.00    +0.000 A 
ATOM     11  C   UNL     1      47.186   4.850  16.529  0.00  0.00    +0.000 A 
ATOM     12  C   UNL     1      47.624   4.134  17.639  0.00  0.00    +0.000 A 
ATOM     13  C   UNL     1      48.170   2.875  17.458  0.00  0.00    +0.000 A 
ATOM     14  C   UNL     1      48.247   2.381  16.163  0.00  0.00    +0.000 A 
ATOM     15  N   UNL     1      47.821   3.051  15.067  0.00  0.00    +0.000 NA
ENDBRANCH   8  10
ENDBRANCH   1   4
BRANCH   1  16
ATOM     16  C   UNL     1      43.254   4.499  11.184  0.00  0.00    +0.000 C 
BRANCH  16  17
ATOM     17  N   UNL     1      43.750   4.736   9.814  0.00  0.00    +0.000 N 
ATOM     18  H   UNL     1      43.084   5.226   9.218  0.00  0.00    +0.000 HD
BRANCH  17  22
ATOM     19  C   UNL     1      46.310   1.998   7.887  0.00  0.00    +0.000 A 
ATOM     20  C   UNL     1      45.349   1.525   8.781  0.00  0.00    +0.000 A 
ATOM     21  C   UNL     1      44.479   2.419   9.416  0.00  0.00    +0.000 A 
ATOM     22  C   UNL     1      44.521   3.792   9.143  0.00  0.00    +0.000 A 
ATOM     23  C   UNL     1      45.492   4.246   8.236  0.00  0.00    +0.000 A 
ATOM     24  C   UNL     1      46.374   3.365   7.602  0.00  0.00    +0.000 A 
BRANCH  19  26
ATOM     25  O   UNL     1      48.016   1.322   6.377  0.00  0.00    +0.000 OA
ATOM     26  C   UNL     1      47.227   1.019   7.256  0.00  0.00    +0.000 C 
BRANCH  26  27
ATOM     27  O   UNL     1      47.068  -0.240   7.711  0.00  0.00    +0.000 OA
ATOM     28  H   UNL     1      47.895  -0.692   7.955  0.00  0.00    +0.000 HD
ENDBRANCH  26  27
ENDBRANCH  19  26
ENDBRANCH  17  22
ENDBRANCH  16  17
ENDBRANCH   1  16
TORSDOF 7
ENDMDL
MODEL 2
REMARK VINA RESULT:    -9.025      1.906      3.674
REMARK INTER + INTRA:         -13.448
REMARK INTER:                 -12.251
REMARK INTRA:                  -1.196
REMARK UNBOUND:                -0.994
REMARK  Name = 
REMARK  7 active torsions:
REMARK  status: ('A' for Active; 'I' for Inactive)
REMARK    1  A    between atoms: C_2  and  O_3
REMARK    2  A    between atoms: C_2  and  C_4
REMARK    3  A    between atoms: C_7  and  N_8
REMARK    4  A    between atoms: N_8  and  C_9
REMARK    5  A    between atoms: C_9  and  C_10
REMARK    6  A    between atoms: C_10  and  C_13
REMARK    7  A    between atoms: C_17  and  C_18
REMARK                            x       y       z     vdW  Elec       q    Type
REMARK                         _______ _______ _______ _____ _____    ______ ____
ROOT
ATOM      1  C   UNL     1      43.410   5.579  12.124  0.00  0.00    +0.000 C 
ATOM      2  F   UNL     1      43.026   6.794  11.634  0.00  0.00    +0.000 F 
ATOM      3  F   UNL     1      42.566   5.338  13.178  0.00  0.00    +0.000 F 
ENDROOT
BRANCH   1   4
ATOM      4  C   UNL     1      44.866   5.564  12.549  0.00  0.00    +0.000 A 
ATOM      5  C   UNL     1      45.393   4.438  13.194  0.00  0.00    +0.000 A 
ATOM      6  C   UNL     1      46.730   4.407  13.576  0.00  0.00    +0.000 A 
ATOM      7  C   UNL     1      47.561   5.491  13.290  0.00  0.00    +0.000 A 
ATOM      8  C   UNL     1      47.088   6.624  12.602  0.00  0.00    +0.000 A 
ATOM      9  C   UNL     1      45.717   6.653  12.271  0.00  0.00    +0.000 A 
BRANCH   8  10
ATOM     10  C   UNL     1      48.005   7.717  12.206  0.00  0.00    +0.000 A 
ATOM     11  C   UNL     1      47.562   9.035  12.062  0.00  0.00    +0.000 A 
ATOM     12  C   UNL     1      48.464  10.034  11.709  0.00  0.00    +0.000 A 
ATOM     13  C   UNL     1      49.794   9.702  11.509  0.00  0.00    +0.000 A 
ATOM     14  C   UNL     1      50.165   8.376  11.679  0.00  0.00    +0.000 A 
ATOM     15  N   UNL     1      49.310   7.386  12.029  0.00  0.00    +0.000 NA
ENDBRANCH   8  10
ENDBRANCH   1   4
BRANCH   1  16
ATOM     16  C   UNL     1      43.139   4.490  11.050  0.00  0.00    +0.000 C 
BRANCH  16  17
ATOM     17  N   UNL     1      43.793   4.779   9.758  0.00  0.00    +0.000 N 
ATOM     18  H   UNL     1      43.175   5.220   9.078  0.00  0.00    +0.000 HD
BRANCH  17  22
ATOM     19  C   UNL     1      46.391   2.007   7.935  0.00  0.00    +0.000 A 
ATOM     20  C   UNL     1      46.550   3.369   7.675  0.00  0.00    +0.000 A 
ATOM     21  C   UNL     1      45.707   4.304   8.286  0.00  0.00    +0.000 A 
ATOM     22  C   UNL     1      44.720   3.907   9.198  0.00  0.00    +0.000 A 
ATOM     23  C   UNL     1      44.582   2.534   9.450  0.00  0.00    +0.000 A 
ATOM     24  C   UNL     1      45.412   1.586   8.839  0.00  0.00    +0.000 A 
BRANCH  19  26
ATOM     25  O   UNL     1      47.982   1.361   6.292  0.00  0.00    +0.000 OA
ATOM     26  C   UNL     1      47.291   1.050   7.248  0.00  0.00    +0.000 C 
BRANCH  26  27
ATOM     27  O   UNL     1      47.231  -0.200   7.748  0.00  0.00    +0.000 OA
ATOM     28  H   UNL     1      47.858  -0.829   7.347  0.00  0.00    +0.000 HD
ENDBRANCH  26  27
ENDBRANCH  19  26
ENDBRANCH  17  22
ENDBRANCH  16  17
ENDBRANCH   1  16
TORSDOF 7
ENDMDL
MODEL 3
REMARK VINA RESULT:    -8.927      1.146      1.694
REMARK INTER + INTRA:         -13.313
REMARK INTER:                 -12.178
REMARK INTRA:                  -1.135
REMARK UNBOUND:                -0.994
REMARK  Name = 
REMARK  7 active torsions:
REMARK  status: ('A' for Active; 'I' for Inactive)
REMARK    1  A    between atoms: C_2  and  O_3
REMARK    2  A    between atoms: C_2  and  C_4
REMARK    3  A    between atoms: C_7  and  N_8
REMARK    4  A    between atoms: N_8  and  C_9
REMARK    5  A    between atoms: C_9  and  C_10
REMARK    6  A    between atoms: C_10  and  C_13
REMARK    7  A    between atoms: C_17  and  C_18
REMARK                            x       y       z     vdW  Elec       q    Type
REMARK                         _______ _______ _______ _____ _____    ______ ____
ROOT
ATOM      1  C   UNL     1      43.952   4.910  12.238  0.00  0.00    +0.000 C 
ATOM      2  F   UNL     1      43.486   5.702  11.229  0.00  0.00    +0.000 F 
ATOM      3  F   UNL     1      43.029   5.039  13.246  0.00  0.00    +0.000 F 
ENDROOT
BRANCH   1   4
ATOM      4  C   UNL     1      45.343   5.311  12.689  0.00  0.00    +0.000 A 
ATOM      5  C   UNL     1      46.074   6.248  11.947  0.00  0.00    +0.000 A 
ATOM      6  C   UNL     1      47.345   6.633  12.358  0.00  0.00    +0.000 A 
ATOM      7  C   UNL     1      47.887   6.109  13.533  0.00  0.00    +0.000 A 
ATOM      8  C   UNL     1      47.170   5.201  14.336  0.00  0.00    +0.000 A 
ATOM      9  C   UNL     1      45.905   4.787  13.871  0.00  0.00    +0.000 A 
BRANCH   8  10
ATOM     10  C   UNL     1      47.709   4.739  15.635  0.00  0.00    +0.000 A 
ATOM     11  C   UNL     1      47.132   3.676  16.336  0.00  0.00    +0.000 A 
ATOM     12  C   UNL     1      47.686   3.262  17.544  0.00  0.00    +0.000 A 
ATOM     13  C   UNL     1      48.807   3.913  18.030  0.00  0.00    +0.000 A 
ATOM     14  C   UNL     1      49.332   4.953  17.277  0.00  0.00    +0.000 A 
ATOM     15  N   UNL     1      48.819   5.372  16.096  0.00  0.00    +0.000 NA
ENDBRANCH   8  10
ENDBRANCH   1   4
BRANCH   1  16
ATOM     16  C   UNL     1      43.929   3.428  11.772  0.00  0.00    +0.000 C 
BRANCH  16  17
ATOM     17  N   UNL     1      43.657   3.283  10.328  0.00  0.00    +0.000 N 
ATOM     18  H   UNL     1      42.825   2.730  10.123  0.00  0.00    +0.000 HD
BRANCH  17  22
ATOM     19  C   UNL     1      46.599   2.631   7.382  0.00  0.00    +0.000 A 
ATOM     20  C   UNL     1      46.172   3.932   7.648  0.00  0.00    +0.000 A 
ATOM     21  C   UNL     1      45.209   4.168   8.637  0.00  0.00    +0.000 A 
ATOM     22  C   UNL     1      44.684   3.121   9.404  0.00  0.00    +0.000 A 
ATOM     23  C   UNL     1      45.131   1.821   9.124  0.00  0.00    +0.000 A 
ATOM     24  C   UNL     1      46.087   1.569   8.133  0.00  0.00    +0.000 A 
BRANCH  19  26
ATOM     25  O   UNL     1      48.467   1.565   6.370  0.00  0.00    +0.000 OA
ATOM     26  C   UNL     1      47.603   2.424   6.311  0.00  0.00    +0.000 C 
BRANCH  26  27
ATOM     27  O   UNL     1      47.499   3.306   5.297  0.00  0.00    +0.000 OA
ATOM     28  H   UNL     1      48.191   3.228   4.616  0.00  0.00    +0.000 HD
ENDBRANCH  26  27
ENDBRANCH  19  26
ENDBRANCH  17  22
ENDBRANCH  16  17
ENDBRANCH   1  16
TORSDOF 7
ENDMDL
MODEL 4
REMARK VINA RESULT:    -8.865      2.271      4.192
REMARK INTER + INTRA:         -13.228
REMARK INTER:                 -12.117
REMARK INTRA:                  -1.111
REMARK UNBOUND:                -0.994
REMARK  Name = 
REMARK  7 active torsions:
REMARK  status: ('A' for Active; 'I' for Inactive)
REMARK    1  A    between atoms: C_2  and  O_3
REMARK    2  A    between atoms: C_2  and  C_4
REMARK    3  A    between atoms: C_7  and  N_8
REMARK    4  A    between atoms: N_8  and  C_9
REMARK    5  A    between atoms: C_9  and  C_10
REMARK    6  A    between atoms: C_10  and  C_13
REMARK    7  A    between atoms: C_17  and  C_18
REMARK                            x       y       z     vdW  Elec       q    Type
REMARK                         _______ _______ _______ _____ _____    ______ ____
ROOT
ATOM      1  C   UNL     1      43.366   4.617  12.699  0.00  0.00    +0.000 C 
ATOM      2  F   UNL     1      42.362   5.516  12.483  0.00  0.00    +0.000 F 
ATOM      3  F   UNL     1      42.999   3.942  13.837  0.00  0.00    +0.000 F 
ENDROOT
BRANCH   1   4
ATOM      4  C   UNL     1      44.717   5.289  12.850  0.00  0.00    +0.000 A 
ATOM      5  C   UNL     1      45.839   4.528  13.206  0.00  0.00    +0.000 A 
ATOM      6  C   UNL     1      47.086   5.130  13.334  0.00  0.00    +0.000 A 
ATOM      7  C   UNL     1      47.230   6.494  13.077  0.00  0.00    +0.000 A 
ATOM      8  C   UNL     1      46.141   7.289  12.670  0.00  0.00    +0.000 A 
ATOM      9  C   UNL     1      44.879   6.666  12.598  0.00  0.00    +0.000 A 
BRANCH   8  10
ATOM     10  C   UNL     1      46.330   8.708  12.293  0.00  0.00    +0.000 A 
ATOM     11  C   UNL     1      47.602   9.267  12.136  0.00  0.00    +0.000 A 
ATOM     12  C   UNL     1      47.731  10.600  11.759  0.00  0.00    +0.000 A 
ATOM     13  C   UNL     1      46.590  11.353  11.543  0.00  0.00    +0.000 A 
ATOM     14  C   UNL     1      45.360  10.732  11.708  0.00  0.00    +0.000 A 
ATOM     15  N   UNL     1      45.205   9.435  12.066  0.00  0.00    +0.000 NA
ENDBRANCH   8  10
ENDBRANCH   1   4
BRANCH   1  16
ATOM     16  C   UNL     1      43.388   3.589  11.534  0.00  0.00    +0.000 C 
BRANCH  16  17
ATOM     17  N   UNL     1      43.695   4.207  10.229  0.00  0.00    +0.000 N 
ATOM     18  H   UNL     1      42.885   4.635   9.780  0.00  0.00    +0.000 HD
BRANCH  17  22
ATOM     19  C   UNL     1      46.617   2.593   7.657  0.00  0.00    +0.000 A 
ATOM     20  C   UNL     1      45.854   1.736   8.451  0.00  0.00    +0.000 A 
ATOM     21  C   UNL     1      44.867   2.254   9.297  0.00  0.00    +0.000 A 
ATOM     22  C   UNL     1      44.592   3.627   9.339  0.00  0.00    +0.000 A 
ATOM     23  C   UNL     1      45.367   4.470   8.528  0.00  0.00    +0.000 A 
ATOM     24  C   UNL     1      46.364   3.966   7.684  0.00  0.00    +0.000 A 
BRANCH  19  26
ATOM     25  O   UNL     1      47.650   0.837   6.432  0.00  0.00    +0.000 OA
ATOM     26  C   UNL     1      47.668   2.003   6.793  0.00  0.00    +0.000 C 
BRANCH  26  27
ATOM     27  O   UNL     1      48.662   2.861   6.491  0.00  0.00    +0.000 OA
ATOM     28  H   UNL     1      48.623   3.228   5.590  0.00  0.00    +0.000 HD
ENDBRANCH  26  27
ENDBRANCH  19  26
ENDBRANCH  17  22
ENDBRANCH  16  17
ENDBRANCH   1  16
TORSDOF 7
ENDMDL
MODEL 5
REMARK VINA RESULT:    -8.054      3.476      7.332
REMARK INTER + INTRA:         -12.108
REMARK INTER:                 -11.026
REMARK INTRA:                  -1.082
REMARK UNBOUND:                -0.994
REMARK  Name = 
REMARK  7 active torsions:
REMARK  status: ('A' for Active; 'I' for Inactive)
REMARK    1  A    between atoms: C_2  and  O_3
REMARK    2  A    between atoms: C_2  and  C_4
REMARK    3  A    between atoms: C_7  and  N_8
REMARK    4  A    between atoms: N_8  and  C_9
REMARK    5  A    between atoms: C_9  and  C_10
REMARK    6  A    between atoms: C_10  and  C_13
REMARK    7  A    between atoms: C_17  and  C_18
REMARK                            x       y       z     vdW  Elec       q    Type
REMARK                         _______ _______ _______ _____ _____    ______ ____
ROOT
ATOM      1  C   UNL     1      45.888   7.591  12.028  0.00  0.00    +0.000 C 
ATOM      2  F   UNL     1      45.428   7.894  13.278  0.00  0.00    +0.000 F 
ATOM      3  F   UNL     1      45.770   8.757  11.315  0.00  0.00    +0.000 F 
ENDROOT
BRANCH   1   4
ATOM      4  C   UNL     1      45.111   6.456  11.389  0.00  0.00    +0.000 A 
ATOM      5  C   UNL     1      43.745   6.304  11.661  0.00  0.00    +0.000 A 
ATOM      6  C   UNL     1      43.020   5.276  11.069  0.00  0.00    +0.000 A 
ATOM      7  C   UNL     1      43.647   4.405  10.176  0.00  0.00    +0.000 A 
ATOM      8  C   UNL     1      45.006   4.547   9.836  0.00  0.00    +0.000 A 
ATOM      9  C   UNL     1      45.731   5.566  10.488  0.00  0.00    +0.000 A 
BRANCH   8  10
ATOM     10  C   UNL     1      45.629   3.688   8.805  0.00  0.00    +0.000 A 
ATOM     11  C   UNL     1      45.651   2.295   8.921  0.00  0.00    +0.000 A 
ATOM     12  C   UNL     1      46.230   1.526   7.915  0.00  0.00    +0.000 A 
ATOM     13  C   UNL     1      46.774   2.159   6.811  0.00  0.00    +0.000 A 
ATOM     14  C   UNL     1      46.709   3.544   6.758  0.00  0.00    +0.000 A 
ATOM     15  N   UNL     1      46.145   4.316   7.717  0.00  0.00    +0.000 NA
ENDBRANCH   8  10
ENDBRANCH   1   4
BRANCH   1  16
ATOM     16  C   UNL     1      47.400   7.245  12.113  0.00  0.00    +0.000 C 
BRANCH  16  17
ATOM     17  N   UNL     1      47.944   7.375  13.479  0.00  0.00    +0.000 N 
ATOM     18  H   UNL     1      48.784   7.951  13.531  0.00  0.00    +0.000 HD
BRANCH  17  22
ATOM     19  C   UNL     1      47.799   4.317  16.374  0.00  0.00    +0.000 A 
ATOM     20  C   UNL     1      47.131   4.144  15.162  0.00  0.00    +0.000 A 
ATOM     21  C   UNL     1      47.184   5.143  14.182  0.00  0.00    +0.000 A 
ATOM     22  C   UNL     1      47.935   6.310  14.373  0.00  0.00    +0.000 A 
ATOM     23  C   UNL     1      48.604   6.460  15.597  0.00  0.00    +0.000 A 
ATOM     24  C   UNL     1      48.552   5.474  16.590  0.00  0.00    +0.000 A 
BRANCH  19  26
ATOM     25  O   UNL     1      48.673   2.748  17.932  0.00  0.00    +0.000 OA
ATOM     26  C   UNL     1      47.697   3.244  17.393  0.00  0.00    +0.000 C 
BRANCH  26  27
ATOM     27  O   UNL     1      46.433   2.841  17.626  0.00  0.00    +0.000 OA
ATOM     28  H   UNL     1      45.891   3.471  18.136  0.00  0.00    +0.000 HD
ENDBRANCH  26  27
ENDBRANCH  19  26
ENDBRANCH  17  22
ENDBRANCH  16  17
ENDBRANCH   1  16
TORSDOF 7
ENDMDL
MODEL 6
REMARK VINA RESULT:    -7.835      2.944      4.005
REMARK INTER + INTRA:         -11.806
REMARK INTER:                 -10.864
REMARK INTRA:                  -0.943
REMARK UNBOUND:                -0.994
REMARK  Name = 
REMARK  7 active torsions:
REMARK  status: ('A' for Active; 'I' for Inactive)
REMARK    1  A    between atoms: C_2  and  O_3
REMARK    2  A    between atoms: C_2  and  C_4
REMARK    3  A    between atoms: C_7  and  N_8
REMARK    4  A    between atoms: N_8  and  C_9
REMARK    5  A    between atoms: C_9  and  C_10
REMARK    6  A    between atoms: C_10  and  C_13
REMARK    7  A    between atoms: C_17  and  C_18
REMARK                            x       y       z     vdW  Elec       q    Type
REMARK                         _______ _______ _______ _____ _____    ______ ____
ROOT
ATOM      1  C   UNL     1      45.127   5.384  12.254  0.00  0.00    +0.000 C 
ATOM      2  F   UNL     1      44.531   5.121  13.453  0.00  0.00    +0.000 F 
ATOM      3  F   UNL     1      46.025   4.362  12.071  0.00  0.00    +0.000 F 
ENDROOT
BRANCH   1   4
ATOM      4  C   UNL     1      45.802   6.742  12.231  0.00  0.00    +0.000 A 
ATOM      5  C   UNL     1      45.029   7.907  12.324  0.00  0.00    +0.000 A 
ATOM      6  C   UNL     1      45.638   9.157  12.318  0.00  0.00    +0.000 A 
ATOM      7  C   UNL     1      47.029   9.255  12.252  0.00  0.00    +0.000 A 
ATOM      8  C   UNL     1      47.849   8.111  12.206  0.00  0.00    +0.000 A 
ATOM      9  C   UNL     1      47.205   6.857  12.160  0.00  0.00    +0.000 A 
BRANCH   8  10
ATOM     10  C   UNL     1      49.324   8.225  12.248  0.00  0.00    +0.000 A 
ATOM     11  C   UNL     1      50.125   7.826  11.175  0.00  0.00    +0.000 A 
ATOM     12  C   UNL     1      51.507   7.972  11.250  0.00  0.00    +0.000 A 
ATOM     13  C   UNL     1      52.066   8.516  12.394  0.00  0.00    +0.000 A 
ATOM     14  C   UNL     1      51.210   8.900  13.416  0.00  0.00    +0.000 A 
ATOM     15  N   UNL     1      49.863   8.777  13.366  0.00  0.00    +0.000 NA
ENDBRANCH   8  10
ENDBRANCH   1   4
BRANCH   1  16
ATOM     16  C   UNL     1      44.064   5.279  11.125  0.00  0.00    +0.000 C 
BRANCH  16  17
ATOM     17  N   UNL     1      43.948   3.916  10.570  0.00  0.00    +0.000 N 
ATOM     18  H   UNL     1      43.784   3.200  11.277  0.00  0.00    +0.000 HD
BRANCH  17  22
ATOM     19  C   UNL     1      46.553   2.766   7.463  0.00  0.00    +0.000 A 
ATOM     20  C   UNL     1      45.948   1.784   8.249  0.00  0.00    +0.000 A 
ATOM     21  C   UNL     1      45.065   2.148   9.273  0.00  0.00    +0.000 A 
ATOM     22  C   UNL     1      44.738   3.490   9.508  0.00  0.00    +0.000 A 
ATOM     23  C   UNL     1      45.353   4.460   8.702  0.00  0.00    +0.000 A 
ATOM     24  C   UNL     1      46.244   4.111   7.681  0.00  0.00    +0.000 A 
BRANCH  19  26
ATOM     25  O   UNL     1      48.269   1.401   6.546  0.00  0.00    +0.000 OA
ATOM     26  C   UNL     1      47.498   2.337   6.405  0.00  0.00    +0.000 C 
BRANCH  26  27
ATOM     27  O   UNL     1      47.457   3.107   5.301  0.00  0.00    +0.000 OA
ATOM     28  H   UNL     1      47.073   2.675   4.517  0.00  0.00    +0.000 HD
ENDBRANCH  26  27
ENDBRANCH  19  26
ENDBRANCH  17  22
ENDBRANCH  16  17
ENDBRANCH   1  16
TORSDOF 7
ENDMDL
MODEL 7
REMARK VINA RESULT:    -7.586      3.584      7.407
REMARK INTER + INTRA:         -11.462
REMARK INTER:                 -10.619
REMARK INTRA:                  -0.843
REMARK UNBOUND:                -0.994
REMARK  Name = 
REMARK  7 active torsions:
REMARK  status: ('A' for Active; 'I' for Inactive)
REMARK    1  A    between atoms: C_2  and  O_3
REMARK    2  A    between atoms: C_2  and  C_4
REMARK    3  A    between atoms: C_7  and  N_8
REMARK    4  A    between atoms: N_8  and  C_9
REMARK    5  A    between atoms: C_9  and  C_10
REMARK    6  A    between atoms: C_10  and  C_13
REMARK    7  A    between atoms: C_17  and  C_18
REMARK                            x       y       z     vdW  Elec       q    Type
REMARK                         _______ _______ _______ _____ _____    ______ ____
ROOT
ATOM      1  C   UNL     1      44.411   6.300  11.884  0.00  0.00    +0.000 C 
ATOM      2  F   UNL     1      44.023   6.402  13.189  0.00  0.00    +0.000 F 
ATOM      3  F   UNL     1      43.581   7.151  11.199  0.00  0.00    +0.000 F 
ENDROOT
BRANCH   1   4
ATOM      4  C   UNL     1      44.317   4.877  11.366  0.00  0.00    +0.000 A 
ATOM      5  C   UNL     1      43.414   3.979  11.951  0.00  0.00    +0.000 A 
ATOM      6  C   UNL     1      43.310   2.677  11.475  0.00  0.00    +0.000 A 
ATOM      7  C   UNL     1      44.084   2.267  10.389  0.00  0.00    +0.000 A 
ATOM      8  C   UNL     1      44.969   3.148   9.739  0.00  0.00    +0.000 A 
ATOM      9  C   UNL     1      45.095   4.447  10.272  0.00  0.00    +0.000 A 
BRANCH   8  10
ATOM     10  C   UNL     1      45.701   2.735   8.520  0.00  0.00    +0.000 A 
ATOM     11  C   UNL     1      45.951   3.626   7.472  0.00  0.00    +0.000 A 
ATOM     12  C   UNL     1      46.661   3.199   6.355  0.00  0.00    +0.000 A 
ATOM     13  C   UNL     1      47.113   1.892   6.302  0.00  0.00    +0.000 A 
ATOM     14  C   UNL     1      46.837   1.065   7.381  0.00  0.00    +0.000 A 
ATOM     15  N   UNL     1      46.155   1.456   8.484  0.00  0.00    +0.000 NA
ENDBRANCH   8  10
ENDBRANCH   1   4
BRANCH   1  16
ATOM     16  C   UNL     1      45.860   6.843  11.741  0.00  0.00    +0.000 C 
BRANCH  16  17
ATOM     17  N   UNL     1      46.884   5.868  12.163  0.00  0.00    +0.000 N 
ATOM     18  H   UNL     1      46.861   4.997  11.634  0.00  0.00    +0.000 HD
BRANCH  17  22
ATOM     19  C   UNL     1      48.051   5.138  16.146  0.00  0.00    +0.000 A 
ATOM     20  C   UNL     1      48.531   6.271  15.488  0.00  0.00    +0.000 A 
ATOM     21  C   UNL     1      48.139   6.538  14.171  0.00  0.00    +0.000 A 
ATOM     22  C   UNL     1      47.232   5.708  13.500  0.00  0.00    +0.000 A 
ATOM     23  C   UNL     1      46.757   4.577  14.182  0.00  0.00    +0.000 A 
ATOM     24  C   UNL     1      47.148   4.293  15.496  0.00  0.00    +0.000 A 
BRANCH  19  26
ATOM     25  O   UNL     1      48.880   5.770  18.282  0.00  0.00    +0.000 OA
ATOM     26  C   UNL     1      48.511   4.881  17.532  0.00  0.00    +0.000 C 
BRANCH  26  27
ATOM     27  O   UNL     1      48.529   3.574  17.860  0.00  0.00    +0.000 OA
ATOM     28  H   UNL     1      47.919   3.016  17.345  0.00  0.00    +0.000 HD
ENDBRANCH  26  27
ENDBRANCH  19  26
ENDBRANCH  17  22
ENDBRANCH  16  17
ENDBRANCH   1  16
TORSDOF 7
ENDMDL
MODEL 8
REMARK VINA RESULT:    -6.949      3.978      7.608
REMARK INTER + INTRA:         -10.583
REMARK INTER:                  -9.361
REMARK INTRA:                  -1.221
REMARK UNBOUND:                -0.994
REMARK  Name = 
REMARK  7 active torsions:
REMARK  status: ('A' for Active; 'I' for Inactive)
REMARK    1  A    between atoms: C_2  and  O_3
REMARK    2  A    between atoms: C_2  and  C_4
REMARK    3  A    between atoms: C_7  and  N_8
REMARK    4  A    between atoms: N_8  and  C_9
REMARK    5  A    between atoms: C_9  and  C_10
REMARK    6  A    between atoms: C_10  and  C_13
REMARK    7  A    between atoms: C_17  and  C_18
REMARK                            x       y       z     vdW  Elec       q    Type
REMARK                         _______ _______ _______ _____ _____    ______ ____
ROOT
ATOM      1  C   UNL     1      48.705   8.194  12.209  0.00  0.00    +0.000 C 
ATOM      2  F   UNL     1      49.105   9.221  11.403  0.00  0.00    +0.000 F 
ATOM      3  F   UNL     1      49.561   7.161  11.919  0.00  0.00    +0.000 F 
ENDROOT
BRANCH   1   4
ATOM      4  C   UNL     1      47.256   7.811  11.977  0.00  0.00    +0.000 A 
ATOM      5  C   UNL     1      46.233   8.698  12.339  0.00  0.00    +0.000 A 
ATOM      6  C   UNL     1      44.901   8.363  12.118  0.00  0.00    +0.000 A 
ATOM      7  C   UNL     1      44.580   7.151  11.505  0.00  0.00    +0.000 A 
ATOM      8  C   UNL     1      45.575   6.250  11.080  0.00  0.00    +0.000 A 
ATOM      9  C   UNL     1      46.915   6.589  11.362  0.00  0.00    +0.000 A 
BRANCH   8  10
ATOM     10  C   UNL     1      45.226   5.022  10.332  0.00  0.00    +0.000 A 
ATOM     11  C   UNL     1      45.598   4.842   8.996  0.00  0.00    +0.000 A 
ATOM     12  C   UNL     1      45.267   3.662   8.338  0.00  0.00    +0.000 A 
ATOM     13  C   UNL     1      44.572   2.680   9.023  0.00  0.00    +0.000 A 
ATOM     14  C   UNL     1      44.243   2.922  10.350  0.00  0.00    +0.000 A 
ATOM     15  N   UNL     1      44.559   4.057  11.016  0.00  0.00    +0.000 NA
ENDBRANCH   8  10
ENDBRANCH   1   4
BRANCH   1  16
ATOM     16  C   UNL     1      48.938   8.592  13.693  0.00  0.00    +0.000 C 
BRANCH  16  17
ATOM     17  N   UNL     1      49.731   7.594  14.438  0.00  0.00    +0.000 N 
ATOM     18  H   UNL     1      50.510   7.211  13.904  0.00  0.00    +0.000 HD
BRANCH  17  22
ATOM     19  C   UNL     1      47.989   4.623  16.866  0.00  0.00    +0.000 A 
ATOM     20  C   UNL     1      49.001   5.428  17.389  0.00  0.00    +0.000 A 
ATOM     21  C   UNL     1      49.578   6.432  16.601  0.00  0.00    +0.000 A 
ATOM     22  C   UNL     1      49.131   6.680  15.297  0.00  0.00    +0.000 A 
ATOM     23  C   UNL     1      48.108   5.862  14.793  0.00  0.00    +0.000 A 
ATOM     24  C   UNL     1      47.529   4.849  15.566  0.00  0.00    +0.000 A 
BRANCH  19  26
ATOM     25  O   UNL     1      46.455   2.888  17.403  0.00  0.00    +0.000 OA
ATOM     26  C   UNL     1      47.423   3.556  17.727  0.00  0.00    +0.000 C 
BRANCH  26  27
ATOM     27  O   UNL     1      48.048   3.433  18.914  0.00  0.00    +0.000 OA
ATOM     28  H   UNL     1      47.610   3.891  19.654  0.00  0.00    +0.000 HD
ENDBRANCH  26  27
ENDBRANCH  19  26
ENDBRANCH  17  22
ENDBRANCH  16  17
ENDBRANCH   1  16
TORSDOF 7
ENDMDL
