MODEL 1
REMARK VINA RESULT:    -8.543      0.000      0.000
REMARK INTER + INTRA:         -12.097
REMARK INTER:                 -11.040
REMARK INTRA:                  -1.057
REMARK UNBOUND:                -1.057
REMARK  Name = 
REMARK  5 active torsions:
REMARK  status: ('A' for Active; 'I' for Inactive)
REMARK    1  A    between atoms: C_2  and  C_4
REMARK    2  A    between atoms: C_7  and  O_8
REMARK    3  A    between atoms: O_8  and  C_9
REMARK    4  A    between atoms: C_9  and  C_10
REMARK    5  A    between atoms: C_14  and  C_15
REMARK                            x       y       z     vdW  Elec       q    Type
REMARK                         _______ _______ _______ _____ _____    ______ ____
ROOT
ATOM      1  C   UNL     1      43.517   4.457  11.344  0.00  0.00    +0.000 C 
ENDROOT
BRANCH   1   2
ATOM      2  C   UNL     1      44.773   4.868  12.079  0.00  0.00    +0.000 A 
ATOM      3  C   UNL     1      45.502   3.968  12.862  0.00  0.00    +0.000 A 
ATOM      4  C   UNL     1      46.690   4.362  13.469  0.00  0.00    +0.000 A 
ATOM      5  C   UNL     1      47.183   5.652  13.271  0.00  0.00    +0.000 A 
ATOM      6  C   UNL     1      46.503   6.577  12.461  0.00  0.00    +0.000 A 
ATOM      7  C   UNL     1      45.284   6.163  11.891  0.00  0.00    +0.000 A 
BRANCH   6   8
ATOM      8  C   UNL     1      47.066   7.911  12.174  0.00  0.00    +0.000 A 
ATOM      9  C   UNL     1      48.424   8.108  11.885  0.00  0.00    +0.000 A 
ATOM     10  C   UNL     1      48.921   9.392  11.653  0.00  0.00    +0.000 A 
ATOM     11  C   UNL     1      48.042  10.456  11.706  0.00  0.00    +0.000 A 
ATOM     12  N   UNL     1      46.729  10.327  11.980  0.00  0.00    +0.000 NA
ATOM     13  C   UNL     1      46.278   9.067  12.210  0.00  0.00    +0.000 A 
ENDBRANCH   6   8
ENDBRANCH   1   2
BRANCH   1  14
ATOM     14  O   UNL     1      43.666   4.654   9.940  0.00  0.00    +0.000 OA
BRANCH  14  18
ATOM     15  C   UNL     1      46.324   2.260   7.801  0.00  0.00    +0.000 A 
ATOM     16  C   UNL     1      45.439   1.638   8.689  0.00  0.00    +0.000 A 
ATOM     17  C   UNL     1      44.524   2.403   9.423  0.00  0.00    +0.000 A 
ATOM     18  C   UNL     1      44.492   3.792   9.276  0.00  0.00    +0.000 A 
ATOM     19  C   UNL     1      45.379   4.408   8.388  0.00  0.00    +0.000 A 
ATOM     20  C   UNL     1      46.296   3.650   7.657  0.00  0.00    +0.000 A 
BRANCH  15  22
ATOM     21  N   UNL     1      48.440   2.160   6.601  0.00  0.00    +0.000 N 
ATOM     22  C   UNL     1      47.332   1.485   7.033  0.00  0.00    +0.000 C 
ATOM     23  O   UNL     1      47.195   0.288   6.817  0.00  0.00    +0.000 OA
ATOM     24  H   UNL     1      49.161   1.599   6.166  0.00  0.00    +0.000 HD
ATOM     25  H   UNL     1      48.708   3.056   6.980  0.00  0.00    +0.000 HD
ENDBRANCH  15  22
ENDBRANCH  14  18
ENDBRANCH   1  14
TORSDOF 5
ENDMDL
MODEL 2
REMARK VINA RESULT:    -8.341      2.049      3.492
REMARK INTER + INTRA:         -11.836
REMARK INTER:                 -10.907
REMARK INTRA:                  -0.929
REMARK UNBOUND:                -1.057
REMARK  Name = 
REMARK  5 active torsions:
REMARK  status: ('A' for Active; 'I' for Inactive)
REMARK    1  A    between atoms: C_2  and  C_4
REMARK    2  A    between atoms: C_7  and  O_8
REMARK    3  A    between atoms: O_8  and  C_9
REMARK    4  A    between atoms: C_9  and  C_10
REMARK    5  A    between atoms: C_14  and  C_15
REMARK                            x       y       z     vdW  Elec       q    Type
REMARK                         _______ _______ _______ _____ _____    ______ ____
ROOT
ATOM      1  C   UNL     1      43.758   4.604  11.436  0.00  0.00    +0.000 C 
ENDROOT
BRANCH   1   2
ATOM      2  C   UNL     1      44.973   5.359  11.926  0.00  0.00    +0.000 A 
ATOM      3  C   UNL     1      45.346   6.594  11.387  0.00  0.00    +0.000 A 
ATOM      4  C   UNL     1      46.430   7.294  11.907  0.00  0.00    +0.000 A 
ATOM      5  C   UNL     1      47.133   6.784  12.999  0.00  0.00    +0.000 A 
ATOM      6  C   UNL     1      46.768   5.567  13.598  0.00  0.00    +0.000 A 
ATOM      7  C   UNL     1      45.692   4.861  13.025  0.00  0.00    +0.000 A 
BRANCH   6   8
ATOM      8  C   UNL     1      47.449   5.067  14.808  0.00  0.00    +0.000 A 
ATOM      9  C   UNL     1      47.174   3.808  15.360  0.00  0.00    +0.000 A 
ATOM     10  C   UNL     1      47.816   3.388  16.527  0.00  0.00    +0.000 A 
ATOM     11  C   UNL     1      48.731   4.239  17.115  0.00  0.00    +0.000 A 
ATOM     12  N   UNL     1      49.034   5.460  16.631  0.00  0.00    +0.000 NA
ATOM     13  C   UNL     1      48.387   5.843  15.500  0.00  0.00    +0.000 A 
ENDBRANCH   6   8
ENDBRANCH   1   2
BRANCH   1  14
ATOM     14  O   UNL     1      43.687   4.629  10.013  0.00  0.00    +0.000 OA
BRANCH  14  18
ATOM     15  C   UNL     1      46.336   2.270   7.823  0.00  0.00    +0.000 A 
ATOM     16  C   UNL     1      45.486   1.639   8.739  0.00  0.00    +0.000 A 
ATOM     17  C   UNL     1      44.576   2.391   9.491  0.00  0.00    +0.000 A 
ATOM     18  C   UNL     1      44.513   3.778   9.333  0.00  0.00    +0.000 A 
ATOM     19  C   UNL     1      45.363   4.404   8.418  0.00  0.00    +0.000 A 
ATOM     20  C   UNL     1      46.276   3.658   7.669  0.00  0.00    +0.000 A 
BRANCH  15  22
ATOM     21  N   UNL     1      48.409   2.206   6.548  0.00  0.00    +0.000 N 
ATOM     22  C   UNL     1      47.338   1.509   7.035  0.00  0.00    +0.000 C 
ATOM     23  O   UNL     1      47.231   0.304   6.849  0.00  0.00    +0.000 OA
ATOM     24  H   UNL     1      49.130   1.658   6.099  0.00  0.00    +0.000 HD
ATOM     25  H   UNL     1      48.662   3.119   6.898  0.00  0.00    +0.000 HD
ENDBRANCH  15  22
ENDBRANCH  14  18
ENDBRANCH   1  14
TORSDOF 5
ENDMDL
MODEL 3
REMARK VINA RESULT:    -7.973      1.661      2.414
REMARK INTER + INTRA:         -11.361
REMARK INTER:                 -10.574
REMARK INTRA:                  -0.787
REMARK UNBOUND:                -1.057
REMARK  Name = 
REMARK  5 active torsions:
REMARK  status: ('A' for Active; 'I' for Inactive)
REMARK    1  A    between atoms: C_2  and  C_4
REMARK    2  A    between atoms: C_7  and  O_8
REMARK    3  A    between atoms: O_8  and  C_9
REMARK    4  A    between atoms: C_9  and  C_10
REMARK    5  A    between atoms: C_14  and  C_15
REMARK                            x       y       z     vdW  Elec       q    Type
REMARK                         _______ _______ _______ _____ _____    ______ ____
ROOT
ATOM      1  C   UNL     1      44.325   3.562  11.679  0.00  0.00    +0.000 C 
ENDROOT
BRANCH   1   2
ATOM      2  C   UNL     1      44.700   5.026  11.685  0.00  0.00    +0.000 A 
ATOM      3  C   UNL     1      43.763   6.032  11.428  0.00  0.00    +0.000 A 
ATOM      4  C   UNL     1      44.127   7.372  11.509  0.00  0.00    +0.000 A 
ATOM      5  C   UNL     1      45.423   7.725  11.885  0.00  0.00    +0.000 A 
ATOM      6  C   UNL     1      46.385   6.748  12.191  0.00  0.00    +0.000 A 
ATOM      7  C   UNL     1      46.001   5.399  12.063  0.00  0.00    +0.000 A 
BRANCH   6   8
ATOM      8  C   UNL     1      47.730   7.114  12.678  0.00  0.00    +0.000 A 
ATOM      9  C   UNL     1      48.618   7.889  11.920  0.00  0.00    +0.000 A 
ATOM     10  C   UNL     1      49.894   8.183  12.403  0.00  0.00    +0.000 A 
ATOM     11  C   UNL     1      50.252   7.701  13.647  0.00  0.00    +0.000 A 
ATOM     12  N   UNL     1      49.442   6.950  14.419  0.00  0.00    +0.000 NA
ATOM     13  C   UNL     1      48.211   6.674  13.917  0.00  0.00    +0.000 A 
ENDBRANCH   6   8
ENDBRANCH   1   2
BRANCH   1  14
ATOM     14  O   UNL     1      43.825   3.173  10.402  0.00  0.00    +0.000 OA
BRANCH  14  18
ATOM     15  C   UNL     1      46.579   2.617   7.323  0.00  0.00    +0.000 A 
ATOM     16  C   UNL     1      46.072   3.904   7.536  0.00  0.00    +0.000 A 
ATOM     17  C   UNL     1      45.150   4.138   8.563  0.00  0.00    +0.000 A 
ATOM     18  C   UNL     1      44.728   3.086   9.380  0.00  0.00    +0.000 A 
ATOM     19  C   UNL     1      45.237   1.803   9.164  0.00  0.00    +0.000 A 
ATOM     20  C   UNL     1      46.153   1.564   8.138  0.00  0.00    +0.000 A 
BRANCH  15  22
ATOM     21  N   UNL     1      47.395   3.052   5.071  0.00  0.00    +0.000 N 
ATOM     22  C   UNL     1      47.531   2.325   6.221  0.00  0.00    +0.000 C 
ATOM     23  O   UNL     1      48.417   1.490   6.341  0.00  0.00    +0.000 OA
ATOM     24  H   UNL     1      48.109   2.911   4.369  0.00  0.00    +0.000 HD
ATOM     25  H   UNL     1      46.863   3.909   5.035  0.00  0.00    +0.000 HD
ENDBRANCH  15  22
ENDBRANCH  14  18
ENDBRANCH   1  14
TORSDOF 5
ENDMDL
MODEL 4
REMARK VINA RESULT:    -7.810      1.375      1.860
REMARK INTER + INTRA:         -11.150
REMARK INTER:                 -10.207
REMARK INTRA:                  -0.943
REMARK UNBOUND:                -1.057
REMARK  Name = 
REMARK  5 active torsions:
REMARK  status: ('A' for Active; 'I' for Inactive)
REMARK    1  A    between atoms: C_2  and  C_4
REMARK    2  A    between atoms: C_7  and  O_8
REMARK    3  A    between atoms: O_8  and  C_9
REMARK    4  A    between atoms: C_9  and  C_10
REMARK    5  A    between atoms: C_14  and  C_15
REMARK                            x       y       z     vdW  Elec       q    Type
REMARK                         _______ _______ _______ _____ _____    ______ ____
ROOT
ATOM      1  C   UNL     1      44.308   3.340  11.846  0.00  0.00    +0.000 C 
ENDROOT
BRANCH   1   2
ATOM      2  C   UNL     1      45.163   4.465  12.386  0.00  0.00    +0.000 A 
ATOM      3  C   UNL     1      46.326   4.224  13.123  0.00  0.00    +0.000 A 
ATOM      4  C   UNL     1      47.124   5.281  13.546  0.00  0.00    +0.000 A 
ATOM      5  C   UNL     1      46.789   6.592  13.205  0.00  0.00    +0.000 A 
ATOM      6  C   UNL     1      45.652   6.877  12.432  0.00  0.00    +0.000 A 
ATOM      7  C   UNL     1      44.840   5.790  12.052  0.00  0.00    +0.000 A 
BRANCH   6   8
ATOM      8  C   UNL     1      45.342   8.251  11.991  0.00  0.00    +0.000 A 
ATOM      9  C   UNL     1      44.246   8.547  11.168  0.00  0.00    +0.000 A 
ATOM     10  C   UNL     1      44.009   9.856  10.745  0.00  0.00    +0.000 A 
ATOM     11  C   UNL     1      44.874  10.848  11.165  0.00  0.00    +0.000 A 
ATOM     12  N   UNL     1      45.943  10.623  11.954  0.00  0.00    +0.000 NA
ATOM     13  C   UNL     1      46.151   9.338  12.341  0.00  0.00    +0.000 A 
ENDBRANCH   6   8
ENDBRANCH   1   2
BRANCH   1  14
ATOM     14  O   UNL     1      43.877   3.626  10.518  0.00  0.00    +0.000 OA
BRANCH  14  18
ATOM     15  C   UNL     1      46.459   2.782   7.356  0.00  0.00    +0.000 A 
ATOM     16  C   UNL     1      46.005   1.718   8.144  0.00  0.00    +0.000 A 
ATOM     17  C   UNL     1      45.132   1.955   9.212  0.00  0.00    +0.000 A 
ATOM     18  C   UNL     1      44.710   3.256   9.500  0.00  0.00    +0.000 A 
ATOM     19  C   UNL     1      45.165   4.314   8.709  0.00  0.00    +0.000 A 
ATOM     20  C   UNL     1      46.040   4.084   7.646  0.00  0.00    +0.000 A 
BRANCH  15  22
ATOM     21  N   UNL     1      48.647   2.075   6.556  0.00  0.00    +0.000 N 
ATOM     22  C   UNL     1      47.414   2.574   6.238  0.00  0.00    +0.000 C 
ATOM     23  O   UNL     1      47.108   2.811   5.077  0.00  0.00    +0.000 OA
ATOM     24  H   UNL     1      49.249   1.847   5.776  0.00  0.00    +0.000 HD
ATOM     25  H   UNL     1      48.836   1.628   7.442  0.00  0.00    +0.000 HD
ENDBRANCH  15  22
ENDBRANCH  14  18
ENDBRANCH   1  14
TORSDOF 5
ENDMDL
MODEL 5
REMARK VINA RESULT:    -7.216      2.591      6.797
REMARK INTER + INTRA:         -10.382
REMARK INTER:                  -9.451
REMARK INTRA:                  -0.931
REMARK UNBOUND:                -1.057
REMARK  Name = 
REMARK  5 active torsions:
REMARK  status: ('A' for Active; 'I' for Inactive)
REMARK    1  A    between atoms: C_2  and  C_4
REMARK    2  A    between atoms: C_7  and  O_8
REMARK    3  A    between atoms: O_8  and  C_9
REMARK    4  A    between atoms: C_9  and  C_10
REMARK    5  A    between atoms: C_14  and  C_15
REMARK                            x       y       z     vdW  Elec       q    Type
REMARK                         _______ _______ _______ _____ _____    ______ ____
ROOT
ATOM      1  C   UNL     1      44.299   6.599  11.442  0.00  0.00    +0.000 C 
ENDROOT
BRANCH   1   2
ATOM      2  C   UNL     1      44.270   5.125  11.108  0.00  0.00    +0.000 A 
ATOM      3  C   UNL     1      43.407   4.235  11.754  0.00  0.00    +0.000 A 
ATOM      4  C   UNL     1      43.359   2.898  11.374  0.00  0.00    +0.000 A 
ATOM      5  C   UNL     1      44.146   2.441  10.316  0.00  0.00    +0.000 A 
ATOM      6  C   UNL     1      44.997   3.310   9.613  0.00  0.00    +0.000 A 
ATOM      7  C   UNL     1      45.056   4.649  10.045  0.00  0.00    +0.000 A 
BRANCH   6   8
ATOM      8  C   UNL     1      45.763   2.854   8.436  0.00  0.00    +0.000 A 
ATOM      9  C   UNL     1      46.074   3.706   7.367  0.00  0.00    +0.000 A 
ATOM     10  C   UNL     1      46.771   3.226   6.256  0.00  0.00    +0.000 A 
ATOM     11  C   UNL     1      47.151   1.898   6.244  0.00  0.00    +0.000 A 
ATOM     12  N   UNL     1      46.879   1.034   7.241  0.00  0.00    +0.000 NA
ATOM     13  C   UNL     1      46.192   1.529   8.302  0.00  0.00    +0.000 A 
ENDBRANCH   6   8
ENDBRANCH   1   2
BRANCH   1  14
ATOM     14  O   UNL     1      44.981   6.825  12.674  0.00  0.00    +0.000 OA
BRANCH  14  18
ATOM     15  C   UNL     1      49.031   7.771  12.395  0.00  0.00    +0.000 A 
ATOM     16  C   UNL     1      48.676   6.508  12.884  0.00  0.00    +0.000 A 
ATOM     17  C   UNL     1      47.328   6.146  12.988  0.00  0.00    +0.000 A 
ATOM     18  C   UNL     1      46.328   7.044  12.608  0.00  0.00    +0.000 A 
ATOM     19  C   UNL     1      46.687   8.303  12.120  0.00  0.00    +0.000 A 
ATOM     20  C   UNL     1      48.031   8.671  12.018  0.00  0.00    +0.000 A 
BRANCH  15  22
ATOM     21  N   UNL     1      51.275   7.466  11.501  0.00  0.00    +0.000 N 
ATOM     22  C   UNL     1      50.449   8.203  12.304  0.00  0.00    +0.000 C 
ATOM     23  O   UNL     1      50.860   9.191  12.898  0.00  0.00    +0.000 OA
ATOM     24  H   UNL     1      52.210   7.829  11.373  0.00  0.00    +0.000 HD
ATOM     25  H   UNL     1      50.921   6.825  10.807  0.00  0.00    +0.000 HD
ENDBRANCH  15  22
ENDBRANCH  14  18
ENDBRANCH   1  14
TORSDOF 5
ENDMDL
MODEL 6
REMARK VINA RESULT:    -6.843      1.406      2.409
REMARK INTER + INTRA:          -9.900
REMARK INTER:                  -9.101
REMARK INTRA:                  -0.799
REMARK UNBOUND:                -1.057
REMARK  Name = 
REMARK  5 active torsions:
REMARK  status: ('A' for Active; 'I' for Inactive)
REMARK    1  A    between atoms: C_2  and  C_4
REMARK    2  A    between atoms: C_7  and  O_8
REMARK    3  A    between atoms: O_8  and  C_9
REMARK    4  A    between atoms: C_9  and  C_10
REMARK    5  A    between atoms: C_14  and  C_15
REMARK                            x       y       z     vdW  Elec       q    Type
REMARK                         _______ _______ _______ _____ _____    ______ ____
ROOT
ATOM      1  C   UNL     1      45.220   4.583  11.923  0.00  0.00    +0.000 C 
ENDROOT
BRANCH   1   2
ATOM      2  C   UNL     1      45.533   6.062  11.958  0.00  0.00    +0.000 A 
ATOM      3  C   UNL     1      44.579   7.013  12.332  0.00  0.00    +0.000 A 
ATOM      4  C   UNL     1      44.921   8.359  12.419  0.00  0.00    +0.000 A 
ATOM      5  C   UNL     1      46.232   8.766  12.168  0.00  0.00    +0.000 A 
ATOM      6  C   UNL     1      47.232   7.839  11.828  0.00  0.00    +0.000 A 
ATOM      7  C   UNL     1      46.848   6.489  11.709  0.00  0.00    +0.000 A 
BRANCH   6   8
ATOM      8  C   UNL     1      48.638   8.250  11.652  0.00  0.00    +0.000 A 
ATOM      9  C   UNL     1      49.679   7.323  11.502  0.00  0.00    +0.000 A 
ATOM     10  C   UNL     1      51.001   7.754  11.372  0.00  0.00    +0.000 A 
ATOM     11  C   UNL     1      51.252   9.112  11.388  0.00  0.00    +0.000 A 
ATOM     12  N   UNL     1      50.294  10.048  11.531  0.00  0.00    +0.000 NA
ATOM     13  C   UNL     1      49.020   9.597  11.663  0.00  0.00    +0.000 A 
ENDBRANCH   6   8
ENDBRANCH   1   2
BRANCH   1  14
ATOM     14  O   UNL     1      44.473   4.252  10.755  0.00  0.00    +0.000 OA
BRANCH  14  18
ATOM     15  C   UNL     1      46.553   2.843   7.429  0.00  0.00    +0.000 A 
ATOM     16  C   UNL     1      46.480   4.226   7.629  0.00  0.00    +0.000 A 
ATOM     17  C   UNL     1      45.798   4.743   8.737  0.00  0.00    +0.000 A 
ATOM     18  C   UNL     1      45.182   3.881   9.647  0.00  0.00    +0.000 A 
ATOM     19  C   UNL     1      45.257   2.500   9.443  0.00  0.00    +0.000 A 
ATOM     20  C   UNL     1      45.933   1.980   8.337  0.00  0.00    +0.000 A 
BRANCH  15  22
ATOM     21  N   UNL     1      47.072   2.903   5.051  0.00  0.00    +0.000 N 
ATOM     22  C   UNL     1      47.237   2.260   6.247  0.00  0.00    +0.000 C 
ATOM     23  O   UNL     1      47.942   1.263   6.337  0.00  0.00    +0.000 OA
ATOM     24  H   UNL     1      47.621   2.552   4.277  0.00  0.00    +0.000 HD
ATOM     25  H   UNL     1      46.728   3.850   4.991  0.00  0.00    +0.000 HD
ENDBRANCH  15  22
ENDBRANCH  14  18
ENDBRANCH   1  14
TORSDOF 5
ENDMDL
MODEL 7
REMARK VINA RESULT:    -6.545      4.346      8.043
REMARK INTER + INTRA:          -9.515
REMARK INTER:                  -8.956
REMARK INTRA:                  -0.559
REMARK UNBOUND:                -1.057
REMARK  Name = 
REMARK  5 active torsions:
REMARK  status: ('A' for Active; 'I' for Inactive)
REMARK    1  A    between atoms: C_2  and  C_4
REMARK    2  A    between atoms: C_7  and  O_8
REMARK    3  A    between atoms: O_8  and  C_9
REMARK    4  A    between atoms: C_9  and  C_10
REMARK    5  A    between atoms: C_14  and  C_15
REMARK                            x       y       z     vdW  Elec       q    Type
REMARK                         _______ _______ _______ _____ _____    ______ ____
ROOT
ATOM      1  C   UNL     1      46.167   5.144  14.030  0.00  0.00    +0.000 C 
ENDROOT
BRANCH   1   2
ATOM      2  C   UNL     1      45.188   4.875  12.910  0.00  0.00    +0.000 A 
ATOM      3  C   UNL     1      43.850   5.275  12.983  0.00  0.00    +0.000 A 
ATOM      4  C   UNL     1      42.993   5.071  11.907  0.00  0.00    +0.000 A 
ATOM      5  C   UNL     1      43.473   4.499  10.728  0.00  0.00    +0.000 A 
ATOM      6  C   UNL     1      44.819   4.119  10.597  0.00  0.00    +0.000 A 
ATOM      7  C   UNL     1      45.654   4.300  11.716  0.00  0.00    +0.000 A 
BRANCH   6   8
ATOM      8  C   UNL     1      45.353   3.599   9.323  0.00  0.00    +0.000 A 
ATOM      9  C   UNL     1      45.507   2.227   9.077  0.00  0.00    +0.000 A 
ATOM     10  C   UNL     1      46.049   1.778   7.871  0.00  0.00    +0.000 A 
ATOM     11  C   UNL     1      46.420   2.717   6.929  0.00  0.00    +0.000 A 
ATOM     12  N   UNL     1      46.297   4.046   7.110  0.00  0.00    +0.000 NA
ATOM     13  C   UNL     1      45.775   4.451   8.296  0.00  0.00    +0.000 A 
ENDBRANCH   6   8
ENDBRANCH   1   2
BRANCH   1  14
ATOM     14  O   UNL     1      46.375   3.971  14.813  0.00  0.00    +0.000 OA
BRANCH  14  18
ATOM     15  C   UNL     1      48.968   4.583  18.019  0.00  0.00    +0.000 A 
ATOM     16  C   UNL     1      48.151   3.447  18.034  0.00  0.00    +0.000 A 
ATOM     17  C   UNL     1      47.270   3.198  16.975  0.00  0.00    +0.000 A 
ATOM     18  C   UNL     1      47.199   4.085  15.897  0.00  0.00    +0.000 A 
ATOM     19  C   UNL     1      48.018   5.218  15.887  0.00  0.00    +0.000 A 
ATOM     20  C   UNL     1      48.895   5.472  16.943  0.00  0.00    +0.000 A 
BRANCH  15  22
ATOM     21  N   UNL     1      51.000   4.112  19.275  0.00  0.00    +0.000 N 
ATOM     22  C   UNL     1      49.888   4.897  19.141  0.00  0.00    +0.000 C 
ATOM     23  O   UNL     1      49.681   5.834  19.901  0.00  0.00    +0.000 OA
ATOM     24  H   UNL     1      51.665   4.398  19.981  0.00  0.00    +0.000 HD
ATOM     25  H   UNL     1      51.334   3.518  18.530  0.00  0.00    +0.000 HD
ENDBRANCH  15  22
ENDBRANCH  14  18
ENDBRANCH   1  14
TORSDOF 5
ENDMDL
MODEL 8
REMARK VINA RESULT:    -6.408      2.432      6.974
REMARK INTER + INTRA:          -9.339
REMARK INTER:                  -8.528
REMARK INTRA:                  -0.810
REMARK UNBOUND:                -1.057
REMARK  Name = 
REMARK  5 active torsions:
REMARK  status: ('A' for Active; 'I' for Inactive)
REMARK    1  A    between atoms: C_2  and  C_4
REMARK    2  A    between atoms: C_7  and  O_8
REMARK    3  A    between atoms: O_8  and  C_9
REMARK    4  A    between atoms: C_9  and  C_10
REMARK    5  A    between atoms: C_14  and  C_15
REMARK                            x       y       z     vdW  Elec       q    Type
REMARK                         _______ _______ _______ _____ _____    ______ ____
ROOT
ATOM      1  C   UNL     1      45.538   5.168  13.333  0.00  0.00    +0.000 C 
ENDROOT
BRANCH   1   2
ATOM      2  C   UNL     1      44.945   4.162  12.373  0.00  0.00    +0.000 A 
ATOM      3  C   UNL     1      43.733   3.515  12.632  0.00  0.00    +0.000 A 
ATOM      4  C   UNL     1      43.183   2.646  11.695  0.00  0.00    +0.000 A 
ATOM      5  C   UNL     1      43.819   2.441  10.471  0.00  0.00    +0.000 A 
ATOM      6  C   UNL     1      45.018   3.101  10.152  0.00  0.00    +0.000 A 
ATOM      7  C   UNL     1      45.573   3.944  11.135  0.00  0.00    +0.000 A 
BRANCH   6   8
ATOM      8  C   UNL     1      45.648   2.960   8.825  0.00  0.00    +0.000 A 
ATOM      9  C   UNL     1      46.072   1.722   8.322  0.00  0.00    +0.000 A 
ATOM     10  C   UNL     1      46.695   1.638   7.075  0.00  0.00    +0.000 A 
ATOM     11  C   UNL     1      46.872   2.801   6.350  0.00  0.00    +0.000 A 
ATOM     12  N   UNL     1      46.487   4.017   6.784  0.00  0.00    +0.000 NA
ATOM     13  C   UNL     1      45.893   4.067   8.003  0.00  0.00    +0.000 A 
ENDBRANCH   6   8
ENDBRANCH   1   2
BRANCH   1  14
ATOM     14  O   UNL     1      44.966   6.458  13.130  0.00  0.00    +0.000 OA
BRANCH  14  18
ATOM     15  C   UNL     1      47.778   9.344  12.063  0.00  0.00    +0.000 A 
ATOM     16  C   UNL     1      46.454   9.751  12.266  0.00  0.00    +0.000 A 
ATOM     17  C   UNL     1      45.478   8.816  12.632  0.00  0.00    +0.000 A 
ATOM     18  C   UNL     1      45.820   7.471  12.794  0.00  0.00    +0.000 A 
ATOM     19  C   UNL     1      47.143   7.070  12.590  0.00  0.00    +0.000 A 
ATOM     20  C   UNL     1      48.119   7.998  12.220  0.00  0.00    +0.000 A 
BRANCH  15  22
ATOM     21  N   UNL     1      49.937  10.405  12.439  0.00  0.00    +0.000 N 
ATOM     22  C   UNL     1      48.832  10.300  11.639  0.00  0.00    +0.000 C 
ATOM     23  O   UNL     1      48.736  10.949  10.606  0.00  0.00    +0.000 OA
ATOM     24  H   UNL     1      50.687  10.986  12.088  0.00  0.00    +0.000 HD
ATOM     25  H   UNL     1      50.167   9.711  13.135  0.00  0.00    +0.000 HD
ENDBRANCH  15  22
ENDBRANCH  14  18
ENDBRANCH   1  14
TORSDOF 5
ENDMDL
MODEL 9
REMARK VINA RESULT:    -6.378      4.646      8.342
REMARK INTER + INTRA:          -9.300
REMARK INTER:                  -8.612
REMARK INTRA:                  -0.688
REMARK UNBOUND:                -1.057
REMARK  Name = 
REMARK  5 active torsions:
REMARK  status: ('A' for Active; 'I' for Inactive)
REMARK    1  A    between atoms: C_2  and  C_4
REMARK    2  A    between atoms: C_7  and  O_8
REMARK    3  A    between atoms: O_8  and  C_9
REMARK    4  A    between atoms: C_9  and  C_10
REMARK    5  A    between atoms: C_14  and  C_15
REMARK                            x       y       z     vdW  Elec       q    Type
REMARK                         _______ _______ _______ _____ _____    ______ ____
ROOT
ATOM      1  C   UNL     1      48.156   7.052  13.862  0.00  0.00    +0.000 C 
ENDROOT
BRANCH   1   2
ATOM      2  C   UNL     1      46.907   7.129  13.013  0.00  0.00    +0.000 A 
ATOM      3  C   UNL     1      46.161   8.306  12.896  0.00  0.00    +0.000 A 
ATOM      4  C   UNL     1      45.056   8.360  12.053  0.00  0.00    +0.000 A 
ATOM      5  C   UNL     1      44.705   7.249  11.286  0.00  0.00    +0.000 A 
ATOM      6  C   UNL     1      45.450   6.059  11.342  0.00  0.00    +0.000 A 
ATOM      7  C   UNL     1      46.539   6.019  12.234  0.00  0.00    +0.000 A 
BRANCH   6   8
ATOM      8  C   UNL     1      45.139   4.912  10.466  0.00  0.00    +0.000 A 
ATOM      9  C   UNL     1      45.557   4.852   9.129  0.00  0.00    +0.000 A 
ATOM     10  C   UNL     1      45.212   3.764   8.326  0.00  0.00    +0.000 A 
ATOM     11  C   UNL     1      44.459   2.749   8.883  0.00  0.00    +0.000 A 
ATOM     12  N   UNL     1      44.029   2.753  10.161  0.00  0.00    +0.000 NA
ATOM     13  C   UNL     1      44.373   3.829  10.913  0.00  0.00    +0.000 A 
ENDBRANCH   6   8
ENDBRANCH   1   2
BRANCH   1  14
ATOM     14  O   UNL     1      48.296   5.756  14.439  0.00  0.00    +0.000 OA
BRANCH  14  18
ATOM     15  C   UNL     1      48.179   5.274  18.578  0.00  0.00    +0.000 A 
ATOM     16  C   UNL     1      48.932   6.332  18.054  0.00  0.00    +0.000 A 
ATOM     17  C   UNL     1      48.993   6.535  16.670  0.00  0.00    +0.000 A 
ATOM     18  C   UNL     1      48.306   5.681  15.803  0.00  0.00    +0.000 A 
ATOM     19  C   UNL     1      47.556   4.627  16.332  0.00  0.00    +0.000 A 
ATOM     20  C   UNL     1      47.495   4.417  17.711  0.00  0.00    +0.000 A 
BRANCH  15  22
ATOM     21  N   UNL     1      48.662   3.831  20.478  0.00  0.00    +0.000 N 
ATOM     22  C   UNL     1      48.119   5.006  20.037  0.00  0.00    +0.000 C 
ATOM     23  O   UNL     1      47.632   5.811  20.820  0.00  0.00    +0.000 OA
ATOM     24  H   UNL     1      48.702   3.708  21.481  0.00  0.00    +0.000 HD
ATOM     25  H   UNL     1      49.294   3.283  19.913  0.00  0.00    +0.000 HD
ENDBRANCH  15  22
ENDBRANCH  14  18
ENDBRANCH   1  14
TORSDOF 5
ENDMDL
