MODEL 1
REMARK VINA RESULT:    -6.402      0.000      0.000
REMARK INTER + INTRA:         -10.143
REMARK INTER:                  -9.396
REMARK INTRA:                  -0.747
REMARK UNBOUND:                -0.747
REMARK  Name = 
REMARK  12 active torsions:
REMARK  status: ('A' for Active; 'I' for Inactive)
REMARK    1  A    between atoms: C_1  and  C_2
REMARK    2  A    between atoms: C_2  and  C_3
REMARK    3  A    between atoms: C_2  and  C_4
REMARK    4  A    between atoms: C_2  and  C_5
REMARK    5  A    between atoms: C_9  and  C_10
REMARK    6  A    between atoms: C_10  and  O_12
REMARK    7  A    between atoms: N_16  and  C_17
REMARK    8  A    between atoms: C_17  and  C_18
REMARK    9  A    between atoms: C_21  and  O_22
REMARK   10  A    between atoms: O_22  and  C_23
REMARK   11  A    between atoms: C_23  and  C_24
REMARK   12  A    between atoms: C_24  and  N_25
REMARK                            x       y       z     vdW  Elec       q    Type
REMARK                         _______ _______ _______ _____ _____    ______ ____
ROOT
ATOM      1  C   UNL     1      48.251   7.309  13.729  0.00  0.00    +0.000 A 
ATOM      2  N   UNL     1      49.094   7.158  14.737  0.00  0.00    +0.000 NA
ATOM      3  C   UNL     1      48.657   6.089  15.467  0.00  0.00    +0.000 A 
ATOM      4  C   UNL     1      49.191   5.546  16.654  0.00  0.00    +0.000 A 
ATOM      5  C   UNL     1      48.572   4.424  17.230  0.00  0.00    +0.000 A 
ATOM      6  C   UNL     1      47.466   3.843  16.617  0.00  0.00    +0.000 A 
ATOM      7  C   UNL     1      46.938   4.375  15.438  0.00  0.00    +0.000 A 
ATOM      8  C   UNL     1      47.525   5.525  14.885  0.00  0.00    +0.000 A 
ATOM      9  N   UNL     1      47.225   6.366  13.820  0.00  0.00    +0.000 N 
ENDROOT
BRANCH   1  11
ATOM     10  C   UNL     1      49.403   9.467  13.116  0.00  0.00    +0.000 C 
ATOM     11  C   UNL     1      48.409   8.376  12.641  0.00  0.00    +0.000 C 
ATOM     12  C   UNL     1      47.081   9.100  12.350  0.00  0.00    +0.000 C 
ATOM     13  C   UNL     1      49.019   7.767  11.362  0.00  0.00    +0.000 C 
ENDBRANCH   1  11
BRANCH   5  14
ATOM     14  C   UNL     1      49.017   3.832  18.513  0.00  0.00    +0.000 C 
ATOM     15  O   UNL     1      50.022   4.200  19.100  0.00  0.00    +0.000 OA
BRANCH  14  16
ATOM     16  O   UNL     1      48.174   2.898  19.001  0.00  0.00    +0.000 OA
ATOM     17  H   UNL     1      47.244   2.995  18.726  0.00  0.00    +0.000 HD
ENDBRANCH  14  16
ENDBRANCH   5  14
BRANCH   9  18
ATOM     18  C   UNL     1      45.957   6.450  13.087  0.00  0.00    +0.000 C 
BRANCH  18  19
ATOM     19  C   UNL     1      45.785   5.465  11.969  0.00  0.00    +0.000 A 
ATOM     20  C   UNL     1      46.032   5.888  10.661  0.00  0.00    +0.000 A 
ATOM     21  C   UNL     1      45.648   5.090   9.592  0.00  0.00    +0.000 A 
ATOM     22  C   UNL     1      45.052   3.843   9.810  0.00  0.00    +0.000 A 
ATOM     23  C   UNL     1      44.938   3.360  11.115  0.00  0.00    +0.000 A 
ATOM     24  C   UNL     1      45.298   4.169  12.196  0.00  0.00    +0.000 A 
BRANCH  22  25
ATOM     25  O   UNL     1      44.514   3.057   8.818  0.00  0.00    +0.000 OA
BRANCH  25  26
ATOM     26  C   UNL     1      45.072   1.739   8.766  0.00  0.00    +0.000 C 
BRANCH  26  27
ATOM     27  C   UNL     1      46.400   1.717   8.014  0.00  0.00    +0.000 C 
BRANCH  27  28
ATOM     28  N   UNL     1      46.780   0.335   7.708  0.00  0.00    +0.000 NA
ATOM     29  H   UNL     1      47.294   0.304   6.828  0.00  0.00    +0.000 HD
ATOM     30  H   UNL     1      45.944  -0.230   7.575  0.00  0.00    +0.000 HD
ENDBRANCH  27  28
ENDBRANCH  26  27
ENDBRANCH  25  26
ENDBRANCH  22  25
ENDBRANCH  18  19
ENDBRANCH   9  18
TORSDOF 9
ENDMDL
MODEL 2
REMARK VINA RESULT:    -6.113      3.376      6.353
REMARK INTER + INTRA:          -9.719
REMARK INTER:                  -9.290
REMARK INTRA:                  -0.429
REMARK UNBOUND:                -0.747
REMARK  Name = 
REMARK  12 active torsions:
REMARK  status: ('A' for Active; 'I' for Inactive)
REMARK    1  A    between atoms: C_1  and  C_2
REMARK    2  A    between atoms: C_2  and  C_3
REMARK    3  A    between atoms: C_2  and  C_4
REMARK    4  A    between atoms: C_2  and  C_5
REMARK    5  A    between atoms: C_9  and  C_10
REMARK    6  A    between atoms: C_10  and  O_12
REMARK    7  A    between atoms: N_16  and  C_17
REMARK    8  A    between atoms: C_17  and  C_18
REMARK    9  A    between atoms: C_21  and  O_22
REMARK   10  A    between atoms: O_22  and  C_23
REMARK   11  A    between atoms: C_23  and  C_24
REMARK   12  A    between atoms: C_24  and  N_25
REMARK                            x       y       z     vdW  Elec       q    Type
REMARK                         _______ _______ _______ _____ _____    ______ ____
ROOT
ATOM      1  C   UNL     1      48.156   6.642  14.261  0.00  0.00    +0.000 A 
ATOM      2  N   UNL     1      47.465   5.537  14.489  0.00  0.00    +0.000 NA
ATOM      3  C   UNL     1      46.719   5.294  13.370  0.00  0.00    +0.000 A 
ATOM      4  C   UNL     1      45.794   4.258  13.128  0.00  0.00    +0.000 A 
ATOM      5  C   UNL     1      45.143   4.202  11.884  0.00  0.00    +0.000 A 
ATOM      6  C   UNL     1      45.433   5.141  10.899  0.00  0.00    +0.000 A 
ATOM      7  C   UNL     1      46.353   6.166  11.135  0.00  0.00    +0.000 A 
ATOM      8  C   UNL     1      46.971   6.253  12.393  0.00  0.00    +0.000 A 
ATOM      9  N   UNL     1      47.828   7.159  13.006  0.00  0.00    +0.000 N 
ENDROOT
BRANCH   1  11
ATOM     10  C   UNL     1      49.416   6.233  16.407  0.00  0.00    +0.000 C 
ATOM     11  C   UNL     1      49.158   7.238  15.255  0.00  0.00    +0.000 C 
ATOM     12  C   UNL     1      48.618   8.521  15.914  0.00  0.00    +0.000 C 
ATOM     13  C   UNL     1      50.524   7.476  14.579  0.00  0.00    +0.000 C 
ENDBRANCH   1  11
BRANCH   5  14
ATOM     14  C   UNL     1      44.103   3.195  11.567  0.00  0.00    +0.000 C 
ATOM     15  O   UNL     1      43.580   3.105  10.468  0.00  0.00    +0.000 OA
BRANCH  14  16
ATOM     16  O   UNL     1      43.838   2.350  12.585  0.00  0.00    +0.000 OA
ATOM     17  H   UNL     1      44.255   1.471  12.513  0.00  0.00    +0.000 HD
ENDBRANCH  14  16
ENDBRANCH   5  14
BRANCH   9  18
ATOM     18  C   UNL     1      48.134   8.525  12.568  0.00  0.00    +0.000 C 
BRANCH  18  19
ATOM     19  C   UNL     1      46.949   9.405  12.302  0.00  0.00    +0.000 A 
ATOM     20  C   UNL     1      45.700   9.010  12.789  0.00  0.00    +0.000 A 
ATOM     21  C   UNL     1      44.553   9.660  12.356  0.00  0.00    +0.000 A 
ATOM     22  C   UNL     1      44.634  10.736  11.466  0.00  0.00    +0.000 A 
ATOM     23  C   UNL     1      45.890  11.220  11.095  0.00  0.00    +0.000 A 
ATOM     24  C   UNL     1      47.048  10.555  11.506  0.00  0.00    +0.000 A 
BRANCH  22  25
ATOM     25  O   UNL     1      43.548  11.340  10.878  0.00  0.00    +0.000 OA
BRANCH  25  26
ATOM     26  C   UNL     1      42.608  10.414  10.322  0.00  0.00    +0.000 C 
BRANCH  26  27
ATOM     27  C   UNL     1      41.211  10.607  10.907  0.00  0.00    +0.000 C 
BRANCH  27  28
ATOM     28  N   UNL     1      40.690   9.327  11.394  0.00  0.00    +0.000 NA
ATOM     29  H   UNL     1      39.696   9.414  11.604  0.00  0.00    +0.000 HD
ATOM     30  H   UNL     1      41.150   9.077  12.265  0.00  0.00    +0.000 HD
ENDBRANCH  27  28
ENDBRANCH  26  27
ENDBRANCH  25  26
ENDBRANCH  22  25
ENDBRANCH  18  19
ENDBRANCH   9  18
TORSDOF 9
ENDMDL
MODEL 3
REMARK VINA RESULT:    -5.832      3.128      5.021
REMARK INTER + INTRA:          -9.307
REMARK INTER:                  -8.721
REMARK INTRA:                  -0.585
REMARK UNBOUND:                -0.747
REMARK  Name = 
REMARK  12 active torsions:
REMARK  status: ('A' for Active; 'I' for Inactive)
REMARK    1  A    between atoms: C_1  and  C_2
REMARK    2  A    between atoms: C_2  and  C_3
REMARK    3  A    between atoms: C_2  and  C_4
REMARK    4  A    between atoms: C_2  and  C_5
REMARK    5  A    between atoms: C_9  and  C_10
REMARK    6  A    between atoms: C_10  and  O_12
REMARK    7  A    between atoms: N_16  and  C_17
REMARK    8  A    between atoms: C_17  and  C_18
REMARK    9  A    between atoms: C_21  and  O_22
REMARK   10  A    between atoms: O_22  and  C_23
REMARK   11  A    between atoms: C_23  and  C_24
REMARK   12  A    between atoms: C_24  and  N_25
REMARK                            x       y       z     vdW  Elec       q    Type
REMARK                         _______ _______ _______ _____ _____    ______ ____
ROOT
ATOM      1  C   UNL     1      47.170   5.729  13.243  0.00  0.00    +0.000 A 
ATOM      2  N   UNL     1      48.468   5.943  13.384  0.00  0.00    +0.000 NA
ATOM      3  C   UNL     1      48.747   7.132  12.772  0.00  0.00    +0.000 A 
ATOM      4  C   UNL     1      49.988   7.782  12.617  0.00  0.00    +0.000 A 
ATOM      5  C   UNL     1      50.033   9.018  11.950  0.00  0.00    +0.000 A 
ATOM      6  C   UNL     1      48.862   9.601  11.478  0.00  0.00    +0.000 A 
ATOM      7  C   UNL     1      47.629   8.962  11.634  0.00  0.00    +0.000 A 
ATOM      8  C   UNL     1      47.586   7.704  12.258  0.00  0.00    +0.000 A 
ATOM      9  N   UNL     1      46.598   6.757  12.492  0.00  0.00    +0.000 N 
ENDROOT
BRANCH   1  11
ATOM     10  C   UNL     1      46.619   3.292  12.898  0.00  0.00    +0.000 C 
ATOM     11  C   UNL     1      46.440   4.517  13.831  0.00  0.00    +0.000 C 
ATOM     12  C   UNL     1      44.922   4.760  13.939  0.00  0.00    +0.000 C 
ATOM     13  C   UNL     1      47.051   4.116  15.189  0.00  0.00    +0.000 C 
ENDBRANCH   1  11
BRANCH   5  14
ATOM     14  C   UNL     1      51.300   9.736  11.676  0.00  0.00    +0.000 C 
ATOM     15  O   UNL     1      51.551  10.249  10.598  0.00  0.00    +0.000 OA
BRANCH  14  16
ATOM     16  O   UNL     1      52.116   9.824  12.747  0.00  0.00    +0.000 OA
ATOM     17  H   UNL     1      52.848   9.180  12.764  0.00  0.00    +0.000 HD
ENDBRANCH  14  16
ENDBRANCH   5  14
BRANCH   9  18
ATOM     18  C   UNL     1      45.275   6.681  11.860  0.00  0.00    +0.000 C 
BRANCH  18  19
ATOM     19  C   UNL     1      45.190   5.831  10.627  0.00  0.00    +0.000 A 
ATOM     20  C   UNL     1      44.185   4.863  10.551  0.00  0.00    +0.000 A 
ATOM     21  C   UNL     1      44.226   3.902   9.550  0.00  0.00    +0.000 A 
ATOM     22  C   UNL     1      45.242   3.915   8.589  0.00  0.00    +0.000 A 
ATOM     23  C   UNL     1      46.161   4.967   8.582  0.00  0.00    +0.000 A 
ATOM     24  C   UNL     1      46.141   5.922   9.601  0.00  0.00    +0.000 A 
BRANCH  22  25
ATOM     25  O   UNL     1      45.439   2.925   7.655  0.00  0.00    +0.000 OA
BRANCH  25  26
ATOM     26  C   UNL     1      46.667   3.058   6.929  0.00  0.00    +0.000 C 
BRANCH  26  27
ATOM     27  C   UNL     1      47.447   1.746   6.894  0.00  0.00    +0.000 C 
BRANCH  27  28
ATOM     28  N   UNL     1      48.483   1.807   5.859  0.00  0.00    +0.000 NA
ATOM     29  H   UNL     1      48.049   1.856   4.937  0.00  0.00    +0.000 HD
ATOM     30  H   UNL     1      49.036   0.954   5.875  0.00  0.00    +0.000 HD
ENDBRANCH  27  28
ENDBRANCH  26  27
ENDBRANCH  25  26
ENDBRANCH  22  25
ENDBRANCH  18  19
ENDBRANCH   9  18
TORSDOF 9
ENDMDL
MODEL 4
REMARK VINA RESULT:    -5.622      2.589      3.823
REMARK INTER + INTRA:          -8.998
REMARK INTER:                  -8.708
REMARK INTRA:                  -0.290
REMARK UNBOUND:                -0.747
REMARK  Name = 
REMARK  12 active torsions:
REMARK  status: ('A' for Active; 'I' for Inactive)
REMARK    1  A    between atoms: C_1  and  C_2
REMARK    2  A    between atoms: C_2  and  C_3
REMARK    3  A    between atoms: C_2  and  C_4
REMARK    4  A    between atoms: C_2  and  C_5
REMARK    5  A    between atoms: C_9  and  C_10
REMARK    6  A    between atoms: C_10  and  O_12
REMARK    7  A    between atoms: N_16  and  C_17
REMARK    8  A    between atoms: C_17  and  C_18
REMARK    9  A    between atoms: C_21  and  O_22
REMARK   10  A    between atoms: O_22  and  C_23
REMARK   11  A    between atoms: C_23  and  C_24
REMARK   12  A    between atoms: C_24  and  N_25
REMARK                            x       y       z     vdW  Elec       q    Type
REMARK                         _______ _______ _______ _____ _____    ______ ____
ROOT
ATOM      1  C   UNL     1      44.755   8.932  11.714  0.00  0.00    +0.000 A 
ATOM      2  N   UNL     1      45.747   9.430  12.433  0.00  0.00    +0.000 NA
ATOM      3  C   UNL     1      46.443   8.371  12.943  0.00  0.00    +0.000 A 
ATOM      4  C   UNL     1      47.563   8.374  13.799  0.00  0.00    +0.000 A 
ATOM      5  C   UNL     1      48.125   7.147  14.192  0.00  0.00    +0.000 A 
ATOM      6  C   UNL     1      47.597   5.951  13.717  0.00  0.00    +0.000 A 
ATOM      7  C   UNL     1      46.490   5.945  12.864  0.00  0.00    +0.000 A 
ATOM      8  C   UNL     1      45.896   7.167  12.507  0.00  0.00    +0.000 A 
ATOM      9  N   UNL     1      44.765   7.537  11.790  0.00  0.00    +0.000 N 
ENDROOT
BRANCH   1  11
ATOM     10  C   UNL     1      43.640  11.190  11.587  0.00  0.00    +0.000 C 
ATOM     11  C   UNL     1      43.758   9.791  10.930  0.00  0.00    +0.000 C 
ATOM     12  C   UNL     1      42.342   9.185  10.946  0.00  0.00    +0.000 C 
ATOM     13  C   UNL     1      44.259  10.033   9.491  0.00  0.00    +0.000 C 
ENDBRANCH   1  11
BRANCH   5  14
ATOM     14  C   UNL     1      49.254   7.051  15.146  0.00  0.00    +0.000 C 
ATOM     15  O   UNL     1      49.097   6.944  16.352  0.00  0.00    +0.000 OA
BRANCH  14  16
ATOM     16  O   UNL     1      50.466   7.028  14.552  0.00  0.00    +0.000 OA
ATOM     17  H   UNL     1      50.611   6.286  13.936  0.00  0.00    +0.000 HD
ENDBRANCH  14  16
ENDBRANCH   5  14
BRANCH   9  18
ATOM     18  C   UNL     1      43.638   6.679  11.408  0.00  0.00    +0.000 C 
BRANCH  18  19
ATOM     19  C   UNL     1      43.992   5.443  10.637  0.00  0.00    +0.000 A 
ATOM     20  C   UNL     1      43.463   4.220  11.055  0.00  0.00    +0.000 A 
ATOM     21  C   UNL     1      43.958   3.035  10.529  0.00  0.00    +0.000 A 
ATOM     22  C   UNL     1      44.958   3.052   9.550  0.00  0.00    +0.000 A 
ATOM     23  C   UNL     1      45.382   4.277   9.030  0.00  0.00    +0.000 A 
ATOM     24  C   UNL     1      44.907   5.473   9.574  0.00  0.00    +0.000 A 
BRANCH  22  25
ATOM     25  O   UNL     1      45.603   1.932   9.080  0.00  0.00    +0.000 OA
BRANCH  25  26
ATOM     26  C   UNL     1      46.156   2.097   7.770  0.00  0.00    +0.000 C 
BRANCH  26  27
ATOM     27  C   UNL     1      47.139   0.980   7.428  0.00  0.00    +0.000 C 
BRANCH  27  28
ATOM     28  N   UNL     1      48.237   1.511   6.613  0.00  0.00    +0.000 NA
ATOM     29  H   UNL     1      49.132   1.223   7.008  0.00  0.00    +0.000 HD
ATOM     30  H   UNL     1      48.222   2.527   6.637  0.00  0.00    +0.000 HD
ENDBRANCH  27  28
ENDBRANCH  26  27
ENDBRANCH  25  26
ENDBRANCH  22  25
ENDBRANCH  18  19
ENDBRANCH   9  18
TORSDOF 9
ENDMDL
MODEL 5
REMARK VINA RESULT:    -5.620      2.808      8.039
REMARK INTER + INTRA:          -8.995
REMARK INTER:                  -8.132
REMARK INTRA:                  -0.863
REMARK UNBOUND:                -0.747
REMARK  Name = 
REMARK  12 active torsions:
REMARK  status: ('A' for Active; 'I' for Inactive)
REMARK    1  A    between atoms: C_1  and  C_2
REMARK    2  A    between atoms: C_2  and  C_3
REMARK    3  A    between atoms: C_2  and  C_4
REMARK    4  A    between atoms: C_2  and  C_5
REMARK    5  A    between atoms: C_9  and  C_10
REMARK    6  A    between atoms: C_10  and  O_12
REMARK    7  A    between atoms: N_16  and  C_17
REMARK    8  A    between atoms: C_17  and  C_18
REMARK    9  A    between atoms: C_21  and  O_22
REMARK   10  A    between atoms: O_22  and  C_23
REMARK   11  A    between atoms: C_23  and  C_24
REMARK   12  A    between atoms: C_24  and  N_25
REMARK                            x       y       z     vdW  Elec       q    Type
REMARK                         _______ _______ _______ _____ _____    ______ ____
ROOT
ATOM      1  C   UNL     1      44.609   4.084  11.298  0.00  0.00    +0.000 A 
ATOM      2  N   UNL     1      44.711   2.953  10.620  0.00  0.00    +0.000 NA
ATOM      3  C   UNL     1      45.370   3.239   9.459  0.00  0.00    +0.000 A 
ATOM      4  C   UNL     1      45.695   2.382   8.388  0.00  0.00    +0.000 A 
ATOM      5  C   UNL     1      46.393   2.903   7.285  0.00  0.00    +0.000 A 
ATOM      6  C   UNL     1      46.782   4.238   7.270  0.00  0.00    +0.000 A 
ATOM      7  C   UNL     1      46.466   5.089   8.333  0.00  0.00    +0.000 A 
ATOM      8  C   UNL     1      45.727   4.584   9.415  0.00  0.00    +0.000 A 
ATOM      9  N   UNL     1      45.160   5.133  10.559  0.00  0.00    +0.000 N 
ENDROOT
BRANCH   1  11
ATOM     10  C   UNL     1      42.801   5.206  12.652  0.00  0.00    +0.000 C 
ATOM     11  C   UNL     1      43.971   4.189  12.687  0.00  0.00    +0.000 C 
ATOM     12  C   UNL     1      44.968   4.715  13.737  0.00  0.00    +0.000 C 
ATOM     13  C   UNL     1      43.356   2.840  13.110  0.00  0.00    +0.000 C 
ENDBRANCH   1  11
BRANCH   5  14
ATOM     14  C   UNL     1      46.712   2.096   6.084  0.00  0.00    +0.000 C 
ATOM     15  O   UNL     1      46.688   2.554   4.952  0.00  0.00    +0.000 OA
BRANCH  14  16
ATOM     16  O   UNL     1      47.092   0.832   6.364  0.00  0.00    +0.000 OA
ATOM     17  H   UNL     1      47.980   0.586   6.045  0.00  0.00    +0.000 HD
ENDBRANCH  14  16
ENDBRANCH   5  14
BRANCH   9  18
ATOM     18  C   UNL     1      44.925   6.554  10.837  0.00  0.00    +0.000 C 
BRANCH  18  19
ATOM     19  C   UNL     1      45.983   7.243  11.646  0.00  0.00    +0.000 A 
ATOM     20  C   UNL     1      47.303   6.799  11.539  0.00  0.00    +0.000 A 
ATOM     21  C   UNL     1      48.257   7.239  12.445  0.00  0.00    +0.000 A 
ATOM     22  C   UNL     1      47.921   8.158  13.445  0.00  0.00    +0.000 A 
ATOM     23  C   UNL     1      46.639   8.710  13.461  0.00  0.00    +0.000 A 
ATOM     24  C   UNL     1      45.667   8.251  12.568  0.00  0.00    +0.000 A 
BRANCH  22  25
ATOM     25  O   UNL     1      48.762   8.535  14.466  0.00  0.00    +0.000 OA
BRANCH  25  26
ATOM     26  C   UNL     1      48.451   7.921  15.722  0.00  0.00    +0.000 C 
BRANCH  26  27
ATOM     27  C   UNL     1      49.294   6.672  15.964  0.00  0.00    +0.000 C 
BRANCH  27  28
ATOM     28  N   UNL     1      48.487   5.470  15.737  0.00  0.00    +0.000 NA
ATOM     29  H   UNL     1      48.692   4.774  16.455  0.00  0.00    +0.000 HD
ATOM     30  H   UNL     1      48.737   5.050  14.846  0.00  0.00    +0.000 HD
ENDBRANCH  27  28
ENDBRANCH  26  27
ENDBRANCH  25  26
ENDBRANCH  22  25
ENDBRANCH  18  19
ENDBRANCH   9  18
TORSDOF 9
ENDMDL
MODEL 6
REMARK VINA RESULT:    -5.604      2.695      7.328
REMARK INTER + INTRA:          -8.971
REMARK INTER:                  -8.148
REMARK INTRA:                  -0.823
REMARK UNBOUND:                -0.747
REMARK  Name = 
REMARK  12 active torsions:
REMARK  status: ('A' for Active; 'I' for Inactive)
REMARK    1  A    between atoms: C_1  and  C_2
REMARK    2  A    between atoms: C_2  and  C_3
REMARK    3  A    between atoms: C_2  and  C_4
REMARK    4  A    between atoms: C_2  and  C_5
REMARK    5  A    between atoms: C_9  and  C_10
REMARK    6  A    between atoms: C_10  and  O_12
REMARK    7  A    between atoms: N_16  and  C_17
REMARK    8  A    between atoms: C_17  and  C_18
REMARK    9  A    between atoms: C_21  and  O_22
REMARK   10  A    between atoms: O_22  and  C_23
REMARK   11  A    between atoms: C_23  and  C_24
REMARK   12  A    between atoms: C_24  and  N_25
REMARK                            x       y       z     vdW  Elec       q    Type
REMARK                         _______ _______ _______ _____ _____    ______ ____
ROOT
ATOM      1  C   UNL     1      47.989   8.274  12.538  0.00  0.00    +0.000 A 
ATOM      2  N   UNL     1      46.977   7.786  11.840  0.00  0.00    +0.000 NA
ATOM      3  C   UNL     1      46.701   6.547  12.346  0.00  0.00    +0.000 A 
ATOM      4  C   UNL     1      45.736   5.610  11.924  0.00  0.00    +0.000 A 
ATOM      5  C   UNL     1      45.627   4.388  12.609  0.00  0.00    +0.000 A 
ATOM      6  C   UNL     1      46.442   4.125  13.705  0.00  0.00    +0.000 A 
ATOM      7  C   UNL     1      47.396   5.054  14.128  0.00  0.00    +0.000 A 
ATOM      8  C   UNL     1      47.541   6.256  13.417  0.00  0.00    +0.000 A 
ATOM      9  N   UNL     1      48.417   7.333  13.477  0.00  0.00    +0.000 N 
ENDROOT
BRANCH   1  11
ATOM     10  C   UNL     1      47.618  10.515  11.441  0.00  0.00    +0.000 C 
ATOM     11  C   UNL     1      48.579   9.670  12.317  0.00  0.00    +0.000 C 
ATOM     12  C   UNL     1      49.918   9.613  11.557  0.00  0.00    +0.000 C 
ATOM     13  C   UNL     1      48.715  10.424  13.656  0.00  0.00    +0.000 C 
ENDBRANCH   1  11
BRANCH   5  14
ATOM     14  C   UNL     1      44.694   3.315  12.192  0.00  0.00    +0.000 C 
ATOM     15  O   UNL     1      43.710   3.002  12.842  0.00  0.00    +0.000 OA
BRANCH  14  16
ATOM     16  O   UNL     1      44.999   2.765  10.998  0.00  0.00    +0.000 OA
ATOM     17  H   UNL     1      45.188   1.808  11.019  0.00  0.00    +0.000 HD
ENDBRANCH  14  16
ENDBRANCH   5  14
BRANCH   9  18
ATOM     18  C   UNL     1      49.704   7.391  14.178  0.00  0.00    +0.000 C 
BRANCH  18  19
ATOM     19  C   UNL     1      49.632   7.378  15.676  0.00  0.00    +0.000 A 
ATOM     20  C   UNL     1      50.400   6.443  16.374  0.00  0.00    +0.000 A 
ATOM     21  C   UNL     1      50.174   6.235  17.728  0.00  0.00    +0.000 A 
ATOM     22  C   UNL     1      49.210   6.983  18.413  0.00  0.00    +0.000 A 
ATOM     23  C   UNL     1      48.548   8.016  17.747  0.00  0.00    +0.000 A 
ATOM     24  C   UNL     1      48.751   8.212  16.379  0.00  0.00    +0.000 A 
BRANCH  22  25
ATOM     25  O   UNL     1      48.824   6.746  19.712  0.00  0.00    +0.000 OA
BRANCH  25  26
ATOM     26  C   UNL     1      49.525   5.660  20.329  0.00  0.00    +0.000 C 
BRANCH  26  27
ATOM     27  C   UNL     1      48.586   4.769  21.139  0.00  0.00    +0.000 C 
BRANCH  27  28
ATOM     28  N   UNL     1      48.396   3.488  20.453  0.00  0.00    +0.000 NA
ATOM     29  H   UNL     1      48.881   2.748  20.960  0.00  0.00    +0.000 HD
ATOM     30  H   UNL     1      48.813   3.528  19.527  0.00  0.00    +0.000 HD
ENDBRANCH  27  28
ENDBRANCH  26  27
ENDBRANCH  25  26
ENDBRANCH  22  25
ENDBRANCH  18  19
ENDBRANCH   9  18
TORSDOF 9
ENDMDL
MODEL 7
REMARK VINA RESULT:    -5.582      3.270      7.884
REMARK INTER + INTRA:          -8.939
REMARK INTER:                  -8.179
REMARK INTRA:                  -0.759
REMARK UNBOUND:                -0.747
REMARK  Name = 
REMARK  12 active torsions:
REMARK  status: ('A' for Active; 'I' for Inactive)
REMARK    1  A    between atoms: C_1  and  C_2
REMARK    2  A    between atoms: C_2  and  C_3
REMARK    3  A    between atoms: C_2  and  C_4
REMARK    4  A    between atoms: C_2  and  C_5
REMARK    5  A    between atoms: C_9  and  C_10
REMARK    6  A    between atoms: C_10  and  O_12
REMARK    7  A    between atoms: N_16  and  C_17
REMARK    8  A    between atoms: C_17  and  C_18
REMARK    9  A    between atoms: C_21  and  O_22
REMARK   10  A    between atoms: O_22  and  C_23
REMARK   11  A    between atoms: C_23  and  C_24
REMARK   12  A    between atoms: C_24  and  N_25
REMARK                            x       y       z     vdW  Elec       q    Type
REMARK                         _______ _______ _______ _____ _____    ______ ____
ROOT
ATOM      1  C   UNL     1      47.528   4.641  15.804  0.00  0.00    +0.000 A 
ATOM      2  N   UNL     1      46.657   4.019  15.027  0.00  0.00    +0.000 NA
ATOM      3  C   UNL     1      46.570   4.737  13.868  0.00  0.00    +0.000 A 
ATOM      4  C   UNL     1      45.755   4.508  12.741  0.00  0.00    +0.000 A 
ATOM      5  C   UNL     1      45.841   5.385  11.646  0.00  0.00    +0.000 A 
ATOM      6  C   UNL     1      46.742   6.445  11.669  0.00  0.00    +0.000 A 
ATOM      7  C   UNL     1      47.554   6.672  12.783  0.00  0.00    +0.000 A 
ATOM      8  C   UNL     1      47.437   5.826  13.898  0.00  0.00    +0.000 A 
ATOM      9  N   UNL     1      47.983   5.802  15.175  0.00  0.00    +0.000 N 
ENDROOT
BRANCH   1  11
ATOM     10  C   UNL     1      47.161   2.843  17.535  0.00  0.00    +0.000 C 
ATOM     11  C   UNL     1      47.951   4.132  17.186  0.00  0.00    +0.000 C 
ATOM     12  C   UNL     1      47.627   5.150  18.295  0.00  0.00    +0.000 C 
ATOM     13  C   UNL     1      49.441   3.737  17.191  0.00  0.00    +0.000 C 
ENDBRANCH   1  11
BRANCH   5  14
ATOM     14  C   UNL     1      44.973   5.266  10.452  0.00  0.00    +0.000 C 
ATOM     15  O   UNL     1      43.798   4.941  10.515  0.00  0.00    +0.000 OA
BRANCH  14  16
ATOM     16  O   UNL     1      45.585   5.612   9.300  0.00  0.00    +0.000 OA
ATOM     17  H   UNL     1      45.391   5.035   8.538  0.00  0.00    +0.000 HD
ENDBRANCH  14  16
ENDBRANCH   5  14
BRANCH   9  18
ATOM     18  C   UNL     1      48.680   6.895  15.861  0.00  0.00    +0.000 C 
BRANCH  18  19
ATOM     19  C   UNL     1      50.123   7.078  15.496  0.00  0.00    +0.000 A 
ATOM     20  C   UNL     1      51.099   6.526  16.329  0.00  0.00    +0.000 A 
ATOM     21  C   UNL     1      52.431   6.881  16.164  0.00  0.00    +0.000 A 
ATOM     22  C   UNL     1      52.814   7.757  15.143  0.00  0.00    +0.000 A 
ATOM     23  C   UNL     1      51.859   8.193  14.224  0.00  0.00    +0.000 A 
ATOM     24  C   UNL     1      50.513   7.861  14.400  0.00  0.00    +0.000 A 
BRANCH  22  25
ATOM     25  O   UNL     1      54.082   8.271  14.998  0.00  0.00    +0.000 OA
BRANCH  25  26
ATOM     26  C   UNL     1      54.552   8.263  13.645  0.00  0.00    +0.000 C 
BRANCH  26  27
ATOM     27  C   UNL     1      55.592   7.169  13.415  0.00  0.00    +0.000 C 
BRANCH  27  28
ATOM     28  N   UNL     1      54.941   5.960  12.903  0.00  0.00    +0.000 NA
ATOM     29  H   UNL     1      54.156   6.215  12.305  0.00  0.00    +0.000 HD
ATOM     30  H   UNL     1      54.555   5.423  13.676  0.00  0.00    +0.000 HD
ENDBRANCH  27  28
ENDBRANCH  26  27
ENDBRANCH  25  26
ENDBRANCH  22  25
ENDBRANCH  18  19
ENDBRANCH   9  18
TORSDOF 9
ENDMDL
MODEL 8
REMARK VINA RESULT:    -5.561      3.392      6.599
REMARK INTER + INTRA:          -8.908
REMARK INTER:                  -8.079
REMARK INTRA:                  -0.829
REMARK UNBOUND:                -0.747
REMARK  Name = 
REMARK  12 active torsions:
REMARK  status: ('A' for Active; 'I' for Inactive)
REMARK    1  A    between atoms: C_1  and  C_2
REMARK    2  A    between atoms: C_2  and  C_3
REMARK    3  A    between atoms: C_2  and  C_4
REMARK    4  A    between atoms: C_2  and  C_5
REMARK    5  A    between atoms: C_9  and  C_10
REMARK    6  A    between atoms: C_10  and  O_12
REMARK    7  A    between atoms: N_16  and  C_17
REMARK    8  A    between atoms: C_17  and  C_18
REMARK    9  A    between atoms: C_21  and  O_22
REMARK   10  A    between atoms: O_22  and  C_23
REMARK   11  A    between atoms: C_23  and  C_24
REMARK   12  A    between atoms: C_24  and  N_25
REMARK                            x       y       z     vdW  Elec       q    Type
REMARK                         _______ _______ _______ _____ _____    ______ ____
ROOT
ATOM      1  C   UNL     1      47.968   6.768  14.325  0.00  0.00    +0.000 A 
ATOM      2  N   UNL     1      47.304   5.645  14.543  0.00  0.00    +0.000 NA
ATOM      3  C   UNL     1      46.587   5.378  13.411  0.00  0.00    +0.000 A 
ATOM      4  C   UNL     1      45.696   4.316  13.155  0.00  0.00    +0.000 A 
ATOM      5  C   UNL     1      45.071   4.237  11.899  0.00  0.00    +0.000 A 
ATOM      6  C   UNL     1      45.354   5.181  10.916  0.00  0.00    +0.000 A 
ATOM      7  C   UNL     1      46.241   6.232  11.166  0.00  0.00    +0.000 A 
ATOM      8  C   UNL     1      46.831   6.341  12.436  0.00  0.00    +0.000 A 
ATOM      9  N   UNL     1      47.651   7.271  13.062  0.00  0.00    +0.000 N 
ENDROOT
BRANCH   1  11
ATOM     10  C   UNL     1      48.940   6.561  16.643  0.00  0.00    +0.000 C 
ATOM     11  C   UNL     1      48.934   7.395  15.336  0.00  0.00    +0.000 C 
ATOM     12  C   UNL     1      48.501   8.819  15.735  0.00  0.00    +0.000 C 
ATOM     13  C   UNL     1      50.380   7.368  14.801  0.00  0.00    +0.000 C 
ENDBRANCH   1  11
BRANCH   5  14
ATOM     14  C   UNL     1      44.066   3.201  11.565  0.00  0.00    +0.000 C 
ATOM     15  O   UNL     1      43.493   3.155  10.489  0.00  0.00    +0.000 OA
BRANCH  14  16
ATOM     16  O   UNL     1      43.894   2.280  12.537  0.00  0.00    +0.000 OA
ATOM     17  H   UNL     1      43.414   1.476  12.265  0.00  0.00    +0.000 HD
ENDBRANCH  14  16
ENDBRANCH   5  14
BRANCH   9  18
ATOM     18  C   UNL     1      47.927   8.645  12.625  0.00  0.00    +0.000 C 
BRANCH  18  19
ATOM     19  C   UNL     1      49.178   8.833  11.820  0.00  0.00    +0.000 A 
ATOM     20  C   UNL     1      49.874   7.701  11.390  0.00  0.00    +0.000 A 
ATOM     21  C   UNL     1      51.152   7.832  10.865  0.00  0.00    +0.000 A 
ATOM     22  C   UNL     1      51.738   9.094  10.722  0.00  0.00    +0.000 A 
ATOM     23  C   UNL     1      50.986  10.233  11.016  0.00  0.00    +0.000 A 
ATOM     24  C   UNL     1      49.709  10.107  11.570  0.00  0.00    +0.000 A 
BRANCH  22  25
ATOM     25  O   UNL     1      53.045   9.304  10.347  0.00  0.00    +0.000 OA
BRANCH  25  26
ATOM     26  C   UNL     1      53.615   8.211   9.619  0.00  0.00    +0.000 C 
BRANCH  26  27
ATOM     27  C   UNL     1      53.601   8.466   8.114  0.00  0.00    +0.000 C 
BRANCH  27  28
ATOM     28  N   UNL     1      52.757   7.472   7.445  0.00  0.00    +0.000 NA
ATOM     29  H   UNL     1      52.244   7.911   6.681  0.00  0.00    +0.000 HD
ATOM     30  H   UNL     1      52.062   7.117   8.097  0.00  0.00    +0.000 HD
ENDBRANCH  27  28
ENDBRANCH  26  27
ENDBRANCH  25  26
ENDBRANCH  22  25
ENDBRANCH  18  19
ENDBRANCH   9  18
TORSDOF 9
ENDMDL
MODEL 9
REMARK VINA RESULT:    -5.204      2.726      5.847
REMARK INTER + INTRA:          -8.385
REMARK INTER:                  -7.381
REMARK INTRA:                  -1.004
REMARK UNBOUND:                -0.747
REMARK  Name = 
REMARK  12 active torsions:
REMARK  status: ('A' for Active; 'I' for Inactive)
REMARK    1  A    between atoms: C_1  and  C_2
REMARK    2  A    between atoms: C_2  and  C_3
REMARK    3  A    between atoms: C_2  and  C_4
REMARK    4  A    between atoms: C_2  and  C_5
REMARK    5  A    between atoms: C_9  and  C_10
REMARK    6  A    between atoms: C_10  and  O_12
REMARK    7  A    between atoms: N_16  and  C_17
REMARK    8  A    between atoms: C_17  and  C_18
REMARK    9  A    between atoms: C_21  and  O_22
REMARK   10  A    between atoms: O_22  and  C_23
REMARK   11  A    between atoms: C_23  and  C_24
REMARK   12  A    between atoms: C_24  and  N_25
REMARK                            x       y       z     vdW  Elec       q    Type
REMARK                         _______ _______ _______ _____ _____    ______ ____
ROOT
ATOM      1  C   UNL     1      45.922   4.631  12.880  0.00  0.00    +0.000 A 
ATOM      2  N   UNL     1      46.349   3.484  13.384  0.00  0.00    +0.000 NA
ATOM      3  C   UNL     1      47.114   3.786  14.475  0.00  0.00    +0.000 A 
ATOM      4  C   UNL     1      47.820   2.917  15.332  0.00  0.00    +0.000 A 
ATOM      5  C   UNL     1      48.542   3.459  16.409  0.00  0.00    +0.000 A 
ATOM      6  C   UNL     1      48.531   4.831  16.639  0.00  0.00    +0.000 A 
ATOM      7  C   UNL     1      47.828   5.694  15.794  0.00  0.00    +0.000 A 
ATOM      8  C   UNL     1      47.144   5.161  14.688  0.00  0.00    +0.000 A 
ATOM      9  N   UNL     1      46.448   5.697  13.612  0.00  0.00    +0.000 N 
ENDROOT
BRANCH   1  11
ATOM     10  C   UNL     1      44.653   3.313  11.144  0.00  0.00    +0.000 C 
ATOM     11  C   UNL     1      44.990   4.733  11.669  0.00  0.00    +0.000 C 
ATOM     12  C   UNL     1      45.654   5.480  10.496  0.00  0.00    +0.000 C 
ATOM     13  C   UNL     1      43.645   5.375  12.066  0.00  0.00    +0.000 C 
ENDBRANCH   1  11
BRANCH   5  14
ATOM     14  C   UNL     1      49.372   2.632  17.316  0.00  0.00    +0.000 C 
ATOM     15  O   UNL     1      50.120   1.756  16.915  0.00  0.00    +0.000 OA
BRANCH  14  16
ATOM     16  O   UNL     1      49.269   2.982  18.615  0.00  0.00    +0.000 OA
ATOM     17  H   UNL     1      48.428   2.740  19.044  0.00  0.00    +0.000 HD
ENDBRANCH  14  16
ENDBRANCH   5  14
BRANCH   9  18
ATOM     18  C   UNL     1      46.468   7.089  13.149  0.00  0.00    +0.000 C 
BRANCH  18  19
ATOM     19  C   UNL     1      47.826   7.678  12.913  0.00  0.00    +0.000 A 
ATOM     20  C   UNL     1      48.551   7.262  11.793  0.00  0.00    +0.000 A 
ATOM     21  C   UNL     1      49.894   7.591  11.677  0.00  0.00    +0.000 A 
ATOM     22  C   UNL     1      50.524   8.373  12.652  0.00  0.00    +0.000 A 
ATOM     23  C   UNL     1      49.763   8.908  13.693  0.00  0.00    +0.000 A 
ATOM     24  C   UNL     1      48.417   8.559  13.830  0.00  0.00    +0.000 A 
BRANCH  22  25
ATOM     25  O   UNL     1      51.875   8.625  12.690  0.00  0.00    +0.000 OA
BRANCH  25  26
ATOM     26  C   UNL     1      52.357   8.975  13.992  0.00  0.00    +0.000 C 
BRANCH  26  27
ATOM     27  C   UNL     1      53.327   7.930  14.536  0.00  0.00    +0.000 C 
BRANCH  27  28
ATOM     28  N   UNL     1      52.630   7.033  15.462  0.00  0.00    +0.000 NA
ATOM     29  H   UNL     1      51.781   7.481  15.806  0.00  0.00    +0.000 HD
ATOM     30  H   UNL     1      53.215   6.855  16.274  0.00  0.00    +0.000 HD
ENDBRANCH  27  28
ENDBRANCH  26  27
ENDBRANCH  25  26
ENDBRANCH  22  25
ENDBRANCH  18  19
ENDBRANCH   9  18
TORSDOF 9
ENDMDL
