MODEL 1
REMARK VINA RESULT:    -8.787      0.000      0.000
REMARK INTER + INTRA:         -11.407
REMARK INTER:                 -10.842
REMARK INTRA:                  -0.565
REMARK UNBOUND:                -0.565
REMARK  Name = 
REMARK  4 active torsions:
REMARK  status: ('A' for Active; 'I' for Inactive)
REMARK    1  A    between atoms: C_2  and  C_4
REMARK    2  A    between atoms: N_12  and  C_13
REMARK    3  A    between atoms: C_13  and  C_14
REMARK    4  A    between atoms: C_17  and  C_18
REMARK                            x       y       z     vdW  Elec       q    Type
REMARK                         _______ _______ _______ _____ _____    ______ ____
ROOT
ATOM      1  C   UNL     1      47.142   7.263  13.318  0.00  0.00    +0.000 A 
ATOM      2  C   UNL     1      46.331   7.620  12.227  0.00  0.00    +0.000 A 
ATOM      3  C   UNL     1      45.486   6.692  11.603  0.00  0.00    +0.000 A 
ATOM      4  C   UNL     1      45.474   5.401  12.140  0.00  0.00    +0.000 A 
ATOM      5  C   UNL     1      46.249   5.030  13.233  0.00  0.00    +0.000 A 
ATOM      6  C   UNL     1      47.103   5.961  13.840  0.00  0.00    +0.000 A 
ATOM      7  N   UNL     1      46.017   3.717  13.541  0.00  0.00    +0.000 NA
ATOM      8  N   UNL     1      45.127   3.243  12.680  0.00  0.00    +0.000 NA
ATOM      9  N   UNL     1      44.821   4.236  11.820  0.00  0.00    +0.000 N 
ENDROOT
BRANCH   1  11
ATOM     10  N   UNL     1      47.512   9.006  14.985  0.00  0.00    +0.000 N 
ATOM     11  C   UNL     1      48.013   8.306  13.921  0.00  0.00    +0.000 C 
ATOM     12  O   UNL     1      49.148   8.508  13.509  0.00  0.00    +0.000 OA
ATOM     13  H   UNL     1      48.151   9.644  15.443  0.00  0.00    +0.000 HD
ATOM     14  H   UNL     1      46.691   8.716  15.496  0.00  0.00    +0.000 HD
ENDBRANCH   1  11
BRANCH   9  15
ATOM     15  C   UNL     1      43.943   3.962  10.692  0.00  0.00    +0.000 C 
BRANCH  15  16
ATOM     16  C   UNL     1      44.736   3.487   9.503  0.00  0.00    +0.000 A 
ATOM     17  C   UNL     1      45.021   2.129   9.311  0.00  0.00    +0.000 A 
ATOM     18  C   UNL     1      45.881   1.738   8.290  0.00  0.00    +0.000 A 
ATOM     19  C   UNL     1      46.416   2.725   7.476  0.00  0.00    +0.000 A 
ATOM     20  N   UNL     1      46.100   4.047   7.578  0.00  0.00    +0.000 NA
ATOM     21  C   UNL     1      45.265   4.389   8.585  0.00  0.00    +0.000 A 
BRANCH  19  22
ATOM     22  C   UNL     1      47.470   2.363   6.477  0.00  0.00    +0.000 C 
ATOM     23  N   UNL     1      47.471   3.111   5.331  0.00  0.00    +0.000 N 
ATOM     24  O   UNL     1      48.300   1.486   6.677  0.00  0.00    +0.000 OA
ATOM     25  H   UNL     1      46.813   3.876   5.236  0.00  0.00    +0.000 HD
ATOM     26  H   UNL     1      48.219   2.991   4.664  0.00  0.00    +0.000 HD
ENDBRANCH  19  22
ENDBRANCH  15  16
ENDBRANCH   9  15
TORSDOF 4
ENDMDL
MODEL 2
REMARK VINA RESULT:    -8.673      1.406      6.884
REMARK INTER + INTRA:         -11.266
REMARK INTER:                 -10.738
REMARK INTRA:                  -0.527
REMARK UNBOUND:                -0.565
REMARK  Name = 
REMARK  4 active torsions:
REMARK  status: ('A' for Active; 'I' for Inactive)
REMARK    1  A    between atoms: C_2  and  C_4
REMARK    2  A    between atoms: N_12  and  C_13
REMARK    3  A    between atoms: C_13  and  C_14
REMARK    4  A    between atoms: C_17  and  C_18
REMARK                            x       y       z     vdW  Elec       q    Type
REMARK                         _______ _______ _______ _____ _____    ______ ____
ROOT
ATOM      1  C   UNL     1      46.447   2.504   7.727  0.00  0.00    +0.000 A 
ATOM      2  C   UNL     1      46.456   3.909   7.734  0.00  0.00    +0.000 A 
ATOM      3  C   UNL     1      45.618   4.647   8.581  0.00  0.00    +0.000 A 
ATOM      4  C   UNL     1      44.793   3.911   9.436  0.00  0.00    +0.000 A 
ATOM      5  C   UNL     1      44.783   2.521   9.465  0.00  0.00    +0.000 A 
ATOM      6  C   UNL     1      45.613   1.792   8.603  0.00  0.00    +0.000 A 
ATOM      7  N   UNL     1      43.891   2.084  10.407  0.00  0.00    +0.000 NA
ATOM      8  N   UNL     1      43.335   3.146  10.972  0.00  0.00    +0.000 NA
ATOM      9  N   UNL     1      43.847   4.242  10.375  0.00  0.00    +0.000 N 
ENDROOT
BRANCH   1  11
ATOM     10  N   UNL     1      48.423   2.506   6.294  0.00  0.00    +0.000 N 
ATOM     11  C   UNL     1      47.364   1.797   6.795  0.00  0.00    +0.000 C 
ATOM     12  O   UNL     1      47.204   0.616   6.514  0.00  0.00    +0.000 OA
ATOM     13  H   UNL     1      49.090   1.985   5.739  0.00  0.00    +0.000 HD
ATOM     14  H   UNL     1      48.720   3.392   6.677  0.00  0.00    +0.000 HD
ENDBRANCH   1  11
BRANCH   9  15
ATOM     15  C   UNL     1      43.328   5.556  10.724  0.00  0.00    +0.000 C 
BRANCH  15  16
ATOM     16  C   UNL     1      44.313   6.308  11.580  0.00  0.00    +0.000 A 
ATOM     17  C   UNL     1      44.573   7.669  11.370  0.00  0.00    +0.000 A 
ATOM     18  C   UNL     1      45.595   8.297  12.074  0.00  0.00    +0.000 A 
ATOM     19  C   UNL     1      46.318   7.542  12.985  0.00  0.00    +0.000 A 
ATOM     20  N   UNL     1      46.044   6.238  13.277  0.00  0.00    +0.000 NA
ATOM     21  C   UNL     1      45.047   5.661  12.570  0.00  0.00    +0.000 A 
BRANCH  19  22
ATOM     22  C   UNL     1      47.528   8.134  13.637  0.00  0.00    +0.000 C 
ATOM     23  N   UNL     1      47.283   8.872  14.764  0.00  0.00    +0.000 N 
ATOM     24  O   UNL     1      48.663   7.948  13.221  0.00  0.00    +0.000 OA
ATOM     25  H   UNL     1      46.335   8.941  15.116  0.00  0.00    +0.000 HD
ATOM     26  H   UNL     1      48.061   9.211  15.310  0.00  0.00    +0.000 HD
ENDBRANCH  19  22
ENDBRANCH  15  16
ENDBRANCH   9  15
TORSDOF 4
ENDMDL
MODEL 3
REMARK VINA RESULT:    -8.322      1.871      2.576
REMARK INTER + INTRA:         -10.833
REMARK INTER:                 -10.199
REMARK INTRA:                  -0.635
REMARK UNBOUND:                -0.565
REMARK  Name = 
REMARK  4 active torsions:
REMARK  status: ('A' for Active; 'I' for Inactive)
REMARK    1  A    between atoms: C_2  and  C_4
REMARK    2  A    between atoms: N_12  and  C_13
REMARK    3  A    between atoms: C_13  and  C_14
REMARK    4  A    between atoms: C_17  and  C_18
REMARK                            x       y       z     vdW  Elec       q    Type
REMARK                         _______ _______ _______ _____ _____    ______ ____
ROOT
ATOM      1  C   UNL     1      46.889   4.557  14.432  0.00  0.00    +0.000 A 
ATOM      2  C   UNL     1      46.522   3.412  13.704  0.00  0.00    +0.000 A 
ATOM      3  C   UNL     1      45.709   3.493  12.566  0.00  0.00    +0.000 A 
ATOM      4  C   UNL     1      45.306   4.773  12.178  0.00  0.00    +0.000 A 
ATOM      5  C   UNL     1      45.675   5.923  12.867  0.00  0.00    +0.000 A 
ATOM      6  C   UNL     1      46.475   5.831  14.014  0.00  0.00    +0.000 A 
ATOM      7  N   UNL     1      45.147   7.024  12.248  0.00  0.00    +0.000 NA
ATOM      8  N   UNL     1      44.454   6.613  11.196  0.00  0.00    +0.000 NA
ATOM      9  N   UNL     1      44.519   5.265  11.165  0.00  0.00    +0.000 N 
ENDROOT
BRANCH   1  11
ATOM     10  N   UNL     1      47.539   3.275  16.404  0.00  0.00    +0.000 N 
ATOM     11  C   UNL     1      47.751   4.385  15.631  0.00  0.00    +0.000 C 
ATOM     12  O   UNL     1      48.641   5.181  15.898  0.00  0.00    +0.000 OA
ATOM     13  H   UNL     1      48.195   3.123  17.161  0.00  0.00    +0.000 HD
ATOM     14  H   UNL     1      46.987   2.488  16.096  0.00  0.00    +0.000 HD
ENDBRANCH   1  11
BRANCH   9  15
ATOM     15  C   UNL     1      43.750   4.533  10.170  0.00  0.00    +0.000 C 
BRANCH  15  16
ATOM     16  C   UNL     1      44.663   3.814   9.213  0.00  0.00    +0.000 A 
ATOM     17  C   UNL     1      44.771   2.417   9.218  0.00  0.00    +0.000 A 
ATOM     18  C   UNL     1      45.733   1.793   8.430  0.00  0.00    +0.000 A 
ATOM     19  C   UNL     1      46.548   2.591   7.642  0.00  0.00    +0.000 A 
ATOM     20  N   UNL     1      46.420   3.946   7.547  0.00  0.00    +0.000 NA
ATOM     21  C   UNL     1      45.479   4.517   8.331  0.00  0.00    +0.000 A 
BRANCH  19  22
ATOM     22  C   UNL     1      47.698   1.974   6.911  0.00  0.00    +0.000 C 
ATOM     23  N   UNL     1      48.587   2.859   6.362  0.00  0.00    +0.000 N 
ATOM     24  O   UNL     1      47.862   0.763   6.833  0.00  0.00    +0.000 OA
ATOM     25  H   UNL     1      48.453   3.853   6.512  0.00  0.00    +0.000 HD
ATOM     26  H   UNL     1      49.438   2.511   5.948  0.00  0.00    +0.000 HD
ENDBRANCH  19  22
ENDBRANCH  15  16
ENDBRANCH   9  15
TORSDOF 4
ENDMDL
MODEL 4
REMARK VINA RESULT:    -6.297      3.549      6.816
REMARK INTER + INTRA:          -8.334
REMARK INTER:                  -7.782
REMARK INTRA:                  -0.553
REMARK UNBOUND:                -0.565
REMARK  Name = 
REMARK  4 active torsions:
REMARK  status: ('A' for Active; 'I' for Inactive)
REMARK    1  A    between atoms: C_2  and  C_4
REMARK    2  A    between atoms: N_12  and  C_13
REMARK    3  A    between atoms: C_13  and  C_14
REMARK    4  A    between atoms: C_17  and  C_18
REMARK                            x       y       z     vdW  Elec       q    Type
REMARK                         _______ _______ _______ _____ _____    ______ ____
ROOT
ATOM      1  C   UNL     1      45.023   3.942  11.579  0.00  0.00    +0.000 A 
ATOM      2  C   UNL     1      45.103   5.220  11.001  0.00  0.00    +0.000 A 
ATOM      3  C   UNL     1      45.906   6.228  11.550  0.00  0.00    +0.000 A 
ATOM      4  C   UNL     1      46.644   5.887  12.687  0.00  0.00    +0.000 A 
ATOM      5  C   UNL     1      46.600   4.623  13.265  0.00  0.00    +0.000 A 
ATOM      6  C   UNL     1      45.781   3.626  12.717  0.00  0.00    +0.000 A 
ATOM      7  N   UNL     1      47.433   4.580  14.350  0.00  0.00    +0.000 NA
ATOM      8  N   UNL     1      47.998   5.771  14.483  0.00  0.00    +0.000 NA
ATOM      9  N   UNL     1      47.508   6.567  13.510  0.00  0.00    +0.000 N 
ENDROOT
BRANCH   1  11
ATOM     10  N   UNL     1      44.653   2.239   9.871  0.00  0.00    +0.000 N 
ATOM     11  C   UNL     1      44.143   2.930  10.937  0.00  0.00    +0.000 C 
ATOM     12  O   UNL     1      43.021   2.695  11.365  0.00  0.00    +0.000 OA
ATOM     13  H   UNL     1      44.080   1.489   9.506  0.00  0.00    +0.000 HD
ATOM     14  H   UNL     1      45.636   2.234   9.639  0.00  0.00    +0.000 HD
ENDBRANCH   1  11
BRANCH   9  15
ATOM     15  C   UNL     1      47.875   7.975  13.483  0.00  0.00    +0.000 C 
BRANCH  15  16
ATOM     16  C   UNL     1      49.226   8.161  12.844  0.00  0.00    +0.000 A 
ATOM     17  C   UNL     1      49.477   7.741  11.531  0.00  0.00    +0.000 A 
ATOM     18  C   UNL     1      50.771   7.788  11.023  0.00  0.00    +0.000 A 
ATOM     19  C   UNL     1      51.776   8.276  11.845  0.00  0.00    +0.000 A 
ATOM     20  N   UNL     1      51.559   8.770  13.097  0.00  0.00    +0.000 NA
ATOM     21  C   UNL     1      50.290   8.704  13.558  0.00  0.00    +0.000 A 
BRANCH  19  22
ATOM     22  C   UNL     1      53.201   8.188  11.397  0.00  0.00    +0.000 C 
ATOM     23  N   UNL     1      53.844   7.022  11.716  0.00  0.00    +0.000 N 
ATOM     24  O   UNL     1      53.751   9.075  10.757  0.00  0.00    +0.000 OA
ATOM     25  H   UNL     1      53.331   6.283  12.182  0.00  0.00    +0.000 HD
ATOM     26  H   UNL     1      54.771   6.855  11.353  0.00  0.00    +0.000 HD
ENDBRANCH  19  22
ENDBRANCH  15  16
ENDBRANCH   9  15
TORSDOF 4
ENDMDL
MODEL 5
REMARK VINA RESULT:    -5.881      4.044      8.663
REMARK INTER + INTRA:          -7.821
REMARK INTER:                  -7.196
REMARK INTRA:                  -0.625
REMARK UNBOUND:                -0.565
REMARK  Name = 
REMARK  4 active torsions:
REMARK  status: ('A' for Active; 'I' for Inactive)
REMARK    1  A    between atoms: C_2  and  C_4
REMARK    2  A    between atoms: N_12  and  C_13
REMARK    3  A    between atoms: C_13  and  C_14
REMARK    4  A    between atoms: C_17  and  C_18
REMARK                            x       y       z     vdW  Elec       q    Type
REMARK                         _______ _______ _______ _____ _____    ______ ____
ROOT
ATOM      1  C   UNL     1      44.820   4.345  12.393  0.00  0.00    +0.000 A 
ATOM      2  C   UNL     1      45.915   3.761  13.051  0.00  0.00    +0.000 A 
ATOM      3  C   UNL     1      46.950   4.537  13.591  0.00  0.00    +0.000 A 
ATOM      4  C   UNL     1      46.821   5.923  13.463  0.00  0.00    +0.000 A 
ATOM      5  C   UNL     1      45.736   6.526  12.837  0.00  0.00    +0.000 A 
ATOM      6  C   UNL     1      44.714   5.740  12.286  0.00  0.00    +0.000 A 
ATOM      7  N   UNL     1      45.875   7.887  12.877  0.00  0.00    +0.000 NA
ATOM      8  N   UNL     1      47.011   8.167  13.501  0.00  0.00    +0.000 NA
ATOM      9  N   UNL     1      47.597   6.996  13.827  0.00  0.00    +0.000 N 
ENDROOT
BRANCH   1  11
ATOM     10  N   UNL     1      43.654   2.201  12.393  0.00  0.00    +0.000 N 
ATOM     11  C   UNL     1      43.767   3.451  11.845  0.00  0.00    +0.000 C 
ATOM     12  O   UNL     1      43.004   3.826  10.965  0.00  0.00    +0.000 OA
ATOM     13  H   UNL     1      42.873   1.641  12.076  0.00  0.00    +0.000 HD
ATOM     14  H   UNL     1      44.097   1.941  13.262  0.00  0.00    +0.000 HD
ENDBRANCH   1  11
BRANCH   9  15
ATOM     15  C   UNL     1      48.921   7.001  14.429  0.00  0.00    +0.000 C 
BRANCH  15  16
ATOM     16  C   UNL     1      48.828   6.868  15.926  0.00  0.00    +0.000 A 
ATOM     17  C   UNL     1      48.783   5.612  16.545  0.00  0.00    +0.000 A 
ATOM     18  C   UNL     1      48.543   5.521  17.913  0.00  0.00    +0.000 A 
ATOM     19  C   UNL     1      48.375   6.699  18.624  0.00  0.00    +0.000 A 
ATOM     20  N   UNL     1      48.493   7.942  18.074  0.00  0.00    +0.000 NA
ATOM     21  C   UNL     1      48.721   7.990  16.743  0.00  0.00    +0.000 A 
BRANCH  19  22
ATOM     22  C   UNL     1      47.953   6.639  20.059  0.00  0.00    +0.000 C 
ATOM     23  N   UNL     1      47.063   5.645  20.366  0.00  0.00    +0.000 N 
ATOM     24  O   UNL     1      48.394   7.397  20.912  0.00  0.00    +0.000 OA
ATOM     25  H   UNL     1      46.779   4.992  19.644  0.00  0.00    +0.000 HD
ATOM     26  H   UNL     1      46.819   5.482  21.331  0.00  0.00    +0.000 HD
ENDBRANCH  19  22
ENDBRANCH  15  16
ENDBRANCH   9  15
TORSDOF 4
ENDMDL
MODEL 6
REMARK VINA RESULT:    -5.791      3.415      6.862
REMARK INTER + INTRA:          -7.710
REMARK INTER:                  -7.174
REMARK INTRA:                  -0.536
REMARK UNBOUND:                -0.565
REMARK  Name = 
REMARK  4 active torsions:
REMARK  status: ('A' for Active; 'I' for Inactive)
REMARK    1  A    between atoms: C_2  and  C_4
REMARK    2  A    between atoms: N_12  and  C_13
REMARK    3  A    between atoms: C_13  and  C_14
REMARK    4  A    between atoms: C_17  and  C_18
REMARK                            x       y       z     vdW  Elec       q    Type
REMARK                         _______ _______ _______ _____ _____    ______ ____
ROOT
ATOM      1  C   UNL     1      44.518   4.155  11.568  0.00  0.00    +0.000 A 
ATOM      2  C   UNL     1      45.535   4.090  12.534  0.00  0.00    +0.000 A 
ATOM      3  C   UNL     1      46.154   5.245  13.031  0.00  0.00    +0.000 A 
ATOM      4  C   UNL     1      45.687   6.465  12.533  0.00  0.00    +0.000 A 
ATOM      5  C   UNL     1      44.665   6.556  11.594  0.00  0.00    +0.000 A 
ATOM      6  C   UNL     1      44.064   5.394  11.092  0.00  0.00    +0.000 A 
ATOM      7  N   UNL     1      44.414   7.871  11.310  0.00  0.00    +0.000 NA
ATOM      8  N   UNL     1      45.241   8.615  12.031  0.00  0.00    +0.000 NA
ATOM      9  N   UNL     1      46.027   7.779  12.742  0.00  0.00    +0.000 N 
ENDROOT
BRANCH   1  11
ATOM     10  N   UNL     1      44.520   2.258  10.032  0.00  0.00    +0.000 N 
ATOM     11  C   UNL     1      43.916   2.882  11.090  0.00  0.00    +0.000 C 
ATOM     12  O   UNL     1      42.941   2.389  11.643  0.00  0.00    +0.000 OA
ATOM     13  H   UNL     1      44.156   1.347   9.780  0.00  0.00    +0.000 HD
ATOM     14  H   UNL     1      45.444   2.502   9.705  0.00  0.00    +0.000 HD
ENDBRANCH   1  11
BRANCH   9  15
ATOM     15  C   UNL     1      47.111   8.324  13.545  0.00  0.00    +0.000 C 
BRANCH  15  16
ATOM     16  C   UNL     1      48.339   8.547  12.702  0.00  0.00    +0.000 A 
ATOM     17  C   UNL     1      48.989   7.482  12.065  0.00  0.00    +0.000 A 
ATOM     18  C   UNL     1      50.204   7.696  11.421  0.00  0.00    +0.000 A 
ATOM     19  C   UNL     1      50.722   8.982  11.419  0.00  0.00    +0.000 A 
ATOM     20  N   UNL     1      50.081  10.060  11.956  0.00  0.00    +0.000 NA
ATOM     21  C   UNL     1      48.906   9.812  12.577  0.00  0.00    +0.000 A 
BRANCH  19  22
ATOM     22  C   UNL     1      52.099   9.220  10.884  0.00  0.00    +0.000 C 
ATOM     23  N   UNL     1      53.114   8.650  11.605  0.00  0.00    +0.000 N 
ATOM     24  O   UNL     1      52.312   9.848   9.855  0.00  0.00    +0.000 OA
ATOM     25  H   UNL     1      52.890   8.077  12.411  0.00  0.00    +0.000 HD
ATOM     26  H   UNL     1      54.055   8.683  11.243  0.00  0.00    +0.000 HD
ENDBRANCH  19  22
ENDBRANCH  15  16
ENDBRANCH   9  15
TORSDOF 4
ENDMDL
