MODEL 1
REMARK VINA RESULT:    -8.591      0.000      0.000
REMARK INTER + INTRA:         -13.208
REMARK INTER:                 -12.107
REMARK INTRA:                  -1.101
REMARK UNBOUND:                -1.101
REMARK  Name = 
REMARK  8 active torsions:
REMARK  status: ('A' for Active; 'I' for Inactive)
REMARK    1  A    between atoms: C_1  and  O_2
REMARK    2  A    between atoms: O_2  and  C_3
REMARK    3  A    between atoms: C_5  and  C_6
REMARK    4  A    between atoms: C_6  and  N_7
REMARK    5  A    between atoms: C_8  and  C_10
REMARK    6  A    between atoms: C_22  and  C_23
REMARK    7  A    between atoms: C_23  and  O_24
REMARK    8  A    between atoms: O_24  and  C_25
REMARK                            x       y       z     vdW  Elec       q    Type
REMARK                         _______ _______ _______ _____ _____    ______ ____
ROOT
ATOM      1  C   UNL     1      44.223   5.004  11.538  0.00  0.00    +0.000 A 
ATOM      2  C   UNL     1      44.788   5.956  12.390  0.00  0.00    +0.000 A 
ATOM      3  C   UNL     1      45.877   6.725  11.972  0.00  0.00    +0.000 A 
ATOM      4  C   UNL     1      46.353   6.511  10.688  0.00  0.00    +0.000 A 
ATOM      5  N   UNL     1      45.853   5.586   9.842  0.00  0.00    +0.000 NA
ATOM      6  C   UNL     1      44.799   4.832  10.273  0.00  0.00    +0.000 A 
ENDROOT
BRANCH   1   8
ATOM      7  C   UNL     1      43.489   3.000  12.565  0.00  0.00    +0.000 C 
ATOM      8  O   UNL     1      43.164   4.208  11.881  0.00  0.00    +0.000 OA
ENDBRANCH   1   8
BRANCH   3   9
ATOM      9  C   UNL     1      46.476   7.759  12.876  0.00  0.00    +0.000 C 
BRANCH   9  10
ATOM     10  N   UNL     1      47.021   7.167  14.072  0.00  0.00    +0.000 N 
ATOM     11  C   UNL     1      48.302   6.692  14.151  0.00  0.00    +0.000 C 
ATOM     12  O   UNL     1      49.077   6.730  13.200  0.00  0.00    +0.000 OA
ATOM     13  H   UNL     1      46.359   6.941  14.808  0.00  0.00    +0.000 HD
BRANCH  11  14
ATOM     14  C   UNL     1      48.731   6.191  15.466  0.00  0.00    +0.000 A 
ATOM     15  C   UNL     1      49.772   6.821  16.134  0.00  0.00    +0.000 A 
ATOM     16  S   UNL     1      50.113   6.150  17.663  0.00  0.00    +0.000 S 
ATOM     17  C   UNL     1      48.914   4.960  17.469  0.00  0.00    +0.000 A 
ATOM     18  N   UNL     1      48.698   4.023  18.431  0.00  0.00    +0.000 NA
ATOM     19  C   UNL     1      47.787   3.159  18.141  0.00  0.00    +0.000 A 
ATOM     20  N   UNL     1      47.063   3.149  16.974  0.00  0.00    +0.000 N 
ATOM     21  C   UNL     1      47.197   4.117  16.008  0.00  0.00    +0.000 A 
ATOM     22  O   UNL     1      46.450   4.153  15.035  0.00  0.00    +0.000 OA
ATOM     23  C   UNL     1      48.244   5.089  16.266  0.00  0.00    +0.000 A 
ATOM     24  H   UNL     1      46.343   2.458  16.819  0.00  0.00    +0.000 HD
ENDBRANCH  11  14
ENDBRANCH   9  10
ENDBRANCH   3   9
BRANCH   6  25
ATOM     25  C   UNL     1      44.276   3.794   9.298  0.00  0.00    +0.000 C 
BRANCH  25  26
ATOM     26  O   UNL     1      45.014   2.574   9.436  0.00  0.00    +0.000 OA
BRANCH  26  27
ATOM     27  C   UNL     1      45.801   2.304   8.332  0.00  0.00    +0.000 A 
ATOM     28  C   UNL     1      45.874   3.295   7.364  0.00  0.00    +0.000 A 
ATOM     29  C   UNL     1      46.655   3.061   6.235  0.00  0.00    +0.000 A 
ATOM     30  C   UNL     1      47.331   1.855   6.112  0.00  0.00    +0.000 A 
ATOM     31  C   UNL     1      47.200   0.924   7.133  0.00  0.00    +0.000 A 
ATOM     32  N   UNL     1      46.446   1.121   8.236  0.00  0.00    +0.000 NA
ENDBRANCH  26  27
ENDBRANCH  25  26
ENDBRANCH   6  25
TORSDOF 7
ENDMDL
MODEL 2
REMARK VINA RESULT:    -7.778      2.056      2.435
REMARK INTER + INTRA:         -12.062
REMARK INTER:                 -11.178
REMARK INTRA:                  -0.884
REMARK UNBOUND:                -1.101
REMARK  Name = 
REMARK  8 active torsions:
REMARK  status: ('A' for Active; 'I' for Inactive)
REMARK    1  A    between atoms: C_1  and  O_2
REMARK    2  A    between atoms: O_2  and  C_3
REMARK    3  A    between atoms: C_5  and  C_6
REMARK    4  A    between atoms: C_6  and  N_7
REMARK    5  A    between atoms: C_8  and  C_10
REMARK    6  A    between atoms: C_22  and  C_23
REMARK    7  A    between atoms: C_23  and  O_24
REMARK    8  A    between atoms: O_24  and  C_25
REMARK                            x       y       z     vdW  Elec       q    Type
REMARK                         _______ _______ _______ _____ _____    ______ ____
ROOT
ATOM      1  C   UNL     1      45.362   4.375  12.131  0.00  0.00    +0.000 A 
ATOM      2  C   UNL     1      46.161   5.082  13.034  0.00  0.00    +0.000 A 
ATOM      3  C   UNL     1      46.811   6.254  12.639  0.00  0.00    +0.000 A 
ATOM      4  C   UNL     1      46.616   6.684  11.335  0.00  0.00    +0.000 A 
ATOM      5  N   UNL     1      45.873   6.019  10.425  0.00  0.00    +0.000 NA
ATOM      6  C   UNL     1      45.259   4.866  10.823  0.00  0.00    +0.000 A 
ENDROOT
BRANCH   1   8
ATOM      7  C   UNL     1      43.398   3.368  12.989  0.00  0.00    +0.000 C 
ATOM      8  O   UNL     1      44.705   3.215  12.441  0.00  0.00    +0.000 OA
ENDBRANCH   1   8
BRANCH   3   9
ATOM      9  C   UNL     1      47.654   7.025  13.608  0.00  0.00    +0.000 C 
BRANCH   9  10
ATOM     10  N   UNL     1      47.659   6.411  14.912  0.00  0.00    +0.000 N 
ATOM     11  C   UNL     1      48.791   6.284  15.671  0.00  0.00    +0.000 C 
ATOM     12  O   UNL     1      49.887   6.679  15.287  0.00  0.00    +0.000 OA
ATOM     13  H   UNL     1      46.821   5.902  15.176  0.00  0.00    +0.000 HD
BRANCH  11  14
ATOM     14  C   UNL     1      48.614   5.707  17.013  0.00  0.00    +0.000 A 
ATOM     15  C   UNL     1      48.788   4.343  17.201  0.00  0.00    +0.000 A 
ATOM     16  S   UNL     1      48.596   3.842  18.819  0.00  0.00    +0.000 S 
ATOM     17  C   UNL     1      48.225   5.424  19.321  0.00  0.00    +0.000 A 
ATOM     18  N   UNL     1      47.924   5.692  20.621  0.00  0.00    +0.000 NA
ATOM     19  C   UNL     1      47.625   6.922  20.858  0.00  0.00    +0.000 A 
ATOM     20  N   UNL     1      47.605   7.917  19.911  0.00  0.00    +0.000 N 
ATOM     21  C   UNL     1      47.970   7.707  18.604  0.00  0.00    +0.000 A 
ATOM     22  O   UNL     1      48.063   8.639  17.811  0.00  0.00    +0.000 OA
ATOM     23  C   UNL     1      48.272   6.326  18.274  0.00  0.00    +0.000 A 
ATOM     24  H   UNL     1      47.387   8.869  20.168  0.00  0.00    +0.000 HD
ENDBRANCH  11  14
ENDBRANCH   9  10
ENDBRANCH   3   9
BRANCH   6  25
ATOM     25  C   UNL     1      44.447   4.142   9.766  0.00  0.00    +0.000 C 
BRANCH  25  26
ATOM     26  O   UNL     1      44.994   4.393   8.467  0.00  0.00    +0.000 OA
BRANCH  26  27
ATOM     27  C   UNL     1      45.786   3.353   8.016  0.00  0.00    +0.000 A 
ATOM     28  C   UNL     1      46.737   3.669   7.056  0.00  0.00    +0.000 A 
ATOM     29  C   UNL     1      47.554   2.649   6.574  0.00  0.00    +0.000 A 
ATOM     30  C   UNL     1      47.395   1.359   7.063  0.00  0.00    +0.000 A 
ATOM     31  C   UNL     1      46.418   1.140   8.024  0.00  0.00    +0.000 A 
ATOM     32  N   UNL     1      45.608   2.107   8.507  0.00  0.00    +0.000 NA
ENDBRANCH  26  27
ENDBRANCH  25  26
ENDBRANCH   6  25
TORSDOF 7
ENDMDL
MODEL 3
REMARK VINA RESULT:    -7.641      2.332      3.876
REMARK INTER + INTRA:         -11.870
REMARK INTER:                 -10.638
REMARK INTRA:                  -1.232
REMARK UNBOUND:                -1.101
REMARK  Name = 
REMARK  8 active torsions:
REMARK  status: ('A' for Active; 'I' for Inactive)
REMARK    1  A    between atoms: C_1  and  O_2
REMARK    2  A    between atoms: O_2  and  C_3
REMARK    3  A    between atoms: C_5  and  C_6
REMARK    4  A    between atoms: C_6  and  N_7
REMARK    5  A    between atoms: C_8  and  C_10
REMARK    6  A    between atoms: C_22  and  C_23
REMARK    7  A    between atoms: C_23  and  O_24
REMARK    8  A    between atoms: O_24  and  C_25
REMARK                            x       y       z     vdW  Elec       q    Type
REMARK                         _______ _______ _______ _____ _____    ______ ____
ROOT
ATOM      1  C   UNL     1      45.492   5.492  11.618  0.00  0.00    +0.000 A 
ATOM      2  C   UNL     1      46.164   5.646  12.833  0.00  0.00    +0.000 A 
ATOM      3  C   UNL     1      46.420   4.539  13.647  0.00  0.00    +0.000 A 
ATOM      4  C   UNL     1      45.994   3.301  13.193  0.00  0.00    +0.000 A 
ATOM      5  N   UNL     1      45.321   3.111  12.038  0.00  0.00    +0.000 NA
ATOM      6  C   UNL     1      45.065   4.206  11.263  0.00  0.00    +0.000 A 
ENDROOT
BRANCH   1   8
ATOM      7  C   UNL     1      44.613   7.679  11.382  0.00  0.00    +0.000 C 
ATOM      8  O   UNL     1      45.196   6.529  10.774  0.00  0.00    +0.000 OA
ENDBRANCH   1   8
BRANCH   3   9
ATOM      9  C   UNL     1      47.156   4.696  14.943  0.00  0.00    +0.000 C 
BRANCH   9  10
ATOM     10  N   UNL     1      47.826   5.970  15.021  0.00  0.00    +0.000 N 
ATOM     11  C   UNL     1      48.939   6.180  15.789  0.00  0.00    +0.000 C 
ATOM     12  O   UNL     1      49.440   5.295  16.475  0.00  0.00    +0.000 OA
ATOM     13  H   UNL     1      47.333   6.766  14.628  0.00  0.00    +0.000 HD
BRANCH  11  14
ATOM     14  C   UNL     1      49.551   7.515  15.697  0.00  0.00    +0.000 A 
ATOM     15  C   UNL     1      49.848   8.214  16.859  0.00  0.00    +0.000 A 
ATOM     16  S   UNL     1      50.597   9.720  16.581  0.00  0.00    +0.000 S 
ATOM     17  C   UNL     1      50.510   9.514  14.895  0.00  0.00    +0.000 A 
ATOM     18  N   UNL     1      50.968  10.477  14.050  0.00  0.00    +0.000 NA
ATOM     19  C   UNL     1      50.807  10.210  12.800  0.00  0.00    +0.000 A 
ATOM     20  N   UNL     1      50.233   9.061  12.314  0.00  0.00    +0.000 N 
ATOM     21  C   UNL     1      49.823   8.033  13.127  0.00  0.00    +0.000 A 
ATOM     22  O   UNL     1      49.431   6.968  12.660  0.00  0.00    +0.000 OA
ATOM     23  C   UNL     1      49.941   8.302  14.549  0.00  0.00    +0.000 A 
ATOM     24  H   UNL     1      50.160   8.901  11.319  0.00  0.00    +0.000 HD
ENDBRANCH  11  14
ENDBRANCH   9  10
ENDBRANCH   3   9
BRANCH   6  25
ATOM     25  C   UNL     1      44.293   3.952   9.981  0.00  0.00    +0.000 C 
BRANCH  25  26
ATOM     26  O   UNL     1      44.453   2.589   9.573  0.00  0.00    +0.000 OA
BRANCH  26  27
ATOM     27  C   UNL     1      45.404   2.442   8.580  0.00  0.00    +0.000 A 
ATOM     28  C   UNL     1      45.615   3.538   7.756  0.00  0.00    +0.000 A 
ATOM     29  C   UNL     1      46.564   3.431   6.742  0.00  0.00    +0.000 A 
ATOM     30  C   UNL     1      47.265   2.242   6.587  0.00  0.00    +0.000 A 
ATOM     31  C   UNL     1      46.988   1.201   7.462  0.00  0.00    +0.000 A 
ATOM     32  N   UNL     1      46.070   1.274   8.450  0.00  0.00    +0.000 NA
ENDBRANCH  26  27
ENDBRANCH  25  26
ENDBRANCH   6  25
TORSDOF 7
ENDMDL
MODEL 4
REMARK VINA RESULT:    -7.302      2.131      2.861
REMARK INTER + INTRA:         -11.391
REMARK INTER:                 -10.380
REMARK INTRA:                  -1.011
REMARK UNBOUND:                -1.101
REMARK  Name = 
REMARK  8 active torsions:
REMARK  status: ('A' for Active; 'I' for Inactive)
REMARK    1  A    between atoms: C_1  and  O_2
REMARK    2  A    between atoms: O_2  and  C_3
REMARK    3  A    between atoms: C_5  and  C_6
REMARK    4  A    between atoms: C_6  and  N_7
REMARK    5  A    between atoms: C_8  and  C_10
REMARK    6  A    between atoms: C_22  and  C_23
REMARK    7  A    between atoms: C_23  and  O_24
REMARK    8  A    between atoms: O_24  and  C_25
REMARK                            x       y       z     vdW  Elec       q    Type
REMARK                         _______ _______ _______ _____ _____    ______ ____
ROOT
ATOM      1  C   UNL     1      44.994   6.615  11.981  0.00  0.00    +0.000 A 
ATOM      2  C   UNL     1      46.178   7.025  12.599  0.00  0.00    +0.000 A 
ATOM      3  C   UNL     1      47.019   6.092  13.211  0.00  0.00    +0.000 A 
ATOM      4  C   UNL     1      46.636   4.761  13.165  0.00  0.00    +0.000 A 
ATOM      5  N   UNL     1      45.490   4.324  12.600  0.00  0.00    +0.000 NA
ATOM      6  C   UNL     1      44.672   5.252  12.020  0.00  0.00    +0.000 A 
ENDROOT
BRANCH   1   8
ATOM      7  C   UNL     1      44.524   8.835  11.302  0.00  0.00    +0.000 C 
ATOM      8  O   UNL     1      44.117   7.470  11.371  0.00  0.00    +0.000 OA
ENDBRANCH   1   8
BRANCH   3   9
ATOM      9  C   UNL     1      48.298   6.525  13.860  0.00  0.00    +0.000 C 
BRANCH   9  10
ATOM     10  N   UNL     1      48.199   6.497  15.298  0.00  0.00    +0.000 N 
ATOM     11  C   UNL     1      48.985   7.264  16.114  0.00  0.00    +0.000 C 
ATOM     12  O   UNL     1      49.840   8.027  15.675  0.00  0.00    +0.000 OA
ATOM     13  H   UNL     1      47.648   5.744  15.700  0.00  0.00    +0.000 HD
BRANCH  11  14
ATOM     14  C   UNL     1      48.705   7.180  17.556  0.00  0.00    +0.000 A 
ATOM     15  C   UNL     1      48.299   8.315  18.243  0.00  0.00    +0.000 A 
ATOM     16  S   UNL     1      47.968   8.039  19.892  0.00  0.00    +0.000 S 
ATOM     17  C   UNL     1      48.402   6.400  19.761  0.00  0.00    +0.000 A 
ATOM     18  N   UNL     1      48.367   5.579  20.845  0.00  0.00    +0.000 NA
ATOM     19  C   UNL     1      48.756   4.372  20.615  0.00  0.00    +0.000 A 
ATOM     20  N   UNL     1      49.173   3.906  19.392  0.00  0.00    +0.000 N 
ATOM     21  C   UNL     1      49.156   4.679  18.257  0.00  0.00    +0.000 A 
ATOM     22  O   UNL     1      49.414   4.200  17.156  0.00  0.00    +0.000 OA
ATOM     23  C   UNL     1      48.768   6.061  18.471  0.00  0.00    +0.000 A 
ATOM     24  H   UNL     1      49.442   2.940  19.273  0.00  0.00    +0.000 HD
ENDBRANCH  11  14
ENDBRANCH   9  10
ENDBRANCH   3   9
BRANCH   6  25
ATOM     25  C   UNL     1      43.387   4.723  11.411  0.00  0.00    +0.000 C 
BRANCH  25  26
ATOM     26  O   UNL     1      43.427   4.858   9.986  0.00  0.00    +0.000 OA
BRANCH  26  27
ATOM     27  C   UNL     1      44.250   3.923   9.388  0.00  0.00    +0.000 A 
ATOM     28  C   UNL     1      45.191   4.409   8.490  0.00  0.00    +0.000 A 
ATOM     29  C   UNL     1      46.039   3.499   7.864  0.00  0.00    +0.000 A 
ATOM     30  C   UNL     1      45.922   2.145   8.154  0.00  0.00    +0.000 A 
ATOM     31  C   UNL     1      44.953   1.754   9.067  0.00  0.00    +0.000 A 
ATOM     32  N   UNL     1      44.113   2.612   9.686  0.00  0.00    +0.000 NA
ENDBRANCH  26  27
ENDBRANCH  25  26
ENDBRANCH   6  25
TORSDOF 7
ENDMDL
MODEL 5
REMARK VINA RESULT:    -7.206      2.115      2.709
REMARK INTER + INTRA:         -11.257
REMARK INTER:                 -10.167
REMARK INTRA:                  -1.090
REMARK UNBOUND:                -1.101
REMARK  Name = 
REMARK  8 active torsions:
REMARK  status: ('A' for Active; 'I' for Inactive)
REMARK    1  A    between atoms: C_1  and  O_2
REMARK    2  A    between atoms: O_2  and  C_3
REMARK    3  A    between atoms: C_5  and  C_6
REMARK    4  A    between atoms: C_6  and  N_7
REMARK    5  A    between atoms: C_8  and  C_10
REMARK    6  A    between atoms: C_22  and  C_23
REMARK    7  A    between atoms: C_23  and  O_24
REMARK    8  A    between atoms: O_24  and  C_25
REMARK                            x       y       z     vdW  Elec       q    Type
REMARK                         _______ _______ _______ _____ _____    ______ ____
ROOT
ATOM      1  C   UNL     1      46.019   4.532  12.682  0.00  0.00    +0.000 A 
ATOM      2  C   UNL     1      46.639   5.729  13.051  0.00  0.00    +0.000 A 
ATOM      3  C   UNL     1      46.318   6.924  12.403  0.00  0.00    +0.000 A 
ATOM      4  C   UNL     1      45.359   6.869  11.402  0.00  0.00    +0.000 A 
ATOM      5  N   UNL     1      44.754   5.732  10.999  0.00  0.00    +0.000 NA
ATOM      6  C   UNL     1      45.093   4.571  11.632  0.00  0.00    +0.000 A 
ENDROOT
BRANCH   1   8
ATOM      7  C   UNL     1      47.169   3.354  14.385  0.00  0.00    +0.000 C 
ATOM      8  O   UNL     1      46.290   3.323  13.263  0.00  0.00    +0.000 OA
ENDBRANCH   1   8
BRANCH   3   9
ATOM      9  C   UNL     1      46.967   8.212  12.806  0.00  0.00    +0.000 C 
BRANCH   9  10
ATOM     10  N   UNL     1      48.304   8.000  13.300  0.00  0.00    +0.000 N 
ATOM     11  C   UNL     1      48.710   8.395  14.545  0.00  0.00    +0.000 C 
ATOM     12  O   UNL     1      47.961   8.969  15.329  0.00  0.00    +0.000 OA
ATOM     13  H   UNL     1      48.999   7.710  12.617  0.00  0.00    +0.000 HD
BRANCH  11  14
ATOM     14  C   UNL     1      50.084   8.033  14.929  0.00  0.00    +0.000 A 
ATOM     15  C   UNL     1      51.153   8.738  14.393  0.00  0.00    +0.000 A 
ATOM     16  S   UNL     1      52.672   8.227  14.976  0.00  0.00    +0.000 S 
ATOM     17  C   UNL     1      51.960   7.013  15.930  0.00  0.00    +0.000 A 
ATOM     18  N   UNL     1      52.725   6.176  16.681  0.00  0.00    +0.000 NA
ATOM     19  C   UNL     1      52.061   5.279  17.325  0.00  0.00    +0.000 A 
ATOM     20  N   UNL     1      50.695   5.145  17.293  0.00  0.00    +0.000 N 
ATOM     21  C   UNL     1      49.879   6.011  16.607  0.00  0.00    +0.000 A 
ATOM     22  O   UNL     1      48.657   5.942  16.698  0.00  0.00    +0.000 OA
ATOM     23  C   UNL     1      50.581   7.014  15.826  0.00  0.00    +0.000 A 
ATOM     24  H   UNL     1      50.233   4.435  17.843  0.00  0.00    +0.000 HD
ENDBRANCH  11  14
ENDBRANCH   9  10
ENDBRANCH   3   9
BRANCH   6  25
ATOM     25  C   UNL     1      44.401   3.314  11.138  0.00  0.00    +0.000 C 
BRANCH  25  26
ATOM     26  O   UNL     1      44.023   3.468   9.765  0.00  0.00    +0.000 OA
BRANCH  26  27
ATOM     27  C   UNL     1      44.990   3.002   8.894  0.00  0.00    +0.000 A 
ATOM     28  C   UNL     1      45.534   3.930   8.018  0.00  0.00    +0.000 A 
ATOM     29  C   UNL     1      46.511   3.501   7.122  0.00  0.00    +0.000 A 
ATOM     30  C   UNL     1      46.909   2.171   7.133  0.00  0.00    +0.000 A 
ATOM     31  C   UNL     1      46.310   1.317   8.047  0.00  0.00    +0.000 A 
ATOM     32  N   UNL     1      45.357   1.702   8.924  0.00  0.00    +0.000 NA
ENDBRANCH  26  27
ENDBRANCH  25  26
ENDBRANCH   6  25
TORSDOF 7
ENDMDL
MODEL 6
REMARK VINA RESULT:    -6.928      3.314      8.013
REMARK INTER + INTRA:         -10.864
REMARK INTER:                  -9.829
REMARK INTRA:                  -1.035
REMARK UNBOUND:                -1.101
REMARK  Name = 
REMARK  8 active torsions:
REMARK  status: ('A' for Active; 'I' for Inactive)
REMARK    1  A    between atoms: C_1  and  O_2
REMARK    2  A    between atoms: O_2  and  C_3
REMARK    3  A    between atoms: C_5  and  C_6
REMARK    4  A    between atoms: C_6  and  N_7
REMARK    5  A    between atoms: C_8  and  C_10
REMARK    6  A    between atoms: C_22  and  C_23
REMARK    7  A    between atoms: C_23  and  O_24
REMARK    8  A    between atoms: O_24  and  C_25
REMARK                            x       y       z     vdW  Elec       q    Type
REMARK                         _______ _______ _______ _____ _____    ______ ____
ROOT
ATOM      1  C   UNL     1      48.629   5.939  15.957  0.00  0.00    +0.000 A 
ATOM      2  C   UNL     1      48.155   6.365  14.713  0.00  0.00    +0.000 A 
ATOM      3  C   UNL     1      48.937   7.191  13.901  0.00  0.00    +0.000 A 
ATOM      4  C   UNL     1      50.190   7.549  14.373  0.00  0.00    +0.000 A 
ATOM      5  N   UNL     1      50.677   7.180  15.577  0.00  0.00    +0.000 NA
ATOM      6  C   UNL     1      49.893   6.387  16.365  0.00  0.00    +0.000 A 
ENDROOT
BRANCH   1   8
ATOM      7  C   UNL     1      47.321   3.984  16.228  0.00  0.00    +0.000 C 
ATOM      8  O   UNL     1      47.918   5.140  16.810  0.00  0.00    +0.000 OA
ENDBRANCH   1   8
BRANCH   3   9
ATOM      9  C   UNL     1      48.440   7.637  12.560  0.00  0.00    +0.000 C 
BRANCH   9  10
ATOM     10  N   UNL     1      47.649   6.615  11.921  0.00  0.00    +0.000 N 
ATOM     11  C   UNL     1      46.320   6.773  11.634  0.00  0.00    +0.000 C 
ATOM     12  O   UNL     1      45.705   7.799  11.911  0.00  0.00    +0.000 OA
ATOM     13  H   UNL     1      48.067   5.692  11.857  0.00  0.00    +0.000 HD
BRANCH  11  14
ATOM     14  C   UNL     1      45.674   5.668  10.909  0.00  0.00    +0.000 A 
ATOM     15  C   UNL     1      45.768   5.608   9.525  0.00  0.00    +0.000 A 
ATOM     16  S   UNL     1      45.009   4.243   8.844  0.00  0.00    +0.000 S 
ATOM     17  C   UNL     1      44.484   3.705  10.369  0.00  0.00    +0.000 A 
ATOM     18  N   UNL     1      43.739   2.574  10.492  0.00  0.00    +0.000 NA
ATOM     19  C   UNL     1      43.376   2.301  11.698  0.00  0.00    +0.000 A 
ATOM     20  N   UNL     1      43.697   3.056  12.799  0.00  0.00    +0.000 N 
ATOM     21  C   UNL     1      44.506   4.165  12.731  0.00  0.00    +0.000 A 
ATOM     22  O   UNL     1      44.877   4.745  13.747  0.00  0.00    +0.000 OA
ATOM     23  C   UNL     1      44.905   4.541  11.387  0.00  0.00    +0.000 A 
ATOM     24  H   UNL     1      43.402   2.772  13.723  0.00  0.00    +0.000 HD
ENDBRANCH  11  14
ENDBRANCH   9  10
ENDBRANCH   3   9
BRANCH   6  25
ATOM     25  C   UNL     1      50.470   6.007  17.716  0.00  0.00    +0.000 C 
BRANCH  25  26
ATOM     26  O   UNL     1      51.796   5.491  17.556  0.00  0.00    +0.000 OA
BRANCH  26  27
ATOM     27  C   UNL     1      51.834   4.110  17.587  0.00  0.00    +0.000 A 
ATOM     28  C   UNL     1      53.029   3.531  17.990  0.00  0.00    +0.000 A 
ATOM     29  C   UNL     1      53.109   2.141  18.032  0.00  0.00    +0.000 A 
ATOM     30  C   UNL     1      52.002   1.382  17.674  0.00  0.00    +0.000 A 
ATOM     31  C   UNL     1      50.849   2.051  17.287  0.00  0.00    +0.000 A 
ATOM     32  N   UNL     1      50.743   3.396  17.231  0.00  0.00    +0.000 NA
ENDBRANCH  26  27
ENDBRANCH  25  26
ENDBRANCH   6  25
TORSDOF 7
ENDMDL
MODEL 7
REMARK VINA RESULT:    -6.836      2.313      3.317
REMARK INTER + INTRA:         -10.735
REMARK INTER:                  -9.619
REMARK INTRA:                  -1.116
REMARK UNBOUND:                -1.101
REMARK  Name = 
REMARK  8 active torsions:
REMARK  status: ('A' for Active; 'I' for Inactive)
REMARK    1  A    between atoms: C_1  and  O_2
REMARK    2  A    between atoms: O_2  and  C_3
REMARK    3  A    between atoms: C_5  and  C_6
REMARK    4  A    between atoms: C_6  and  N_7
REMARK    5  A    between atoms: C_8  and  C_10
REMARK    6  A    between atoms: C_22  and  C_23
REMARK    7  A    between atoms: C_23  and  O_24
REMARK    8  A    between atoms: O_24  and  C_25
REMARK                            x       y       z     vdW  Elec       q    Type
REMARK                         _______ _______ _______ _____ _____    ______ ____
ROOT
ATOM      1  C   UNL     1      46.774   5.145  13.478  0.00  0.00    +0.000 A 
ATOM      2  C   UNL     1      47.819   6.000  13.839  0.00  0.00    +0.000 A 
ATOM      3  C   UNL     1      48.091   7.145  13.086  0.00  0.00    +0.000 A 
ATOM      4  C   UNL     1      47.279   7.397  11.991  0.00  0.00    +0.000 A 
ATOM      5  N   UNL     1      46.274   6.587  11.594  0.00  0.00    +0.000 NA
ATOM      6  C   UNL     1      46.034   5.463  12.332  0.00  0.00    +0.000 A 
ENDROOT
BRANCH   1   8
ATOM      7  C   UNL     1      47.166   3.784  15.376  0.00  0.00    +0.000 C 
ATOM      8  O   UNL     1      46.455   4.002  14.159  0.00  0.00    +0.000 OA
ENDBRANCH   1   8
BRANCH   3   9
ATOM      9  C   UNL     1      49.199   8.074  13.478  0.00  0.00    +0.000 C 
BRANCH   9  10
ATOM     10  N   UNL     1      50.253   7.378  14.172  0.00  0.00    +0.000 N 
ATOM     11  C   UNL     1      50.664   7.714  15.434  0.00  0.00    +0.000 C 
ATOM     12  O   UNL     1      50.164   8.643  16.061  0.00  0.00    +0.000 OA
ATOM     13  H   UNL     1      50.817   6.739  13.618  0.00  0.00    +0.000 HD
BRANCH  11  14
ATOM     14  C   UNL     1      51.696   6.855  16.034  0.00  0.00    +0.000 A 
ATOM     15  C   UNL     1      53.031   7.067  15.722  0.00  0.00    +0.000 A 
ATOM     16  S   UNL     1      54.102   6.020  16.538  0.00  0.00    +0.000 S 
ATOM     17  C   UNL     1      52.816   5.212  17.303  0.00  0.00    +0.000 A 
ATOM     18  N   UNL     1      53.048   4.165  18.140  0.00  0.00    +0.000 NA
ATOM     19  C   UNL     1      51.985   3.621  18.621  0.00  0.00    +0.000 A 
ATOM     20  N   UNL     1      50.703   4.032  18.347  0.00  0.00    +0.000 N 
ATOM     21  C   UNL     1      50.425   5.127  17.566  0.00  0.00    +0.000 A 
ATOM     22  O   UNL     1      49.278   5.545  17.442  0.00  0.00    +0.000 OA
ATOM     23  C   UNL     1      51.588   5.750  16.962  0.00  0.00    +0.000 A 
ATOM     24  H   UNL     1      49.912   3.577  18.780  0.00  0.00    +0.000 HD
ENDBRANCH  11  14
ENDBRANCH   9  10
ENDBRANCH   3   9
BRANCH   6  25
ATOM     25  C   UNL     1      44.907   4.571  11.843  0.00  0.00    +0.000 C 
BRANCH  25  26
ATOM     26  O   UNL     1      44.522   4.948  10.516  0.00  0.00    +0.000 OA
BRANCH  26  27
ATOM     27  C   UNL     1      45.068   4.121   9.552  0.00  0.00    +0.000 A 
ATOM     28  C   UNL     1      44.935   2.756   9.758  0.00  0.00    +0.000 A 
ATOM     29  C   UNL     1      45.473   1.888   8.810  0.00  0.00    +0.000 A 
ATOM     30  C   UNL     1      46.120   2.410   7.697  0.00  0.00    +0.000 A 
ATOM     31  C   UNL     1      46.201   3.789   7.576  0.00  0.00    +0.000 A 
ATOM     32  N   UNL     1      45.694   4.655   8.480  0.00  0.00    +0.000 NA
ENDBRANCH  26  27
ENDBRANCH  25  26
ENDBRANCH   6  25
TORSDOF 7
ENDMDL
MODEL 8
REMARK VINA RESULT:    -6.683      3.848      8.284
REMARK INTER + INTRA:         -10.519
REMARK INTER:                  -9.451
REMARK INTRA:                  -1.068
REMARK UNBOUND:                -1.101
REMARK  Name = 
REMARK  8 active torsions:
REMARK  status: ('A' for Active; 'I' for Inactive)
REMARK    1  A    between atoms: C_1  and  O_2
REMARK    2  A    between atoms: O_2  and  C_3
REMARK    3  A    between atoms: C_5  and  C_6
REMARK    4  A    between atoms: C_6  and  N_7
REMARK    5  A    between atoms: C_8  and  C_10
REMARK    6  A    between atoms: C_22  and  C_23
REMARK    7  A    between atoms: C_23  and  O_24
REMARK    8  A    between atoms: O_24  and  C_25
REMARK                            x       y       z     vdW  Elec       q    Type
REMARK                         _______ _______ _______ _____ _____    ______ ____
ROOT
ATOM      1  C   UNL     1      49.207   4.754  17.453  0.00  0.00    +0.000 A 
ATOM      2  C   UNL     1      48.683   5.840  16.747  0.00  0.00    +0.000 A 
ATOM      3  C   UNL     1      49.532   6.758  16.124  0.00  0.00    +0.000 A 
ATOM      4  C   UNL     1      50.896   6.536  16.225  0.00  0.00    +0.000 A 
ATOM      5  N   UNL     1      51.445   5.515  16.916  0.00  0.00    +0.000 NA
ATOM      6  C   UNL     1      50.601   4.636  17.533  0.00  0.00    +0.000 A 
ENDROOT
BRANCH   1   8
ATOM      7  C   UNL     1      47.643   2.987  17.261  0.00  0.00    +0.000 C 
ATOM      8  O   UNL     1      48.440   3.822  18.097  0.00  0.00    +0.000 OA
ENDBRANCH   1   8
BRANCH   3   9
ATOM      9  C   UNL     1      48.974   7.915  15.352  0.00  0.00    +0.000 C 
BRANCH   9  10
ATOM     10  N   UNL     1      47.819   7.530  14.581  0.00  0.00    +0.000 N 
ATOM     11  C   UNL     1      47.905   6.808  13.421  0.00  0.00    +0.000 C 
ATOM     12  O   UNL     1      48.979   6.443  12.952  0.00  0.00    +0.000 OA
ATOM     13  H   UNL     1      46.940   7.975  14.827  0.00  0.00    +0.000 HD
BRANCH  11  14
ATOM     14  C   UNL     1      46.629   6.426  12.796  0.00  0.00    +0.000 A 
ATOM     15  C   UNL     1      45.837   7.400  12.204  0.00  0.00    +0.000 A 
ATOM     16  S   UNL     1      44.419   6.788  11.483  0.00  0.00    +0.000 S 
ATOM     17  C   UNL     1      44.787   5.202  11.976  0.00  0.00    +0.000 A 
ATOM     18  N   UNL     1      43.947   4.170  11.694  0.00  0.00    +0.000 NA
ATOM     19  C   UNL     1      44.328   3.030  12.158  0.00  0.00    +0.000 A 
ATOM     20  N   UNL     1      45.480   2.823  12.875  0.00  0.00    +0.000 N 
ATOM     21  C   UNL     1      46.392   3.821  13.121  0.00  0.00    +0.000 A 
ATOM     22  O   UNL     1      47.471   3.581  13.654  0.00  0.00    +0.000 OA
ATOM     23  C   UNL     1      45.989   5.137  12.658  0.00  0.00    +0.000 A 
ATOM     24  H   UNL     1      45.734   1.897  13.189  0.00  0.00    +0.000 HD
ENDBRANCH  11  14
ENDBRANCH   9  10
ENDBRANCH   3   9
BRANCH   6  25
ATOM     25  C   UNL     1      51.258   3.512  18.312  0.00  0.00    +0.000 C 
BRANCH  25  26
ATOM     26  O   UNL     1      52.680   3.678  18.309  0.00  0.00    +0.000 OA
BRANCH  26  27
ATOM     27  C   UNL     1      53.348   2.514  17.979  0.00  0.00    +0.000 A 
ATOM     28  C   UNL     1      54.609   2.660  17.418  0.00  0.00    +0.000 A 
ATOM     29  C   UNL     1      55.315   1.511  17.068  0.00  0.00    +0.000 A 
ATOM     30  C   UNL     1      54.743   0.265  17.291  0.00  0.00    +0.000 A 
ATOM     31  C   UNL     1      53.479   0.218  17.860  0.00  0.00    +0.000 A 
ATOM     32  N   UNL     1      52.768   1.314  18.204  0.00  0.00    +0.000 NA
ENDBRANCH  26  27
ENDBRANCH  25  26
ENDBRANCH   6  25
TORSDOF 7
ENDMDL
MODEL 9
REMARK VINA RESULT:    -6.662      3.322      8.265
REMARK INTER + INTRA:         -10.489
REMARK INTER:                  -9.461
REMARK INTRA:                  -1.028
REMARK UNBOUND:                -1.101
REMARK  Name = 
REMARK  8 active torsions:
REMARK  status: ('A' for Active; 'I' for Inactive)
REMARK    1  A    between atoms: C_1  and  O_2
REMARK    2  A    between atoms: O_2  and  C_3
REMARK    3  A    between atoms: C_5  and  C_6
REMARK    4  A    between atoms: C_6  and  N_7
REMARK    5  A    between atoms: C_8  and  C_10
REMARK    6  A    between atoms: C_22  and  C_23
REMARK    7  A    between atoms: C_23  and  O_24
REMARK    8  A    between atoms: O_24  and  C_25
REMARK                            x       y       z     vdW  Elec       q    Type
REMARK                         _______ _______ _______ _____ _____    ______ ____
ROOT
ATOM      1  C   UNL     1      50.587   7.363  15.756  0.00  0.00    +0.000 A 
ATOM      2  C   UNL     1      50.166   7.760  14.484  0.00  0.00    +0.000 A 
ATOM      3  C   UNL     1      49.006   7.222  13.921  0.00  0.00    +0.000 A 
ATOM      4  C   UNL     1      48.296   6.303  14.677  0.00  0.00    +0.000 A 
ATOM      5  N   UNL     1      48.679   5.875  15.899  0.00  0.00    +0.000 NA
ATOM      6  C   UNL     1      49.825   6.398  16.427  0.00  0.00    +0.000 A 
ENDROOT
BRANCH   1   8
ATOM      7  C   UNL     1      51.676   9.202  16.777  0.00  0.00    +0.000 C 
ATOM      8  O   UNL     1      51.716   7.837  16.367  0.00  0.00    +0.000 OA
ENDBRANCH   1   8
BRANCH   3   9
ATOM      9  C   UNL     1      48.541   7.656  12.564  0.00  0.00    +0.000 C 
BRANCH   9  10
ATOM     10  N   UNL     1      47.740   6.641  11.928  0.00  0.00    +0.000 N 
ATOM     11  C   UNL     1      46.386   6.757  11.762  0.00  0.00    +0.000 C 
ATOM     12  O   UNL     1      45.757   7.736  12.152  0.00  0.00    +0.000 OA
ATOM     13  H   UNL     1      48.187   5.743  11.772  0.00  0.00    +0.000 HD
BRANCH  11  14
ATOM     14  C   UNL     1      45.726   5.670  11.022  0.00  0.00    +0.000 A 
ATOM     15  C   UNL     1      45.813   5.631   9.637  0.00  0.00    +0.000 A 
ATOM     16  S   UNL     1      45.036   4.285   8.938  0.00  0.00    +0.000 S 
ATOM     17  C   UNL     1      44.513   3.728  10.457  0.00  0.00    +0.000 A 
ATOM     18  N   UNL     1      43.756   2.603  10.566  0.00  0.00    +0.000 NA
ATOM     19  C   UNL     1      43.397   2.315  11.769  0.00  0.00    +0.000 A 
ATOM     20  N   UNL     1      43.730   3.049  12.880  0.00  0.00    +0.000 N 
ATOM     21  C   UNL     1      44.550   4.150  12.826  0.00  0.00    +0.000 A 
ATOM     22  O   UNL     1      44.932   4.711  13.849  0.00  0.00    +0.000 OA
ATOM     23  C   UNL     1      44.947   4.544  11.486  0.00  0.00    +0.000 A 
ATOM     24  H   UNL     1      43.437   2.754  13.801  0.00  0.00    +0.000 HD
ENDBRANCH  11  14
ENDBRANCH   9  10
ENDBRANCH   3   9
BRANCH   6  25
ATOM     25  C   UNL     1      50.228   5.879  17.795  0.00  0.00    +0.000 C 
BRANCH  25  26
ATOM     26  O   UNL     1      49.660   4.583  18.016  0.00  0.00    +0.000 OA
BRANCH  26  27
ATOM     27  C   UNL     1      50.598   3.572  17.923  0.00  0.00    +0.000 A 
ATOM     28  C   UNL     1      50.172   2.383  17.347  0.00  0.00    +0.000 A 
ATOM     29  C   UNL     1      51.086   1.338  17.237  0.00  0.00    +0.000 A 
ATOM     30  C   UNL     1      52.384   1.514  17.700  0.00  0.00    +0.000 A 
ATOM     31  C   UNL     1      52.718   2.739  18.258  0.00  0.00    +0.000 A 
ATOM     32  N   UNL     1      51.852   3.769  18.384  0.00  0.00    +0.000 NA
ENDBRANCH  26  27
ENDBRANCH  25  26
ENDBRANCH   6  25
TORSDOF 7
ENDMDL
