MODEL 1
REMARK VINA RESULT:    -7.254      0.000      0.000
REMARK INTER + INTRA:          -9.790
REMARK INTER:                  -9.374
REMARK INTRA:                  -0.416
REMARK UNBOUND:                -0.416
REMARK  Name = 
REMARK  8 active torsions:
REMARK  status: ('A' for Active; 'I' for Inactive)
REMARK    1  A    between atoms: C_1  and  C_2
REMARK    2  A    between atoms: C_2  and  C_3
REMARK    3  A    between atoms: C_2  and  C_4
REMARK    4  A    between atoms: C_2  and  C_5
REMARK    5  A    between atoms: C_6  and  C_7
REMARK    6  A    between atoms: C_10  and  C_11
REMARK    7  A    between atoms: C_11  and  N_12
REMARK    8  A    between atoms: C_16  and  C_17
REMARK                            x       y       z     vdW  Elec       q    Type
REMARK                         _______ _______ _______ _____ _____    ______ ____
ROOT
ATOM      1  C   UNL     1      43.595   4.772  10.822  0.00  0.00    +0.000 C 
ENDROOT
BRANCH   1   2
ATOM      2  N   UNL     1      43.819   3.325  10.578  0.00  0.00    +0.000 N 
ATOM      3  C   UNL     1      44.693   3.071   9.494  0.00  0.00    +0.000 A 
ATOM      4  C   UNL     1      45.038   1.757   9.122  0.00  0.00    +0.000 A 
ATOM      5  N   UNL     1      45.917   1.467   8.121  0.00  0.00    +0.000 NA
ATOM      6  C   UNL     1      46.434   2.556   7.475  0.00  0.00    +0.000 A 
ATOM      7  C   UNL     1      46.053   3.844   7.795  0.00  0.00    +0.000 A 
ATOM      8  N   UNL     1      45.198   4.117   8.815  0.00  0.00    +0.000 NA
ATOM      9  H   UNL     1      42.939   2.875  10.334  0.00  0.00    +0.000 HD
BRANCH   6  10
ATOM     10  C   UNL     1      47.465   2.329   6.431  0.00  0.00    +0.000 C 
ATOM     11  N   UNL     1      47.412   3.193   5.362  0.00  0.00    +0.000 N 
ATOM     12  O   UNL     1      48.282   1.427   6.498  0.00  0.00    +0.000 OA
ATOM     13  H   UNL     1      46.695   3.904   5.322  0.00  0.00    +0.000 HD
ATOM     14  H   UNL     1      48.032   3.049   4.577  0.00  0.00    +0.000 HD
ENDBRANCH   6  10
ENDBRANCH   1   2
BRANCH   1  18
ATOM     15  C   UNL     1      46.761   6.392  13.261  0.00  0.00    +0.000 A 
ATOM     16  C   UNL     1      46.192   5.174  13.614  0.00  0.00    +0.000 A 
ATOM     17  C   UNL     1      45.115   4.662  12.872  0.00  0.00    +0.000 A 
ATOM     18  C   UNL     1      44.627   5.384  11.777  0.00  0.00    +0.000 A 
ATOM     19  N   UNL     1      45.123   6.612  11.468  0.00  0.00    +0.000 NA
ATOM     20  C   UNL     1      46.165   7.084  12.217  0.00  0.00    +0.000 A 
BRANCH  15  22
ATOM     21  C   UNL     1      49.008   7.269  14.564  0.00  0.00    +0.000 C 
ATOM     22  C   UNL     1      47.956   6.858  13.913  0.00  0.00    +0.000 C 
BRANCH  21  24
ATOM     23  C   UNL     1      51.326   8.139  14.317  0.00  0.00    +0.000 C 
ATOM     24  C   UNL     1      50.235   7.749  15.323  0.00  0.00    +0.000 C 
ATOM     25  C   UNL     1      50.740   6.617  16.226  0.00  0.00    +0.000 C 
ATOM     26  C   UNL     1      49.852   8.966  16.174  0.00  0.00    +0.000 C 
ENDBRANCH  21  24
ENDBRANCH  15  22
ENDBRANCH   1  18
TORSDOF 5
ENDMDL
MODEL 2
REMARK VINA RESULT:    -6.496      4.590      6.616
REMARK INTER + INTRA:          -8.811
REMARK INTER:                  -8.368
REMARK INTRA:                  -0.442
REMARK UNBOUND:                -0.416
REMARK  Name = 
REMARK  8 active torsions:
REMARK  status: ('A' for Active; 'I' for Inactive)
REMARK    1  A    between atoms: C_1  and  C_2
REMARK    2  A    between atoms: C_2  and  C_3
REMARK    3  A    between atoms: C_2  and  C_4
REMARK    4  A    between atoms: C_2  and  C_5
REMARK    5  A    between atoms: C_6  and  C_7
REMARK    6  A    between atoms: C_10  and  C_11
REMARK    7  A    between atoms: C_11  and  N_12
REMARK    8  A    between atoms: C_16  and  C_17
REMARK                            x       y       z     vdW  Elec       q    Type
REMARK                         _______ _______ _______ _____ _____    ______ ____
ROOT
ATOM      1  C   UNL     1      47.107   4.340  16.078  0.00  0.00    +0.000 C 
ENDROOT
BRANCH   1   2
ATOM      2  N   UNL     1      47.332   5.369  15.032  0.00  0.00    +0.000 N 
ATOM      3  C   UNL     1      46.655   5.090  13.821  0.00  0.00    +0.000 A 
ATOM      4  C   UNL     1      46.735   5.962  12.718  0.00  0.00    +0.000 A 
ATOM      5  N   UNL     1      46.057   5.761  11.551  0.00  0.00    +0.000 NA
ATOM      6  C   UNL     1      45.297   4.625  11.515  0.00  0.00    +0.000 A 
ATOM      7  C   UNL     1      45.262   3.735  12.571  0.00  0.00    +0.000 A 
ATOM      8  N   UNL     1      45.922   3.965  13.737  0.00  0.00    +0.000 NA
ATOM      9  H   UNL     1      48.321   5.408  14.792  0.00  0.00    +0.000 HD
BRANCH   6  10
ATOM     10  C   UNL     1      44.459   4.378  10.315  0.00  0.00    +0.000 C 
ATOM     11  N   UNL     1      44.920   4.952   9.153  0.00  0.00    +0.000 N 
ATOM     12  O   UNL     1      43.422   3.738  10.357  0.00  0.00    +0.000 OA
ATOM     13  H   UNL     1      45.763   5.509   9.166  0.00  0.00    +0.000 HD
ATOM     14  H   UNL     1      44.360   4.892   8.314  0.00  0.00    +0.000 HD
ENDBRANCH   6  10
ENDBRANCH   1   2
BRANCH   1  18
ATOM     15  C   UNL     1      50.938   2.958  17.496  0.00  0.00    +0.000 A 
ATOM     16  C   UNL     1      49.966   2.025  17.155  0.00  0.00    +0.000 A 
ATOM     17  C   UNL     1      48.691   2.454  16.755  0.00  0.00    +0.000 A 
ATOM     18  C   UNL     1      48.410   3.824  16.699  0.00  0.00    +0.000 A 
ATOM     19  N   UNL     1      49.326   4.745  17.104  0.00  0.00    +0.000 NA
ATOM     20  C   UNL     1      50.555   4.291  17.495  0.00  0.00    +0.000 A 
BRANCH  15  22
ATOM     21  C   UNL     1      53.508   2.120  17.954  0.00  0.00    +0.000 C 
ATOM     22  C   UNL     1      52.290   2.543  17.761  0.00  0.00    +0.000 C 
BRANCH  21  24
ATOM     23  C   UNL     1      55.689   2.655  19.025  0.00  0.00    +0.000 C 
ATOM     24  C   UNL     1      54.929   1.626  18.179  0.00  0.00    +0.000 C 
ATOM     25  C   UNL     1      55.620   1.455  16.821  0.00  0.00    +0.000 C 
ATOM     26  C   UNL     1      54.879   0.281  18.914  0.00  0.00    +0.000 C 
ENDBRANCH  21  24
ENDBRANCH  15  22
ENDBRANCH   1  18
TORSDOF 5
ENDMDL
MODEL 3
REMARK VINA RESULT:    -6.413      2.099      2.727
REMARK INTER + INTRA:          -8.704
REMARK INTER:                  -8.730
REMARK INTRA:                   0.026
REMARK UNBOUND:                -0.416
REMARK  Name = 
REMARK  8 active torsions:
REMARK  status: ('A' for Active; 'I' for Inactive)
REMARK    1  A    between atoms: C_1  and  C_2
REMARK    2  A    between atoms: C_2  and  C_3
REMARK    3  A    between atoms: C_2  and  C_4
REMARK    4  A    between atoms: C_2  and  C_5
REMARK    5  A    between atoms: C_6  and  C_7
REMARK    6  A    between atoms: C_10  and  C_11
REMARK    7  A    between atoms: C_11  and  N_12
REMARK    8  A    between atoms: C_16  and  C_17
REMARK                            x       y       z     vdW  Elec       q    Type
REMARK                         _______ _______ _______ _____ _____    ______ ____
ROOT
ATOM      1  C   UNL     1      43.619   4.189  11.082  0.00  0.00    +0.000 C 
ENDROOT
BRANCH   1   2
ATOM      2  N   UNL     1      43.942   4.738   9.741  0.00  0.00    +0.000 N 
ATOM      3  C   UNL     1      44.814   3.909   8.995  0.00  0.00    +0.000 A 
ATOM      4  C   UNL     1      45.220   4.257   7.692  0.00  0.00    +0.000 A 
ATOM      5  N   UNL     1      46.015   3.465   6.917  0.00  0.00    +0.000 NA
ATOM      6  C   UNL     1      46.416   2.298   7.507  0.00  0.00    +0.000 A 
ATOM      7  C   UNL     1      46.071   1.981   8.806  0.00  0.00    +0.000 A 
ATOM      8  N   UNL     1      45.255   2.768   9.555  0.00  0.00    +0.000 NA
ATOM      9  H   UNL     1      44.425   5.628   9.839  0.00  0.00    +0.000 HD
BRANCH   6  10
ATOM     10  C   UNL     1      47.211   1.339   6.699  0.00  0.00    +0.000 C 
ATOM     11  N   UNL     1      48.266   1.890   6.011  0.00  0.00    +0.000 N 
ATOM     12  O   UNL     1      46.934   0.154   6.626  0.00  0.00    +0.000 OA
ATOM     13  H   UNL     1      48.440   2.884   6.065  0.00  0.00    +0.000 HD
ATOM     14  H   UNL     1      48.802   1.312   5.379  0.00  0.00    +0.000 HD
ENDBRANCH   6  10
ENDBRANCH   1   2
BRANCH   1  18
ATOM     15  C   UNL     1      46.564   4.637  14.200  0.00  0.00    +0.000 A 
ATOM     16  C   UNL     1      46.017   5.774  13.618  0.00  0.00    +0.000 A 
ATOM     17  C   UNL     1      45.107   5.650  12.556  0.00  0.00    +0.000 A 
ATOM     18  C   UNL     1      44.754   4.377  12.094  0.00  0.00    +0.000 A 
ATOM     19  N   UNL     1      45.340   3.259  12.602  0.00  0.00    +0.000 NA
ATOM     20  C   UNL     1      46.228   3.417  13.630  0.00  0.00    +0.000 A 
BRANCH  15  22
ATOM     21  C   UNL     1      48.059   4.820  16.490  0.00  0.00    +0.000 C 
ATOM     22  C   UNL     1      47.377   4.738  15.382  0.00  0.00    +0.000 C 
BRANCH  21  24
ATOM     23  C   UNL     1      48.378   6.142  18.574  0.00  0.00    +0.000 C 
ATOM     24  C   UNL     1      48.853   4.916  17.784  0.00  0.00    +0.000 C 
ATOM     25  C   UNL     1      50.343   5.058  17.447  0.00  0.00    +0.000 C 
ATOM     26  C   UNL     1      48.623   3.643  18.608  0.00  0.00    +0.000 C 
ENDBRANCH  21  24
ENDBRANCH  15  22
ENDBRANCH   1  18
TORSDOF 5
ENDMDL
MODEL 4
REMARK VINA RESULT:    -5.513      2.951      4.486
REMARK INTER + INTRA:          -7.541
REMARK INTER:                  -7.279
REMARK INTRA:                  -0.262
REMARK UNBOUND:                -0.416
REMARK  Name = 
REMARK  8 active torsions:
REMARK  status: ('A' for Active; 'I' for Inactive)
REMARK    1  A    between atoms: C_1  and  C_2
REMARK    2  A    between atoms: C_2  and  C_3
REMARK    3  A    between atoms: C_2  and  C_4
REMARK    4  A    between atoms: C_2  and  C_5
REMARK    5  A    between atoms: C_6  and  C_7
REMARK    6  A    between atoms: C_10  and  C_11
REMARK    7  A    between atoms: C_11  and  N_12
REMARK    8  A    between atoms: C_16  and  C_17
REMARK                            x       y       z     vdW  Elec       q    Type
REMARK                         _______ _______ _______ _____ _____    ______ ____
ROOT
ATOM      1  C   UNL     1      45.601   7.605  12.883  0.00  0.00    +0.000 C 
ENDROOT
BRANCH   1   2
ATOM      2  N   UNL     1      45.292   6.219  13.314  0.00  0.00    +0.000 N 
ATOM      3  C   UNL     1      45.063   5.337  12.230  0.00  0.00    +0.000 A 
ATOM      4  C   UNL     1      44.771   3.976  12.442  0.00  0.00    +0.000 A 
ATOM      5  N   UNL     1      44.597   3.079  11.429  0.00  0.00    +0.000 NA
ATOM      6  C   UNL     1      44.705   3.604  10.171  0.00  0.00    +0.000 A 
ATOM      7  C   UNL     1      44.931   4.949   9.957  0.00  0.00    +0.000 A 
ATOM      8  N   UNL     1      45.131   5.824  10.978  0.00  0.00    +0.000 NA
ATOM      9  H   UNL     1      44.434   6.210  13.862  0.00  0.00    +0.000 HD
BRANCH   6  10
ATOM     10  C   UNL     1      44.616   2.678   9.014  0.00  0.00    +0.000 C 
ATOM     11  N   UNL     1      44.525   3.288   7.784  0.00  0.00    +0.000 N 
ATOM     12  O   UNL     1      44.596   1.465   9.141  0.00  0.00    +0.000 OA
ATOM     13  H   UNL     1      44.505   4.296   7.721  0.00  0.00    +0.000 HD
ATOM     14  H   UNL     1      44.382   2.721   6.960  0.00  0.00    +0.000 HD
ENDBRANCH   6  10
ENDBRANCH   1   2
BRANCH   1  18
ATOM     15  C   UNL     1      49.748   8.142  11.829  0.00  0.00    +0.000 A 
ATOM     16  C   UNL     1      49.375   7.016  12.553  0.00  0.00    +0.000 A 
ATOM     17  C   UNL     1      48.042   6.856  12.964  0.00  0.00    +0.000 A 
ATOM     18  C   UNL     1      47.097   7.834  12.635  0.00  0.00    +0.000 A 
ATOM     19  N   UNL     1      47.463   8.977  11.994  0.00  0.00    +0.000 NA
ATOM     20  C   UNL     1      48.771   9.103  11.617  0.00  0.00    +0.000 A 
BRANCH  15  22
ATOM     21  C   UNL     1      52.292   8.309  10.820  0.00  0.00    +0.000 C 
ATOM     22  C   UNL     1      51.071   8.249  11.272  0.00  0.00    +0.000 C 
BRANCH  21  24
ATOM     23  C   UNL     1      54.575   9.187  11.274  0.00  0.00    +0.000 C 
ATOM     24  C   UNL     1      53.716   8.379  10.292  0.00  0.00    +0.000 C 
ATOM     25  C   UNL     1      53.709   9.065   8.921  0.00  0.00    +0.000 C 
ATOM     26  C   UNL     1      54.272   6.956  10.163  0.00  0.00    +0.000 C 
ENDBRANCH  21  24
ENDBRANCH  15  22
ENDBRANCH   1  18
TORSDOF 5
ENDMDL
MODEL 5
REMARK VINA RESULT:    -5.420      3.604      5.724
REMARK INTER + INTRA:          -7.421
REMARK INTER:                  -7.304
REMARK INTRA:                  -0.117
REMARK UNBOUND:                -0.416
REMARK  Name = 
REMARK  8 active torsions:
REMARK  status: ('A' for Active; 'I' for Inactive)
REMARK    1  A    between atoms: C_1  and  C_2
REMARK    2  A    between atoms: C_2  and  C_3
REMARK    3  A    between atoms: C_2  and  C_4
REMARK    4  A    between atoms: C_2  and  C_5
REMARK    5  A    between atoms: C_6  and  C_7
REMARK    6  A    between atoms: C_10  and  C_11
REMARK    7  A    between atoms: C_11  and  N_12
REMARK    8  A    between atoms: C_16  and  C_17
REMARK                            x       y       z     vdW  Elec       q    Type
REMARK                         _______ _______ _______ _____ _____    ______ ____
ROOT
ATOM      1  C   UNL     1      46.315   8.521  13.589  0.00  0.00    +0.000 C 
ENDROOT
BRANCH   1   2
ATOM      2  N   UNL     1      45.222   8.404  12.593  0.00  0.00    +0.000 N 
ATOM      3  C   UNL     1      44.908   7.063  12.264  0.00  0.00    +0.000 A 
ATOM      4  C   UNL     1      43.885   6.753  11.347  0.00  0.00    +0.000 A 
ATOM      5  N   UNL     1      43.512   5.477  11.042  0.00  0.00    +0.000 NA
ATOM      6  C   UNL     1      44.226   4.501  11.680  0.00  0.00    +0.000 A 
ATOM      7  C   UNL     1      45.270   4.798  12.533  0.00  0.00    +0.000 A 
ATOM      8  N   UNL     1      45.610   6.076  12.849  0.00  0.00    +0.000 NA
ATOM      9  H   UNL     1      45.502   8.843  11.718  0.00  0.00    +0.000 HD
BRANCH   6  10
ATOM     10  C   UNL     1      43.826   3.086  11.470  0.00  0.00    +0.000 C 
ATOM     11  N   UNL     1      43.636   2.357  12.621  0.00  0.00    +0.000 N 
ATOM     12  O   UNL     1      43.701   2.596  10.361  0.00  0.00    +0.000 OA
ATOM     13  H   UNL     1      43.788   2.787  13.522  0.00  0.00    +0.000 HD
ATOM     14  H   UNL     1      43.440   1.368  12.553  0.00  0.00    +0.000 HD
ENDBRANCH   6  10
ENDBRANCH   1   2
BRANCH   1  18
ATOM     15  C   UNL     1      50.071   7.958  11.548  0.00  0.00    +0.000 A 
ATOM     16  C   UNL     1      49.746   7.121  12.608  0.00  0.00    +0.000 A 
ATOM     17  C   UNL     1      48.559   7.330  13.329  0.00  0.00    +0.000 A 
ATOM     18  C   UNL     1      47.709   8.381  12.967  0.00  0.00    +0.000 A 
ATOM     19  N   UNL     1      48.052   9.254  11.982  0.00  0.00    +0.000 NA
ATOM     20  C   UNL     1      49.219   9.026  11.308  0.00  0.00    +0.000 A 
BRANCH  15  22
ATOM     21  C   UNL     1      52.237   7.349   9.980  0.00  0.00    +0.000 C 
ATOM     22  C   UNL     1      51.202   7.668  10.707  0.00  0.00    +0.000 C 
BRANCH  21  24
ATOM     23  C   UNL     1      54.139   5.762   9.759  0.00  0.00    +0.000 C 
ATOM     24  C   UNL     1      53.443   6.977   9.133  0.00  0.00    +0.000 C 
ATOM     25  C   UNL     1      54.410   8.166   9.089  0.00  0.00    +0.000 C 
ATOM     26  C   UNL     1      52.972   6.633   7.715  0.00  0.00    +0.000 C 
ENDBRANCH  21  24
ENDBRANCH  15  22
ENDBRANCH   1  18
TORSDOF 5
ENDMDL
MODEL 6
REMARK VINA RESULT:    -5.404      2.244      4.003
REMARK INTER + INTRA:          -7.400
REMARK INTER:                  -7.240
REMARK INTRA:                  -0.160
REMARK UNBOUND:                -0.416
REMARK  Name = 
REMARK  8 active torsions:
REMARK  status: ('A' for Active; 'I' for Inactive)
REMARK    1  A    between atoms: C_1  and  C_2
REMARK    2  A    between atoms: C_2  and  C_3
REMARK    3  A    between atoms: C_2  and  C_4
REMARK    4  A    between atoms: C_2  and  C_5
REMARK    5  A    between atoms: C_6  and  C_7
REMARK    6  A    between atoms: C_10  and  C_11
REMARK    7  A    between atoms: C_11  and  N_12
REMARK    8  A    between atoms: C_16  and  C_17
REMARK                            x       y       z     vdW  Elec       q    Type
REMARK                         _______ _______ _______ _____ _____    ______ ____
ROOT
ATOM      1  C   UNL     1      45.848   8.237  12.389  0.00  0.00    +0.000 C 
ENDROOT
BRANCH   1   2
ATOM      2  N   UNL     1      44.647   7.374  12.517  0.00  0.00    +0.000 N 
ATOM      3  C   UNL     1      44.605   6.332  11.560  0.00  0.00    +0.000 A 
ATOM      4  C   UNL     1      43.548   5.401  11.536  0.00  0.00    +0.000 A 
ATOM      5  N   UNL     1      43.494   4.350  10.668  0.00  0.00    +0.000 NA
ATOM      6  C   UNL     1      44.541   4.271   9.793  0.00  0.00    +0.000 A 
ATOM      7  C   UNL     1      45.548   5.216   9.771  0.00  0.00    +0.000 A 
ATOM      8  N   UNL     1      45.602   6.241  10.662  0.00  0.00    +0.000 NA
ATOM      9  H   UNL     1      43.806   7.926  12.361  0.00  0.00    +0.000 HD
BRANCH   6  10
ATOM     10  C   UNL     1      44.602   3.107   8.873  0.00  0.00    +0.000 C 
ATOM     11  N   UNL     1      44.588   1.877   9.488  0.00  0.00    +0.000 N 
ATOM     12  O   UNL     1      44.687   3.229   7.663  0.00  0.00    +0.000 OA
ATOM     13  H   UNL     1      44.557   1.817  10.496  0.00  0.00    +0.000 HD
ATOM     14  H   UNL     1      44.706   1.043   8.930  0.00  0.00    +0.000 HD
ENDBRANCH   6  10
ENDBRANCH   1   2
BRANCH   1  18
ATOM     15  C   UNL     1      48.776   6.980  15.294  0.00  0.00    +0.000 A 
ATOM     16  C   UNL     1      48.518   8.337  15.138  0.00  0.00    +0.000 A 
ATOM     17  C   UNL     1      47.617   8.770  14.152  0.00  0.00    +0.000 A 
ATOM     18  C   UNL     1      46.983   7.827  13.334  0.00  0.00    +0.000 A 
ATOM     19  N   UNL     1      47.285   6.505  13.424  0.00  0.00    +0.000 NA
ATOM     20  C   UNL     1      48.172   6.118  14.390  0.00  0.00    +0.000 A 
BRANCH  15  22
ATOM     21  C   UNL     1      50.247   6.048  17.412  0.00  0.00    +0.000 C 
ATOM     22  C   UNL     1      49.576   6.509  16.393  0.00  0.00    +0.000 C 
BRANCH  21  24
ATOM     23  C   UNL     1      51.466   4.071  18.303  0.00  0.00    +0.000 C 
ATOM     24  C   UNL     1      51.028   5.511  18.601  0.00  0.00    +0.000 C 
ATOM     25  C   UNL     1      50.130   5.535  19.843  0.00  0.00    +0.000 C 
ATOM     26  C   UNL     1      52.261   6.394  18.829  0.00  0.00    +0.000 C 
ENDBRANCH  21  24
ENDBRANCH  15  22
ENDBRANCH   1  18
TORSDOF 5
ENDMDL
MODEL 7
REMARK VINA RESULT:    -5.344      4.065      6.161
REMARK INTER + INTRA:          -7.322
REMARK INTER:                  -6.867
REMARK INTRA:                  -0.455
REMARK UNBOUND:                -0.416
REMARK  Name = 
REMARK  8 active torsions:
REMARK  status: ('A' for Active; 'I' for Inactive)
REMARK    1  A    between atoms: C_1  and  C_2
REMARK    2  A    between atoms: C_2  and  C_3
REMARK    3  A    between atoms: C_2  and  C_4
REMARK    4  A    between atoms: C_2  and  C_5
REMARK    5  A    between atoms: C_6  and  C_7
REMARK    6  A    between atoms: C_10  and  C_11
REMARK    7  A    between atoms: C_11  and  N_12
REMARK    8  A    between atoms: C_16  and  C_17
REMARK                            x       y       z     vdW  Elec       q    Type
REMARK                         _______ _______ _______ _____ _____    ______ ____
ROOT
ATOM      1  C   UNL     1      47.119   8.133  13.258  0.00  0.00    +0.000 C 
ENDROOT
BRANCH   1   2
ATOM      2  N   UNL     1      47.060   6.795  13.899  0.00  0.00    +0.000 N 
ATOM      3  C   UNL     1      46.223   5.885  13.211  0.00  0.00    +0.000 A 
ATOM      4  C   UNL     1      46.054   4.561  13.661  0.00  0.00    +0.000 A 
ATOM      5  N   UNL     1      45.301   3.634  13.001  0.00  0.00    +0.000 NA
ATOM      6  C   UNL     1      44.691   4.091  11.866  0.00  0.00    +0.000 A 
ATOM      7  C   UNL     1      44.803   5.403  11.454  0.00  0.00    +0.000 A 
ATOM      8  N   UNL     1      45.582   6.307  12.107  0.00  0.00    +0.000 NA
ATOM      9  H   UNL     1      46.669   6.877  14.835  0.00  0.00    +0.000 HD
BRANCH   6  10
ATOM     10  C   UNL     1      43.924   3.122  11.042  0.00  0.00    +0.000 C 
ATOM     11  N   UNL     1      43.374   2.072  11.739  0.00  0.00    +0.000 N 
ATOM     12  O   UNL     1      43.812   3.230   9.833  0.00  0.00    +0.000 OA
ATOM     13  H   UNL     1      43.522   1.994  12.735  0.00  0.00    +0.000 HD
ATOM     14  H   UNL     1      42.906   1.332  11.233  0.00  0.00    +0.000 HD
ENDBRANCH   6  10
ENDBRANCH   1   2
BRANCH   1  18
ATOM     15  C   UNL     1      50.782   9.067  11.183  0.00  0.00    +0.000 A 
ATOM     16  C   UNL     1      50.449   7.736  11.400  0.00  0.00    +0.000 A 
ATOM     17  C   UNL     1      49.295   7.412  12.132  0.00  0.00    +0.000 A 
ATOM     18  C   UNL     1      48.486   8.437  12.634  0.00  0.00    +0.000 A 
ATOM     19  N   UNL     1      48.841   9.743  12.496  0.00  0.00    +0.000 NA
ATOM     20  C   UNL     1      49.975  10.022  11.785  0.00  0.00    +0.000 A 
BRANCH  15  22
ATOM     21  C   UNL     1      52.825   9.708   9.471  0.00  0.00    +0.000 C 
ATOM     22  C   UNL     1      51.873   9.417  10.312  0.00  0.00    +0.000 C 
BRANCH  21  24
ATOM     23  C   UNL     1      54.812  11.154   9.086  0.00  0.00    +0.000 C 
ATOM     24  C   UNL     1      53.936  10.046   8.489  0.00  0.00    +0.000 C 
ATOM     25  C   UNL     1      53.313  10.526   7.173  0.00  0.00    +0.000 C 
ATOM     26  C   UNL     1      54.782   8.791   8.239  0.00  0.00    +0.000 C 
ENDBRANCH  21  24
ENDBRANCH  15  22
ENDBRANCH   1  18
TORSDOF 5
ENDMDL
MODEL 8
REMARK VINA RESULT:    -5.254      3.704      5.656
REMARK INTER + INTRA:          -7.206
REMARK INTER:                  -6.850
REMARK INTRA:                  -0.355
REMARK UNBOUND:                -0.416
REMARK  Name = 
REMARK  8 active torsions:
REMARK  status: ('A' for Active; 'I' for Inactive)
REMARK    1  A    between atoms: C_1  and  C_2
REMARK    2  A    between atoms: C_2  and  C_3
REMARK    3  A    between atoms: C_2  and  C_4
REMARK    4  A    between atoms: C_2  and  C_5
REMARK    5  A    between atoms: C_6  and  C_7
REMARK    6  A    between atoms: C_10  and  C_11
REMARK    7  A    between atoms: C_11  and  N_12
REMARK    8  A    between atoms: C_16  and  C_17
REMARK                            x       y       z     vdW  Elec       q    Type
REMARK                         _______ _______ _______ _____ _____    ______ ____
ROOT
ATOM      1  C   UNL     1      46.358   8.118  13.351  0.00  0.00    +0.000 C 
ENDROOT
BRANCH   1   2
ATOM      2  N   UNL     1      45.125   8.049  12.529  0.00  0.00    +0.000 N 
ATOM      3  C   UNL     1      44.811   6.736  12.104  0.00  0.00    +0.000 A 
ATOM      4  C   UNL     1      43.667   6.470  11.327  0.00  0.00    +0.000 A 
ATOM      5  N   UNL     1      43.297   5.215  10.940  0.00  0.00    +0.000 NA
ATOM      6  C   UNL     1      44.138   4.216  11.346  0.00  0.00    +0.000 A 
ATOM      7  C   UNL     1      45.294   4.477  12.056  0.00  0.00    +0.000 A 
ATOM      8  N   UNL     1      45.633   5.731  12.457  0.00  0.00    +0.000 NA
ATOM      9  H   UNL     1      45.245   8.593  11.677  0.00  0.00    +0.000 HD
BRANCH   6  10
ATOM     10  C   UNL     1      43.761   2.813  11.042  0.00  0.00    +0.000 C 
ATOM     11  N   UNL     1      44.420   2.250   9.974  0.00  0.00    +0.000 N 
ATOM     12  O   UNL     1      42.909   2.209  11.672  0.00  0.00    +0.000 OA
ATOM     13  H   UNL     1      45.091   2.794   9.451  0.00  0.00    +0.000 HD
ATOM     14  H   UNL     1      44.157   1.325   9.661  0.00  0.00    +0.000 HD
ENDBRANCH   6  10
ENDBRANCH   1   2
BRANCH   1  18
ATOM     15  C   UNL     1      50.066   9.038  11.350  0.00  0.00    +0.000 A 
ATOM     16  C   UNL     1      49.076  10.010  11.419  0.00  0.00    +0.000 A 
ATOM     17  C   UNL     1      47.837   9.709  12.007  0.00  0.00    +0.000 A 
ATOM     18  C   UNL     1      47.611   8.428  12.524  0.00  0.00    +0.000 A 
ATOM     19  N   UNL     1      48.542   7.445  12.394  0.00  0.00    +0.000 NA
ATOM     20  C   UNL     1      49.734   7.771  11.809  0.00  0.00    +0.000 A 
BRANCH  15  22
ATOM     21  C   UNL     1      52.559   9.722  10.439  0.00  0.00    +0.000 C 
ATOM     22  C   UNL     1      51.388   9.370  10.891  0.00  0.00    +0.000 C 
BRANCH  21  24
ATOM     23  C   UNL     1      54.887   8.944  10.029  0.00  0.00    +0.000 C 
ATOM     24  C   UNL     1      53.925  10.134   9.912  0.00  0.00    +0.000 C 
ATOM     25  C   UNL     1      54.449  11.311  10.743  0.00  0.00    +0.000 C 
ATOM     26  C   UNL     1      53.789  10.551   8.443  0.00  0.00    +0.000 C 
ENDBRANCH  21  24
ENDBRANCH  15  22
ENDBRANCH   1  18
TORSDOF 5
ENDMDL
MODEL 9
REMARK VINA RESULT:    -5.202      2.021      3.472
REMARK INTER + INTRA:          -7.138
REMARK INTER:                  -6.791
REMARK INTRA:                  -0.347
REMARK UNBOUND:                -0.416
REMARK  Name = 
REMARK  8 active torsions:
REMARK  status: ('A' for Active; 'I' for Inactive)
REMARK    1  A    between atoms: C_1  and  C_2
REMARK    2  A    between atoms: C_2  and  C_3
REMARK    3  A    between atoms: C_2  and  C_4
REMARK    4  A    between atoms: C_2  and  C_5
REMARK    5  A    between atoms: C_6  and  C_7
REMARK    6  A    between atoms: C_10  and  C_11
REMARK    7  A    between atoms: C_11  and  N_12
REMARK    8  A    between atoms: C_16  and  C_17
REMARK                            x       y       z     vdW  Elec       q    Type
REMARK                         _______ _______ _______ _____ _____    ______ ____
ROOT
ATOM      1  C   UNL     1      45.484   8.004  12.443  0.00  0.00    +0.000 C 
ENDROOT
BRANCH   1   2
ATOM      2  N   UNL     1      44.539   6.888  12.694  0.00  0.00    +0.000 N 
ATOM      3  C   UNL     1      44.564   5.899  11.682  0.00  0.00    +0.000 A 
ATOM      4  C   UNL     1      43.747   4.753  11.755  0.00  0.00    +0.000 A 
ATOM      5  N   UNL     1      43.777   3.750  10.832  0.00  0.00    +0.000 NA
ATOM      6  C   UNL     1      44.652   3.943   9.799  0.00  0.00    +0.000 A 
ATOM      7  C   UNL     1      45.411   5.092   9.690  0.00  0.00    +0.000 A 
ATOM      8  N   UNL     1      45.390   6.069  10.634  0.00  0.00    +0.000 NA
ATOM      9  H   UNL     1      43.584   7.239  12.712  0.00  0.00    +0.000 HD
BRANCH   6  10
ATOM     10  C   UNL     1      44.809   2.858   8.798  0.00  0.00    +0.000 C 
ATOM     11  N   UNL     1      45.286   3.259   7.573  0.00  0.00    +0.000 N 
ATOM     12  O   UNL     1      44.510   1.699   9.033  0.00  0.00    +0.000 OA
ATOM     13  H   UNL     1      45.484   4.235   7.403  0.00  0.00    +0.000 HD
ATOM     14  H   UNL     1      45.343   2.588   6.819  0.00  0.00    +0.000 HD
ENDBRANCH   6  10
ENDBRANCH   1   2
BRANCH   1  18
ATOM     15  C   UNL     1      49.291   7.745  14.450  0.00  0.00    +0.000 A 
ATOM     16  C   UNL     1      48.564   6.583  14.228  0.00  0.00    +0.000 A 
ATOM     17  C   UNL     1      47.292   6.653  13.636  0.00  0.00    +0.000 A 
ATOM     18  C   UNL     1      46.770   7.899  13.270  0.00  0.00    +0.000 A 
ATOM     19  N   UNL     1      47.437   9.050  13.552  0.00  0.00    +0.000 NA
ATOM     20  C   UNL     1      48.668   8.945  14.137  0.00  0.00    +0.000 A 
BRANCH  15  22
ATOM     21  C   UNL     1      51.890   7.563  15.303  0.00  0.00    +0.000 C 
ATOM     22  C   UNL     1      50.652   7.681  14.914  0.00  0.00    +0.000 C 
BRANCH  21  24
ATOM     23  C   UNL     1      54.248   7.408  14.525  0.00  0.00    +0.000 C 
ATOM     24  C   UNL     1      53.335   7.424  15.757  0.00  0.00    +0.000 C 
ATOM     25  C   UNL     1      53.491   6.114  16.538  0.00  0.00    +0.000 C 
ATOM     26  C   UNL     1      53.694   8.614  16.656  0.00  0.00    +0.000 C 
ENDBRANCH  21  24
ENDBRANCH  15  22
ENDBRANCH   1  18
TORSDOF 5
ENDMDL
