MODEL 1
REMARK VINA RESULT:    -9.331      0.000      0.000
REMARK INTER + INTRA:         -12.148
REMARK INTER:                 -12.331
REMARK INTRA:                   0.183
REMARK UNBOUND:                 0.183
REMARK  Name = 
REMARK  6 active torsions:
REMARK  status: ('A' for Active; 'I' for Inactive)
REMARK    1  A    between atoms: C_2  and  C_4
REMARK    2  A    between atoms: C_7  and  N_8
REMARK    3  A    between atoms: N_8  and  C_9
REMARK    4  A    between atoms: C_9  and  C_10
REMARK    5  A    between atoms: C_12  and  C_13
REMARK    6  A    between atoms: C_17  and  O_18
REMARK                            x       y       z     vdW  Elec       q    Type
REMARK                         _______ _______ _______ _____ _____    ______ ____
ROOT
ATOM      1  C   UNL     1      43.944   4.978  11.358  0.00  0.00    +0.000 C 
ATOM      2  C   UNL     1      43.276   3.881  12.175  0.00  0.00    +0.000 C 
ATOM      3  C   UNL     1      42.648   5.233  12.111  0.00  0.00    +0.000 C 
ENDROOT
BRANCH   1   4
ATOM      4  C   UNL     1      45.226   5.631  11.884  0.00  0.00    +0.000 A 
ATOM      5  C   UNL     1      45.675   5.303  13.163  0.00  0.00    +0.000 A 
ATOM      6  C   UNL     1      46.944   5.675  13.617  0.00  0.00    +0.000 A 
ATOM      7  C   UNL     1      47.715   6.451  12.747  0.00  0.00    +0.000 A 
ATOM      8  C   UNL     1      47.192   6.799  11.511  0.00  0.00    +0.000 A 
ATOM      9  N   UNL     1      45.979   6.409  11.063  0.00  0.00    +0.000 NA
BRANCH   6  10
ATOM     10  C   UNL     1      47.436   5.216  14.928  0.00  0.00    +0.000 A 
ATOM     11  C   UNL     1      48.582   5.771  15.523  0.00  0.00    +0.000 A 
ATOM     12  N   UNL     1      49.103   5.400  16.717  0.00  0.00    +0.000 NA
ATOM     13  C   UNL     1      48.450   4.426  17.374  0.00  0.00    +0.000 A 
ATOM     14  C   UNL     1      47.308   3.810  16.892  0.00  0.00    +0.000 A 
ATOM     15  C   UNL     1      46.801   4.204  15.660  0.00  0.00    +0.000 A 
BRANCH  14  16
ATOM     16  O   UNL     1      46.652   2.830  17.569  0.00  0.00    +0.000 OA
ATOM     17  H   UNL     1      46.802   1.981  17.121  0.00  0.00    +0.000 HD
ENDBRANCH  14  16
ENDBRANCH   6  10
ENDBRANCH   1   4
BRANCH   1  18
ATOM     18  N   UNL     1      43.921   4.893   9.877  0.00  0.00    +0.000 N 
ATOM     19  H   UNL     1      43.022   5.026   9.433  0.00  0.00    +0.000 HD
BRANCH  18  23
ATOM     20  C   UNL     1      46.222   2.036   7.988  0.00  0.00    +0.000 A 
ATOM     21  C   UNL     1      46.382   3.379   7.692  0.00  0.00    +0.000 A 
ATOM     22  N   UNL     1      45.635   4.355   8.279  0.00  0.00    +0.000 NA
ATOM     23  C   UNL     1      44.731   3.955   9.204  0.00  0.00    +0.000 A 
ATOM     24  C   UNL     1      44.564   2.587   9.463  0.00  0.00    +0.000 A 
ATOM     25  N   UNL     1      45.294   1.595   8.879  0.00  0.00    +0.000 NA
BRANCH  20  27
ATOM     26  N   UNL     1      46.868  -0.280   7.652  0.00  0.00    +0.000 N 
ATOM     27  C   UNL     1      47.091   1.028   7.320  0.00  0.00    +0.000 C 
ATOM     28  O   UNL     1      47.956   1.347   6.513  0.00  0.00    +0.000 OA
ATOM     29  H   UNL     1      47.406  -1.001   7.192  0.00  0.00    +0.000 HD
ATOM     30  H   UNL     1      46.106  -0.529   8.273  0.00  0.00    +0.000 HD
ENDBRANCH  20  27
ENDBRANCH  18  23
ENDBRANCH   1  18
TORSDOF 6
ENDMDL
MODEL 2
REMARK VINA RESULT:    -9.234      1.581      7.455
REMARK INTER + INTRA:         -12.019
REMARK INTER:                 -11.331
REMARK INTRA:                  -0.688
REMARK UNBOUND:                 0.183
REMARK  Name = 
REMARK  6 active torsions:
REMARK  status: ('A' for Active; 'I' for Inactive)
REMARK    1  A    between atoms: C_2  and  C_4
REMARK    2  A    between atoms: C_7  and  N_8
REMARK    3  A    between atoms: N_8  and  C_9
REMARK    4  A    between atoms: C_9  and  C_10
REMARK    5  A    between atoms: C_12  and  C_13
REMARK    6  A    between atoms: C_17  and  O_18
REMARK                            x       y       z     vdW  Elec       q    Type
REMARK                         _______ _______ _______ _____ _____    ______ ____
ROOT
ATOM      1  C   UNL     1      46.209   7.305  12.081  0.00  0.00    +0.000 C 
ATOM      2  C   UNL     1      46.279   8.783  11.722  0.00  0.00    +0.000 C 
ATOM      3  C   UNL     1      45.623   8.368  12.996  0.00  0.00    +0.000 C 
ENDROOT
BRANCH   1   4
ATOM      4  C   UNL     1      45.241   6.392  11.321  0.00  0.00    +0.000 A 
ATOM      5  C   UNL     1      45.747   5.538  10.342  0.00  0.00    +0.000 A 
ATOM      6  C   UNL     1      44.969   4.524   9.775  0.00  0.00    +0.000 A 
ATOM      7  C   UNL     1      43.637   4.451  10.193  0.00  0.00    +0.000 A 
ATOM      8  C   UNL     1      43.173   5.367  11.124  0.00  0.00    +0.000 A 
ATOM      9  N   UNL     1      43.936   6.324  11.694  0.00  0.00    +0.000 NA
BRANCH   6  10
ATOM     10  C   UNL     1      45.563   3.563   8.828  0.00  0.00    +0.000 A 
ATOM     11  C   UNL     1      45.552   2.180   9.074  0.00  0.00    +0.000 A 
ATOM     12  N   UNL     1      46.082   1.234   8.262  0.00  0.00    +0.000 NA
ATOM     13  C   UNL     1      46.653   1.676   7.128  0.00  0.00    +0.000 A 
ATOM     14  C   UNL     1      46.716   3.014   6.775  0.00  0.00    +0.000 A 
ATOM     15  C   UNL     1      46.173   3.962   7.631  0.00  0.00    +0.000 A 
BRANCH  14  16
ATOM     16  O   UNL     1      47.291   3.449   5.621  0.00  0.00    +0.000 OA
ATOM     17  H   UNL     1      47.120   2.800   4.918  0.00  0.00    +0.000 HD
ENDBRANCH  14  16
ENDBRANCH   6  10
ENDBRANCH   1   4
BRANCH   1  18
ATOM     18  N   UNL     1      47.449   6.599  12.486  0.00  0.00    +0.000 N 
ATOM     19  H   UNL     1      47.993   6.185  11.740  0.00  0.00    +0.000 HD
BRANCH  18  23
ATOM     20  C   UNL     1      47.454   4.285  15.901  0.00  0.00    +0.000 A 
ATOM     21  C   UNL     1      48.204   5.447  15.836  0.00  0.00    +0.000 A 
ATOM     22  N   UNL     1      48.244   6.233  14.725  0.00  0.00    +0.000 NA
ATOM     23  C   UNL     1      47.484   5.842  13.675  0.00  0.00    +0.000 A 
ATOM     24  C   UNL     1      46.758   4.645  13.753  0.00  0.00    +0.000 A 
ATOM     25  N   UNL     1      46.714   3.839  14.851  0.00  0.00    +0.000 NA
BRANCH  20  27
ATOM     26  N   UNL     1      48.585   3.530  17.912  0.00  0.00    +0.000 N 
ATOM     27  C   UNL     1      47.443   3.488  17.159  0.00  0.00    +0.000 C 
ATOM     28  O   UNL     1      46.468   2.833  17.507  0.00  0.00    +0.000 OA
ATOM     29  H   UNL     1      48.607   3.038  18.795  0.00  0.00    +0.000 HD
ATOM     30  H   UNL     1      49.357   4.126  17.641  0.00  0.00    +0.000 HD
ENDBRANCH  20  27
ENDBRANCH  18  23
ENDBRANCH   1  18
TORSDOF 6
ENDMDL
MODEL 3
REMARK VINA RESULT:    -9.055      2.730      3.826
REMARK INTER + INTRA:         -11.783
REMARK INTER:                 -11.036
REMARK INTRA:                  -0.746
REMARK UNBOUND:                 0.183
REMARK  Name = 
REMARK  6 active torsions:
REMARK  status: ('A' for Active; 'I' for Inactive)
REMARK    1  A    between atoms: C_2  and  C_4
REMARK    2  A    between atoms: C_7  and  N_8
REMARK    3  A    between atoms: N_8  and  C_9
REMARK    4  A    between atoms: C_9  and  C_10
REMARK    5  A    between atoms: C_12  and  C_13
REMARK    6  A    between atoms: C_17  and  O_18
REMARK                            x       y       z     vdW  Elec       q    Type
REMARK                         _______ _______ _______ _____ _____    ______ ____
ROOT
ATOM      1  C   UNL     1      43.797   4.594  11.435  0.00  0.00    +0.000 C 
ATOM      2  C   UNL     1      42.559   5.033  12.207  0.00  0.00    +0.000 C 
ATOM      3  C   UNL     1      43.007   5.827  11.026  0.00  0.00    +0.000 C 
ENDROOT
BRANCH   1   4
ATOM      4  C   UNL     1      45.181   4.797  12.059  0.00  0.00    +0.000 A 
ATOM      5  C   UNL     1      45.883   5.969  11.779  0.00  0.00    +0.000 A 
ATOM      6  C   UNL     1      47.035   6.326  12.485  0.00  0.00    +0.000 A 
ATOM      7  C   UNL     1      47.486   5.414  13.444  0.00  0.00    +0.000 A 
ATOM      8  C   UNL     1      46.782   4.236  13.637  0.00  0.00    +0.000 A 
ATOM      9  N   UNL     1      45.651   3.911  12.976  0.00  0.00    +0.000 NA
BRANCH   6  10
ATOM     10  C   UNL     1      47.690   7.625  12.247  0.00  0.00    +0.000 A 
ATOM     11  C   UNL     1      48.995   7.711  11.733  0.00  0.00    +0.000 A 
ATOM     12  N   UNL     1      49.669   8.862  11.494  0.00  0.00    +0.000 NA
ATOM     13  C   UNL     1      49.014  10.003  11.770  0.00  0.00    +0.000 A 
ATOM     14  C   UNL     1      47.724  10.043  12.271  0.00  0.00    +0.000 A 
ATOM     15  C   UNL     1      47.060   8.847  12.515  0.00  0.00    +0.000 A 
BRANCH  14  16
ATOM     16  O   UNL     1      47.068  11.204  12.540  0.00  0.00    +0.000 OA
ATOM     17  H   UNL     1      47.717  11.883  12.787  0.00  0.00    +0.000 HD
ENDBRANCH  14  16
ENDBRANCH   6  10
ENDBRANCH   1   4
BRANCH   1  18
ATOM     18  N   UNL     1      43.730   3.374  10.595  0.00  0.00    +0.000 N 
ATOM     19  H   UNL     1      43.492   2.514  11.071  0.00  0.00    +0.000 HD
BRANCH  18  23
ATOM     20  C   UNL     1      46.426   2.664   7.554  0.00  0.00    +0.000 A 
ATOM     21  C   UNL     1      45.925   3.937   7.769  0.00  0.00    +0.000 A 
ATOM     22  N   UNL     1      45.023   4.214   8.750  0.00  0.00    +0.000 NA
ATOM     23  C   UNL     1      44.649   3.182   9.543  0.00  0.00    +0.000 A 
ATOM     24  C   UNL     1      45.146   1.896   9.285  0.00  0.00    +0.000 A 
ATOM     25  N   UNL     1      46.040   1.596   8.302  0.00  0.00    +0.000 NA
BRANCH  20  27
ATOM     26  N   UNL     1      47.307   3.234   5.364  0.00  0.00    +0.000 N 
ATOM     27  C   UNL     1      47.427   2.442   6.474  0.00  0.00    +0.000 C 
ATOM     28  O   UNL     1      48.313   1.602   6.569  0.00  0.00    +0.000 OA
ATOM     29  H   UNL     1      47.990   3.147   4.625  0.00  0.00    +0.000 HD
ATOM     30  H   UNL     1      46.607   3.966   5.330  0.00  0.00    +0.000 HD
ENDBRANCH  20  27
ENDBRANCH  18  23
ENDBRANCH   1  18
TORSDOF 6
ENDMDL
MODEL 4
REMARK VINA RESULT:    -7.652      2.255      7.368
REMARK INTER + INTRA:          -9.930
REMARK INTER:                  -9.410
REMARK INTRA:                  -0.519
REMARK UNBOUND:                 0.183
REMARK  Name = 
REMARK  6 active torsions:
REMARK  status: ('A' for Active; 'I' for Inactive)
REMARK    1  A    between atoms: C_2  and  C_4
REMARK    2  A    between atoms: C_7  and  N_8
REMARK    3  A    between atoms: N_8  and  C_9
REMARK    4  A    between atoms: C_9  and  C_10
REMARK    5  A    between atoms: C_12  and  C_13
REMARK    6  A    between atoms: C_17  and  O_18
REMARK                            x       y       z     vdW  Elec       q    Type
REMARK                         _______ _______ _______ _____ _____    ______ ____
ROOT
ATOM      1  C   UNL     1      48.654   8.143  12.456  0.00  0.00    +0.000 C 
ATOM      2  C   UNL     1      49.497   9.119  11.646  0.00  0.00    +0.000 C 
ATOM      3  C   UNL     1      49.041   9.503  13.014  0.00  0.00    +0.000 C 
ENDROOT
BRANCH   1   4
ATOM      4  C   UNL     1      47.191   7.912  12.064  0.00  0.00    +0.000 A 
ATOM      5  C   UNL     1      46.866   6.797  11.293  0.00  0.00    +0.000 A 
ATOM      6  C   UNL     1      45.541   6.399  11.093  0.00  0.00    +0.000 A 
ATOM      7  C   UNL     1      44.553   7.214  11.654  0.00  0.00    +0.000 A 
ATOM      8  C   UNL     1      44.934   8.344  12.360  0.00  0.00    +0.000 A 
ATOM      9  N   UNL     1      46.216   8.708  12.578  0.00  0.00    +0.000 NA
BRANCH   6  10
ATOM     10  C   UNL     1      45.232   5.152  10.371  0.00  0.00    +0.000 A 
ATOM     11  C   UNL     1      45.639   4.948   9.041  0.00  0.00    +0.000 A 
ATOM     12  N   UNL     1      45.389   3.838   8.306  0.00  0.00    +0.000 NA
ATOM     13  C   UNL     1      44.702   2.859   8.921  0.00  0.00    +0.000 A 
ATOM     14  C   UNL     1      44.257   2.943  10.229  0.00  0.00    +0.000 A 
ATOM     15  C   UNL     1      44.519   4.097  10.956  0.00  0.00    +0.000 A 
BRANCH  14  16
ATOM     16  O   UNL     1      43.568   1.944  10.843  0.00  0.00    +0.000 OA
ATOM     17  H   UNL     1      44.026   1.702  11.665  0.00  0.00    +0.000 HD
ENDBRANCH  14  16
ENDBRANCH   6  10
ENDBRANCH   1   4
BRANCH   1  18
ATOM     18  N   UNL     1      49.290   6.921  13.006  0.00  0.00    +0.000 N 
ATOM     19  H   UNL     1      49.708   6.291  12.334  0.00  0.00    +0.000 HD
BRANCH  18  23
ATOM     20  C   UNL     1      47.673   5.047  16.307  0.00  0.00    +0.000 A 
ATOM     21  C   UNL     1      47.349   4.627  15.028  0.00  0.00    +0.000 A 
ATOM     22  N   UNL     1      47.846   5.225  13.910  0.00  0.00    +0.000 NA
ATOM     23  C   UNL     1      48.711   6.248  14.102  0.00  0.00    +0.000 A 
ATOM     24  C   UNL     1      49.000   6.677  15.406  0.00  0.00    +0.000 A 
ATOM     25  N   UNL     1      48.504   6.099  16.536  0.00  0.00    +0.000 NA
BRANCH  20  27
ATOM     26  N   UNL     1      47.119   5.007  18.670  0.00  0.00    +0.000 N 
ATOM     27  C   UNL     1      47.105   4.329  17.482  0.00  0.00    +0.000 C 
ATOM     28  O   UNL     1      46.646   3.197  17.394  0.00  0.00    +0.000 OA
ATOM     29  H   UNL     1      46.705   4.575  19.485  0.00  0.00    +0.000 HD
ATOM     30  H   UNL     1      47.444   5.966  18.711  0.00  0.00    +0.000 HD
ENDBRANCH  20  27
ENDBRANCH  18  23
ENDBRANCH   1  18
TORSDOF 6
ENDMDL
MODEL 5
REMARK VINA RESULT:    -7.597      3.620      8.165
REMARK INTER + INTRA:          -9.856
REMARK INTER:                  -9.900
REMARK INTRA:                   0.044
REMARK UNBOUND:                 0.183
REMARK  Name = 
REMARK  6 active torsions:
REMARK  status: ('A' for Active; 'I' for Inactive)
REMARK    1  A    between atoms: C_2  and  C_4
REMARK    2  A    between atoms: C_7  and  N_8
REMARK    3  A    between atoms: N_8  and  C_9
REMARK    4  A    between atoms: C_9  and  C_10
REMARK    5  A    between atoms: C_12  and  C_13
REMARK    6  A    between atoms: C_17  and  O_18
REMARK                            x       y       z     vdW  Elec       q    Type
REMARK                         _______ _______ _______ _____ _____    ______ ____
ROOT
ATOM      1  C   UNL     1      48.119   4.722  16.944  0.00  0.00    +0.000 C 
ATOM      2  C   UNL     1      46.970   4.866  17.932  0.00  0.00    +0.000 C 
ATOM      3  C   UNL     1      47.313   3.516  17.397  0.00  0.00    +0.000 C 
ENDROOT
BRANCH   1   4
ATOM      4  C   UNL     1      47.936   5.214  15.504  0.00  0.00    +0.000 A 
ATOM      5  C   UNL     1      46.850   4.747  14.764  0.00  0.00    +0.000 A 
ATOM      6  C   UNL     1      46.490   5.320  13.540  0.00  0.00    +0.000 A 
ATOM      7  C   UNL     1      47.316   6.343  13.064  0.00  0.00    +0.000 A 
ATOM      8  C   UNL     1      48.418   6.723  13.814  0.00  0.00    +0.000 A 
ATOM      9  N   UNL     1      48.742   6.190  15.011  0.00  0.00    +0.000 NA
BRANCH   6  10
ATOM     10  C   UNL     1      45.271   4.884  12.837  0.00  0.00    +0.000 A 
ATOM     11  C   UNL     1      45.137   3.582  12.328  0.00  0.00    +0.000 A 
ATOM     12  N   UNL     1      44.056   3.106  11.664  0.00  0.00    +0.000 NA
ATOM     13  C   UNL     1      43.035   3.965  11.497  0.00  0.00    +0.000 A 
ATOM     14  C   UNL     1      43.049   5.270  11.962  0.00  0.00    +0.000 A 
ATOM     15  C   UNL     1      44.175   5.732  12.632  0.00  0.00    +0.000 A 
BRANCH  14  16
ATOM     16  O   UNL     1      42.007   6.128  11.794  0.00  0.00    +0.000 OA
ATOM     17  H   UNL     1      42.328   6.931  11.352  0.00  0.00    +0.000 HD
ENDBRANCH  14  16
ENDBRANCH   6  10
ENDBRANCH   1   4
BRANCH   1  18
ATOM     18  N   UNL     1      49.512   4.890  17.424  0.00  0.00    +0.000 N 
ATOM     19  H   UNL     1      49.980   5.745  17.153  0.00  0.00    +0.000 HD
BRANCH  18  23
ATOM     20  C   UNL     1      52.165   1.740  17.671  0.00  0.00    +0.000 A 
ATOM     21  C   UNL     1      50.930   1.576  17.068  0.00  0.00    +0.000 A 
ATOM     22  N   UNL     1      50.017   2.583  16.977  0.00  0.00    +0.000 NA
ATOM     23  C   UNL     1      50.384   3.784  17.484  0.00  0.00    +0.000 A 
ATOM     24  C   UNL     1      51.627   3.917  18.118  0.00  0.00    +0.000 A 
ATOM     25  N   UNL     1      52.549   2.920  18.229  0.00  0.00    +0.000 NA
BRANCH  20  27
ATOM     26  N   UNL     1      52.720  -0.499  18.429  0.00  0.00    +0.000 N 
ATOM     27  C   UNL     1      53.119   0.598  17.714  0.00  0.00    +0.000 C 
ATOM     28  O   UNL     1      54.200   0.630  17.139  0.00  0.00    +0.000 OA
ATOM     29  H   UNL     1      53.318  -1.313  18.449  0.00  0.00    +0.000 HD
ATOM     30  H   UNL     1      51.797  -0.532  18.844  0.00  0.00    +0.000 HD
ENDBRANCH  20  27
ENDBRANCH  18  23
ENDBRANCH   1  18
TORSDOF 6
ENDMDL
MODEL 6
REMARK VINA RESULT:    -7.298      2.690      4.581
REMARK INTER + INTRA:          -9.462
REMARK INTER:                  -9.047
REMARK INTRA:                  -0.415
REMARK UNBOUND:                 0.183
REMARK  Name = 
REMARK  6 active torsions:
REMARK  status: ('A' for Active; 'I' for Inactive)
REMARK    1  A    between atoms: C_2  and  C_4
REMARK    2  A    between atoms: C_7  and  N_8
REMARK    3  A    between atoms: N_8  and  C_9
REMARK    4  A    between atoms: C_9  and  C_10
REMARK    5  A    between atoms: C_12  and  C_13
REMARK    6  A    between atoms: C_17  and  O_18
REMARK                            x       y       z     vdW  Elec       q    Type
REMARK                         _______ _______ _______ _____ _____    ______ ____
ROOT
ATOM      1  C   UNL     1      47.986   8.056  13.018  0.00  0.00    +0.000 C 
ATOM      2  C   UNL     1      48.220   9.201  12.042  0.00  0.00    +0.000 C 
ATOM      3  C   UNL     1      48.460   7.797  11.597  0.00  0.00    +0.000 C 
ENDROOT
BRANCH   1   4
ATOM      4  C   UNL     1      48.980   7.831  14.163  0.00  0.00    +0.000 A 
ATOM      5  C   UNL     1      48.641   6.948  15.187  0.00  0.00    +0.000 A 
ATOM      6  C   UNL     1      49.578   6.520  16.132  0.00  0.00    +0.000 A 
ATOM      7  C   UNL     1      50.858   7.075  16.037  0.00  0.00    +0.000 A 
ATOM      8  C   UNL     1      51.119   7.996  15.035  0.00  0.00    +0.000 A 
ATOM      9  N   UNL     1      50.221   8.381  14.104  0.00  0.00    +0.000 NA
BRANCH   6  10
ATOM     10  C   UNL     1      49.223   5.498  17.133  0.00  0.00    +0.000 A 
ATOM     11  C   UNL     1      49.971   5.323  18.309  0.00  0.00    +0.000 A 
ATOM     12  N   UNL     1      49.718   4.404  19.271  0.00  0.00    +0.000 NA
ATOM     13  C   UNL     1      48.652   3.610  19.068  0.00  0.00    +0.000 A 
ATOM     14  C   UNL     1      47.836   3.695  17.953  0.00  0.00    +0.000 A 
ATOM     15  C   UNL     1      48.126   4.641  16.978  0.00  0.00    +0.000 A 
BRANCH  14  16
ATOM     16  O   UNL     1      46.756   2.890  17.762  0.00  0.00    +0.000 OA
ATOM     17  H   UNL     1      46.744   2.590  16.838  0.00  0.00    +0.000 HD
ENDBRANCH  14  16
ENDBRANCH   6  10
ENDBRANCH   1   4
BRANCH   1  18
ATOM     18  N   UNL     1      46.597   7.701  13.399  0.00  0.00    +0.000 N 
ATOM     19  H   UNL     1      46.356   7.819  14.374  0.00  0.00    +0.000 HD
BRANCH  18  23
ATOM     20  C   UNL     1      44.798   4.375  11.750  0.00  0.00    +0.000 A 
ATOM     21  C   UNL     1      44.466   5.647  11.312  0.00  0.00    +0.000 A 
ATOM     22  N   UNL     1      45.022   6.772  11.838  0.00  0.00    +0.000 NA
ATOM     23  C   UNL     1      45.955   6.596  12.804  0.00  0.00    +0.000 A 
ATOM     24  C   UNL     1      46.251   5.301  13.253  0.00  0.00    +0.000 A 
ATOM     25  N   UNL     1      45.697   4.163  12.748  0.00  0.00    +0.000 NA
BRANCH  20  27
ATOM     26  N   UNL     1      44.920   2.516  10.194  0.00  0.00    +0.000 N 
ATOM     27  C   UNL     1      44.161   3.190  11.112  0.00  0.00    +0.000 C 
ATOM     28  O   UNL     1      43.024   2.831  11.393  0.00  0.00    +0.000 OA
ATOM     29  H   UNL     1      44.544   1.681   9.767  0.00  0.00    +0.000 HD
ATOM     30  H   UNL     1      45.880   2.789  10.022  0.00  0.00    +0.000 HD
ENDBRANCH  20  27
ENDBRANCH  18  23
ENDBRANCH   1  18
TORSDOF 6
ENDMDL
MODEL 7
REMARK VINA RESULT:    -6.997      2.032      7.525
REMARK INTER + INTRA:          -9.064
REMARK INTER:                  -9.379
REMARK INTRA:                   0.315
REMARK UNBOUND:                 0.183
REMARK  Name = 
REMARK  6 active torsions:
REMARK  status: ('A' for Active; 'I' for Inactive)
REMARK    1  A    between atoms: C_2  and  C_4
REMARK    2  A    between atoms: C_7  and  N_8
REMARK    3  A    between atoms: N_8  and  C_9
REMARK    4  A    between atoms: C_9  and  C_10
REMARK    5  A    between atoms: C_12  and  C_13
REMARK    6  A    between atoms: C_17  and  O_18
REMARK                            x       y       z     vdW  Elec       q    Type
REMARK                         _______ _______ _______ _____ _____    ______ ____
ROOT
ATOM      1  C   UNL     1      48.556   7.799  12.724  0.00  0.00    +0.000 C 
ATOM      2  C   UNL     1      49.690   7.037  12.051  0.00  0.00    +0.000 C 
ATOM      3  C   UNL     1      49.610   8.519  11.900  0.00  0.00    +0.000 C 
ENDROOT
BRANCH   1   4
ATOM      4  C   UNL     1      47.139   7.694  12.152  0.00  0.00    +0.000 A 
ATOM      5  C   UNL     1      46.796   6.573  11.398  0.00  0.00    +0.000 A 
ATOM      6  C   UNL     1      45.471   6.300  11.042  0.00  0.00    +0.000 A 
ATOM      7  C   UNL     1      44.515   7.244  11.426  0.00  0.00    +0.000 A 
ATOM      8  C   UNL     1      44.923   8.372  12.121  0.00  0.00    +0.000 A 
ATOM      9  N   UNL     1      46.199   8.615  12.491  0.00  0.00    +0.000 NA
BRANCH   6  10
ATOM     10  C   UNL     1      45.124   5.048  10.346  0.00  0.00    +0.000 A 
ATOM     11  C   UNL     1      44.306   4.073  10.941  0.00  0.00    +0.000 A 
ATOM     12  N   UNL     1      43.948   2.896  10.374  0.00  0.00    +0.000 NA
ATOM     13  C   UNL     1      44.417   2.667   9.135  0.00  0.00    +0.000 A 
ATOM     14  C   UNL     1      45.223   3.556   8.445  0.00  0.00    +0.000 A 
ATOM     15  C   UNL     1      45.582   4.751   9.055  0.00  0.00    +0.000 A 
BRANCH  14  16
ATOM     16  O   UNL     1      45.685   3.316   7.188  0.00  0.00    +0.000 OA
ATOM     17  H   UNL     1      45.193   2.570   6.807  0.00  0.00    +0.000 HD
ENDBRANCH  14  16
ENDBRANCH   6  10
ENDBRANCH   1   4
BRANCH   1  18
ATOM     18  N   UNL     1      48.559   7.945  14.200  0.00  0.00    +0.000 N 
ATOM     19  H   UNL     1      49.192   8.636  14.581  0.00  0.00    +0.000 HD
BRANCH  18  23
ATOM     20  C   UNL     1      48.056   4.571  16.520  0.00  0.00    +0.000 A 
ATOM     21  C   UNL     1      48.854   5.615  16.957  0.00  0.00    +0.000 A 
ATOM     22  N   UNL     1      49.061   6.740  16.218  0.00  0.00    +0.000 NA
ATOM     23  C   UNL     1      48.418   6.813  15.029  0.00  0.00    +0.000 A 
ATOM     24  C   UNL     1      47.641   5.730  14.593  0.00  0.00    +0.000 A 
ATOM     25  N   UNL     1      47.431   4.592  15.312  0.00  0.00    +0.000 NA
BRANCH  20  27
ATOM     26  N   UNL     1      48.952   2.968  18.108  0.00  0.00    +0.000 N 
ATOM     27  C   UNL     1      47.861   3.380  17.393  0.00  0.00    +0.000 C 
ATOM     28  O   UNL     1      46.785   2.802  17.474  0.00  0.00    +0.000 OA
ATOM     29  H   UNL     1      48.854   2.190  18.745  0.00  0.00    +0.000 HD
ATOM     30  H   UNL     1      49.816   3.496  18.077  0.00  0.00    +0.000 HD
ENDBRANCH  20  27
ENDBRANCH  18  23
ENDBRANCH   1  18
TORSDOF 6
ENDMDL
MODEL 8
REMARK VINA RESULT:    -6.994      2.917      4.759
REMARK INTER + INTRA:          -9.060
REMARK INTER:                  -8.481
REMARK INTRA:                  -0.579
REMARK UNBOUND:                 0.183
REMARK  Name = 
REMARK  6 active torsions:
REMARK  status: ('A' for Active; 'I' for Inactive)
REMARK    1  A    between atoms: C_2  and  C_4
REMARK    2  A    between atoms: C_7  and  N_8
REMARK    3  A    between atoms: N_8  and  C_9
REMARK    4  A    between atoms: C_9  and  C_10
REMARK    5  A    between atoms: C_12  and  C_13
REMARK    6  A    between atoms: C_17  and  O_18
REMARK                            x       y       z     vdW  Elec       q    Type
REMARK                         _______ _______ _______ _____ _____    ______ ____
ROOT
ATOM      1  C   UNL     1      47.612   7.909  13.237  0.00  0.00    +0.000 C 
ATOM      2  C   UNL     1      48.223   8.697  12.086  0.00  0.00    +0.000 C 
ATOM      3  C   UNL     1      48.446   7.224  12.166  0.00  0.00    +0.000 C 
ENDROOT
BRANCH   1   4
ATOM      4  C   UNL     1      48.210   8.046  14.641  0.00  0.00    +0.000 A 
ATOM      5  C   UNL     1      48.855   6.949  15.210  0.00  0.00    +0.000 A 
ATOM      6  C   UNL     1      49.618   7.065  16.376  0.00  0.00    +0.000 A 
ATOM      7  C   UNL     1      49.647   8.325  16.980  0.00  0.00    +0.000 A 
ATOM      8  C   UNL     1      48.936   9.365  16.402  0.00  0.00    +0.000 A 
ATOM      9  N   UNL     1      48.227   9.257  15.258  0.00  0.00    +0.000 NA
BRANCH   6  10
ATOM     10  C   UNL     1      50.383   5.915  16.890  0.00  0.00    +0.000 A 
ATOM     11  C   UNL     1      51.786   5.931  16.957  0.00  0.00    +0.000 A 
ATOM     12  N   UNL     1      52.562   4.915  17.406  0.00  0.00    +0.000 NA
ATOM     13  C   UNL     1      51.915   3.814  17.828  0.00  0.00    +0.000 A 
ATOM     14  C   UNL     1      50.537   3.686  17.818  0.00  0.00    +0.000 A 
ATOM     15  C   UNL     1      49.767   4.740  17.342  0.00  0.00    +0.000 A 
BRANCH  14  16
ATOM     16  O   UNL     1      49.893   2.570  18.253  0.00  0.00    +0.000 OA
ATOM     17  H   UNL     1      50.487   2.069  18.835  0.00  0.00    +0.000 HD
ENDBRANCH  14  16
ENDBRANCH   6  10
ENDBRANCH   1   4
BRANCH   1  18
ATOM     18  N   UNL     1      46.145   7.693  13.268  0.00  0.00    +0.000 N 
ATOM     19  H   UNL     1      45.662   8.011  14.098  0.00  0.00    +0.000 HD
BRANCH  18  23
ATOM     20  C   UNL     1      44.561   4.180  11.796  0.00  0.00    +0.000 A 
ATOM     21  C   UNL     1      44.411   5.367  11.099  0.00  0.00    +0.000 A 
ATOM     22  N   UNL     1      44.904   6.552  11.554  0.00  0.00    +0.000 NA
ATOM     23  C   UNL     1      45.585   6.519  12.723  0.00  0.00    +0.000 A 
ATOM     24  C   UNL     1      45.696   5.311  13.427  0.00  0.00    +0.000 A 
ATOM     25  N   UNL     1      45.201   4.117  12.994  0.00  0.00    +0.000 NA
BRANCH  20  27
ATOM     26  N   UNL     1      44.725   2.358  10.199  0.00  0.00    +0.000 N 
ATOM     27  C   UNL     1      44.013   2.919  11.224  0.00  0.00    +0.000 C 
ATOM     28  O   UNL     1      42.984   2.405  11.646  0.00  0.00    +0.000 OA
ATOM     29  H   UNL     1      44.413   1.480   9.809  0.00  0.00    +0.000 HD
ATOM     30  H   UNL     1      45.607   2.763   9.905  0.00  0.00    +0.000 HD
ENDBRANCH  20  27
ENDBRANCH  18  23
ENDBRANCH   1  18
TORSDOF 6
ENDMDL
MODEL 9
REMARK VINA RESULT:    -6.929      2.866      7.439
REMARK INTER + INTRA:          -8.974
REMARK INTER:                  -8.590
REMARK INTRA:                  -0.385
REMARK UNBOUND:                 0.183
REMARK  Name = 
REMARK  6 active torsions:
REMARK  status: ('A' for Active; 'I' for Inactive)
REMARK    1  A    between atoms: C_2  and  C_4
REMARK    2  A    between atoms: C_7  and  N_8
REMARK    3  A    between atoms: N_8  and  C_9
REMARK    4  A    between atoms: C_9  and  C_10
REMARK    5  A    between atoms: C_12  and  C_13
REMARK    6  A    between atoms: C_17  and  O_18
REMARK                            x       y       z     vdW  Elec       q    Type
REMARK                         _______ _______ _______ _____ _____    ______ ____
ROOT
ATOM      1  C   UNL     1      46.151   4.772  13.583  0.00  0.00    +0.000 C 
ATOM      2  C   UNL     1      46.236   4.119  14.956  0.00  0.00    +0.000 C 
ATOM      3  C   UNL     1      47.379   3.983  14.006  0.00  0.00    +0.000 C 
ENDROOT
BRANCH   1   4
ATOM      4  C   UNL     1      45.232   4.164  12.518  0.00  0.00    +0.000 A 
ATOM      5  C   UNL     1      45.714   4.011  11.219  0.00  0.00    +0.000 A 
ATOM      6  C   UNL     1      45.026   3.261  10.260  0.00  0.00    +0.000 A 
ATOM      7  C   UNL     1      43.796   2.725  10.653  0.00  0.00    +0.000 A 
ATOM      8  C   UNL     1      43.338   2.962  11.940  0.00  0.00    +0.000 A 
ATOM      9  N   UNL     1      44.021   3.659  12.873  0.00  0.00    +0.000 NA
BRANCH   6  10
ATOM     10  C   UNL     1      45.614   3.019   8.931  0.00  0.00    +0.000 A 
ATOM     11  C   UNL     1      45.775   4.055   7.995  0.00  0.00    +0.000 A 
ATOM     12  N   UNL     1      46.297   3.915   6.753  0.00  0.00    +0.000 NA
ATOM     13  C   UNL     1      46.697   2.678   6.411  0.00  0.00    +0.000 A 
ATOM     14  C   UNL     1      46.598   1.582   7.253  0.00  0.00    +0.000 A 
ATOM     15  C   UNL     1      46.049   1.754   8.517  0.00  0.00    +0.000 A 
BRANCH  14  16
ATOM     16  O   UNL     1      47.013   0.336   6.899  0.00  0.00    +0.000 OA
ATOM     17  H   UNL     1      47.810   0.413   6.349  0.00  0.00    +0.000 HD
ENDBRANCH  14  16
ENDBRANCH   6  10
ENDBRANCH   1   4
BRANCH   1  18
ATOM     18  N   UNL     1      46.234   6.250  13.478  0.00  0.00    +0.000 N 
ATOM     19  H   UNL     1      45.415   6.721  13.117  0.00  0.00    +0.000 HD
BRANCH  18  23
ATOM     20  C   UNL     1      49.804   8.066  12.491  0.00  0.00    +0.000 A 
ATOM     21  C   UNL     1      48.875   7.757  11.511  0.00  0.00    +0.000 A 
ATOM     22  N   UNL     1      47.692   7.144  11.789  0.00  0.00    +0.000 NA
ATOM     23  C   UNL     1      47.439   6.870  13.091  0.00  0.00    +0.000 A 
ATOM     24  C   UNL     1      48.408   7.163  14.061  0.00  0.00    +0.000 A 
ATOM     25  N   UNL     1      49.603   7.766  13.802  0.00  0.00    +0.000 NA
BRANCH  20  27
ATOM     26  N   UNL     1      51.891   9.122  13.143  0.00  0.00    +0.000 N 
ATOM     27  C   UNL     1      51.068   8.756  12.113  0.00  0.00    +0.000 C 
ATOM     28  O   UNL     1      51.363   8.981  10.945  0.00  0.00    +0.000 OA
ATOM     29  H   UNL     1      52.779   9.555  12.930  0.00  0.00    +0.000 HD
ATOM     30  H   UNL     1      51.661   8.871  14.097  0.00  0.00    +0.000 HD
ENDBRANCH  20  27
ENDBRANCH  18  23
ENDBRANCH   1  18
TORSDOF 6
ENDMDL
