MODEL 1
REMARK VINA RESULT:    -8.881      0.000      0.000
REMARK INTER + INTRA:         -13.092
REMARK INTER:                 -11.996
REMARK INTRA:                  -1.096
REMARK UNBOUND:                -1.096
REMARK  Name = 
REMARK  6 active torsions:
REMARK  status: ('A' for Active; 'I' for Inactive)
REMARK    1  A    between atoms: C_2  and  C_3
REMARK    2  A    between atoms: C_6  and  C_7
REMARK    3  A    between atoms: C_9  and  C_10
REMARK    4  A    between atoms: C_10  and  N_11
REMARK    5  A    between atoms: N_11  and  C_12
REMARK    6  A    between atoms: C_15  and  C_16
REMARK                            x       y       z     vdW  Elec       q    Type
REMARK                         _______ _______ _______ _____ _____    ______ ____
ROOT
ATOM      1  C   UNL     1      43.858   5.017  11.461  0.00  0.00    +0.000 C 
ATOM      2  C   UNL     1      43.005   6.263  11.368  0.00  0.00    +0.000 C 
ATOM      3  C   UNL     1      42.640   5.219  12.362  0.00  0.00    +0.000 C 
ENDROOT
BRANCH   1   6
ATOM      4  C   UNL     1      47.321   6.362  12.410  0.00  0.00    +0.000 A 
ATOM      5  C   UNL     1      46.095   6.209  11.759  0.00  0.00    +0.000 A 
ATOM      6  C   UNL     1      45.234   5.161  12.106  0.00  0.00    +0.000 A 
ATOM      7  C   UNL     1      45.693   4.257  13.070  0.00  0.00    +0.000 A 
ATOM      8  C   UNL     1      46.911   4.473  13.683  0.00  0.00    +0.000 A 
ATOM      9  N   UNL     1      47.725   5.500  13.377  0.00  0.00    +0.000 NA
BRANCH   4  13
ATOM     10  C   UNL     1      50.041   9.578  11.522  0.00  0.00    +0.000 A 
ATOM     11  C   UNL     1      50.484   8.254  11.463  0.00  0.00    +0.000 A 
ATOM     12  C   UNL     1      49.602   7.208  11.746  0.00  0.00    +0.000 A 
ATOM     13  C   UNL     1      48.264   7.453  12.102  0.00  0.00    +0.000 A 
ATOM     14  C   UNL     1      47.841   8.797  12.146  0.00  0.00    +0.000 A 
ATOM     15  C   UNL     1      48.716   9.848  11.864  0.00  0.00    +0.000 A 
BRANCH  10  17
ATOM     16  N   UNL     1      51.675  11.516  10.990  0.00  0.00    +0.000 NA
ATOM     17  C   UNL     1      50.944  10.649  11.231  0.00  0.00    +0.000 C 
ENDBRANCH  10  17
ENDBRANCH   4  13
ENDBRANCH   1   6
BRANCH   1  18
ATOM     18  N   UNL     1      43.768   3.826  10.617  0.00  0.00    +0.000 N 
ATOM     19  H   UNL     1      43.045   3.163  10.878  0.00  0.00    +0.000 HD
BRANCH  18  20
ATOM     20  C   UNL     1      44.605   3.365   9.591  0.00  0.00    +0.000 A 
ATOM     21  C   UNL     1      44.974   2.037   9.380  0.00  0.00    +0.000 A 
ATOM     22  C   UNL     1      45.915   1.703   8.388  0.00  0.00    +0.000 A 
ATOM     23  C   UNL     1      46.472   2.694   7.571  0.00  0.00    +0.000 A 
ATOM     24  C   UNL     1      46.082   4.019   7.745  0.00  0.00    +0.000 A 
ATOM     25  C   UNL     1      45.166   4.343   8.748  0.00  0.00    +0.000 A 
BRANCH  23  26
ATOM     26  C   UNL     1      47.513   2.320   6.579  0.00  0.00    +0.000 C 
ATOM     27  N   UNL     1      47.538   3.012   5.400  0.00  0.00    +0.000 N 
ATOM     28  O   UNL     1      48.315   1.422   6.801  0.00  0.00    +0.000 OA
ATOM     29  H   UNL     1      46.831   3.673   5.116  0.00  0.00    +0.000 HD
ATOM     30  H   UNL     1      48.231   2.732   4.717  0.00  0.00    +0.000 HD
ENDBRANCH  23  26
ENDBRANCH  18  20
ENDBRANCH   1  18
TORSDOF 6
ENDMDL
MODEL 2
REMARK VINA RESULT:    -8.374      2.421      4.176
REMARK INTER + INTRA:         -12.407
REMARK INTER:                 -12.081
REMARK INTRA:                  -0.326
REMARK UNBOUND:                -1.096
REMARK  Name = 
REMARK  6 active torsions:
REMARK  status: ('A' for Active; 'I' for Inactive)
REMARK    1  A    between atoms: C_2  and  C_3
REMARK    2  A    between atoms: C_6  and  C_7
REMARK    3  A    between atoms: C_9  and  C_10
REMARK    4  A    between atoms: C_10  and  N_11
REMARK    5  A    between atoms: N_11  and  C_12
REMARK    6  A    between atoms: C_15  and  C_16
REMARK                            x       y       z     vdW  Elec       q    Type
REMARK                         _______ _______ _______ _____ _____    ______ ____
ROOT
ATOM      1  C   UNL     1      43.906   4.978  11.528  0.00  0.00    +0.000 C 
ATOM      2  C   UNL     1      42.711   5.186  12.433  0.00  0.00    +0.000 C 
ATOM      3  C   UNL     1      43.337   3.838  12.373  0.00  0.00    +0.000 C 
ENDROOT
BRANCH   1   6
ATOM      4  C   UNL     1      47.021   5.810  13.603  0.00  0.00    +0.000 A 
ATOM      5  C   UNL     1      45.773   5.299  13.238  0.00  0.00    +0.000 A 
ATOM      6  C   UNL     1      45.233   5.583  11.977  0.00  0.00    +0.000 A 
ATOM      7  C   UNL     1      45.967   6.443  11.152  0.00  0.00    +0.000 A 
ATOM      8  C   UNL     1      47.199   6.903  11.571  0.00  0.00    +0.000 A 
ATOM      9  N   UNL     1      47.737   6.603  12.767  0.00  0.00    +0.000 NA
BRANCH   4  13
ATOM     10  C   UNL     1      48.835   4.967  17.415  0.00  0.00    +0.000 A 
ATOM     11  C   UNL     1      49.246   6.081  16.678  0.00  0.00    +0.000 A 
ATOM     12  C   UNL     1      48.656   6.359  15.443  0.00  0.00    +0.000 A 
ATOM     13  C   UNL     1      47.650   5.534  14.907  0.00  0.00    +0.000 A 
ATOM     14  C   UNL     1      47.249   4.422  15.675  0.00  0.00    +0.000 A 
ATOM     15  C   UNL     1      47.833   4.137  16.910  0.00  0.00    +0.000 A 
BRANCH  10  17
ATOM     16  N   UNL     1      49.923   4.450  19.708  0.00  0.00    +0.000 NA
ATOM     17  C   UNL     1      49.439   4.682  18.680  0.00  0.00    +0.000 C 
ENDBRANCH  10  17
ENDBRANCH   4  13
ENDBRANCH   1   6
BRANCH   1  18
ATOM     18  N   UNL     1      43.882   4.706  10.091  0.00  0.00    +0.000 N 
ATOM     19  H   UNL     1      43.120   5.141   9.580  0.00  0.00    +0.000 HD
BRANCH  18  20
ATOM     20  C   UNL     1      44.645   3.824   9.313  0.00  0.00    +0.000 A 
ATOM     21  C   UNL     1      44.664   2.436   9.442  0.00  0.00    +0.000 A 
ATOM     22  C   UNL     1      45.558   1.658   8.684  0.00  0.00    +0.000 A 
ATOM     23  C   UNL     1      46.422   2.259   7.761  0.00  0.00    +0.000 A 
ATOM     24  C   UNL     1      46.386   3.641   7.594  0.00  0.00    +0.000 A 
ATOM     25  C   UNL     1      45.511   4.407   8.369  0.00  0.00    +0.000 A 
BRANCH  23  26
ATOM     26  C   UNL     1      47.402   1.419   7.025  0.00  0.00    +0.000 C 
ATOM     27  N   UNL     1      48.467   2.052   6.446  0.00  0.00    +0.000 N 
ATOM     28  O   UNL     1      47.262   0.206   6.932  0.00  0.00    +0.000 OA
ATOM     29  H   UNL     1      48.566   3.054   6.388  0.00  0.00    +0.000 HD
ATOM     30  H   UNL     1      49.114   1.477   5.922  0.00  0.00    +0.000 HD
ENDBRANCH  23  26
ENDBRANCH  18  20
ENDBRANCH   1  18
TORSDOF 6
ENDMDL
MODEL 3
REMARK VINA RESULT:    -7.698      1.608      2.172
REMARK INTER + INTRA:         -11.495
REMARK INTER:                 -11.077
REMARK INTRA:                  -0.417
REMARK UNBOUND:                -1.096
REMARK  Name = 
REMARK  6 active torsions:
REMARK  status: ('A' for Active; 'I' for Inactive)
REMARK    1  A    between atoms: C_2  and  C_3
REMARK    2  A    between atoms: C_6  and  C_7
REMARK    3  A    between atoms: C_9  and  C_10
REMARK    4  A    between atoms: C_10  and  N_11
REMARK    5  A    between atoms: N_11  and  C_12
REMARK    6  A    between atoms: C_15  and  C_16
REMARK                            x       y       z     vdW  Elec       q    Type
REMARK                         _______ _______ _______ _____ _____    ______ ____
ROOT
ATOM      1  C   UNL     1      44.190   4.420  11.683  0.00  0.00    +0.000 C 
ATOM      2  C   UNL     1      43.569   3.869  12.949  0.00  0.00    +0.000 C 
ATOM      3  C   UNL     1      44.894   3.349  12.517  0.00  0.00    +0.000 C 
ENDROOT
BRANCH   1   6
ATOM      4  C   UNL     1      46.605   7.368  12.106  0.00  0.00    +0.000 A 
ATOM      5  C   UNL     1      46.087   6.071  12.121  0.00  0.00    +0.000 A 
ATOM      6  C   UNL     1      44.758   5.836  11.746  0.00  0.00    +0.000 A 
ATOM      7  C   UNL     1      43.980   6.955  11.431  0.00  0.00    +0.000 A 
ATOM      8  C   UNL     1      44.559   8.209  11.427  0.00  0.00    +0.000 A 
ATOM      9  N   UNL     1      45.845   8.434  11.751  0.00  0.00    +0.000 NA
BRANCH   4  13
ATOM     10  C   UNL     1      50.670   8.251  13.216  0.00  0.00    +0.000 A 
ATOM     11  C   UNL     1      50.167   8.703  11.993  0.00  0.00    +0.000 A 
ATOM     12  C   UNL     1      48.847   8.422  11.633  0.00  0.00    +0.000 A 
ATOM     13  C   UNL     1      47.999   7.679  12.474  0.00  0.00    +0.000 A 
ATOM     14  C   UNL     1      48.529   7.243  13.705  0.00  0.00    +0.000 A 
ATOM     15  C   UNL     1      49.846   7.520  14.073  0.00  0.00    +0.000 A 
BRANCH  10  17
ATOM     16  N   UNL     1      53.117   8.778  13.882  0.00  0.00    +0.000 NA
ATOM     17  C   UNL     1      52.022   8.539  13.586  0.00  0.00    +0.000 C 
ENDBRANCH  10  17
ENDBRANCH   4  13
ENDBRANCH   1   6
BRANCH   1  18
ATOM     18  N   UNL     1      43.909   3.999  10.312  0.00  0.00    +0.000 N 
ATOM     19  H   UNL     1      42.927   3.981  10.056  0.00  0.00    +0.000 HD
BRANCH  18  20
ATOM     20  C   UNL     1      44.753   3.470   9.324  0.00  0.00    +0.000 A 
ATOM     21  C   UNL     1      45.020   2.115   9.125  0.00  0.00    +0.000 A 
ATOM     22  C   UNL     1      45.975   1.705   8.178  0.00  0.00    +0.000 A 
ATOM     23  C   UNL     1      46.651   2.646   7.393  0.00  0.00    +0.000 A 
ATOM     24  C   UNL     1      46.365   3.999   7.554  0.00  0.00    +0.000 A 
ATOM     25  C   UNL     1      45.433   4.398   8.514  0.00  0.00    +0.000 A 
BRANCH  23  26
ATOM     26  C   UNL     1      47.703   2.187   6.450  0.00  0.00    +0.000 C 
ATOM     27  N   UNL     1      47.926   2.947   5.335  0.00  0.00    +0.000 N 
ATOM     28  O   UNL     1      48.344   1.164   6.654  0.00  0.00    +0.000 OA
ATOM     29  H   UNL     1      47.350   3.726   5.057  0.00  0.00    +0.000 HD
ATOM     30  H   UNL     1      48.624   2.612   4.682  0.00  0.00    +0.000 HD
ENDBRANCH  23  26
ENDBRANCH  18  20
ENDBRANCH   1  18
TORSDOF 6
ENDMDL
MODEL 4
REMARK VINA RESULT:    -6.358      5.310      8.738
REMARK INTER + INTRA:          -9.685
REMARK INTER:                  -8.632
REMARK INTRA:                  -1.053
REMARK UNBOUND:                -1.096
REMARK  Name = 
REMARK  6 active torsions:
REMARK  status: ('A' for Active; 'I' for Inactive)
REMARK    1  A    between atoms: C_2  and  C_3
REMARK    2  A    between atoms: C_6  and  C_7
REMARK    3  A    between atoms: C_9  and  C_10
REMARK    4  A    between atoms: C_10  and  N_11
REMARK    5  A    between atoms: N_11  and  C_12
REMARK    6  A    between atoms: C_15  and  C_16
REMARK                            x       y       z     vdW  Elec       q    Type
REMARK                         _______ _______ _______ _____ _____    ______ ____
ROOT
ATOM      1  C   UNL     1      49.048   5.814  18.085  0.00  0.00    +0.000 C 
ATOM      2  C   UNL     1      47.653   5.622  18.640  0.00  0.00    +0.000 C 
ATOM      3  C   UNL     1      48.424   6.829  19.044  0.00  0.00    +0.000 C 
ENDROOT
BRANCH   1   6
ATOM      4  C   UNL     1      48.298   6.263  14.352  0.00  0.00    +0.000 A 
ATOM      5  C   UNL     1      48.209   5.823  15.675  0.00  0.00    +0.000 A 
ATOM      6  C   UNL     1      49.164   6.221  16.619  0.00  0.00    +0.000 A 
ATOM      7  C   UNL     1      50.225   7.007  16.155  0.00  0.00    +0.000 A 
ATOM      8  C   UNL     1      50.245   7.415  14.836  0.00  0.00    +0.000 A 
ATOM      9  N   UNL     1      49.310   7.065  13.935  0.00  0.00    +0.000 NA
BRANCH   4  13
ATOM     10  C   UNL     1      45.416   5.151  11.354  0.00  0.00    +0.000 A 
ATOM     11  C   UNL     1      46.221   6.276  11.163  0.00  0.00    +0.000 A 
ATOM     12  C   UNL     1      47.161   6.636  12.131  0.00  0.00    +0.000 A 
ATOM     13  C   UNL     1      47.316   5.893  13.316  0.00  0.00    +0.000 A 
ATOM     14  C   UNL     1      46.497   4.758  13.479  0.00  0.00    +0.000 A 
ATOM     15  C   UNL     1      45.556   4.390  12.515  0.00  0.00    +0.000 A 
BRANCH  10  17
ATOM     16  N   UNL     1      43.672   4.487   9.557  0.00  0.00    +0.000 NA
ATOM     17  C   UNL     1      44.454   4.781  10.361  0.00  0.00    +0.000 C 
ENDBRANCH  10  17
ENDBRANCH   4  13
ENDBRANCH   1   6
BRANCH   1  18
ATOM     18  N   UNL     1      50.284   5.218  18.591  0.00  0.00    +0.000 N 
ATOM     19  H   UNL     1      50.811   5.796  19.237  0.00  0.00    +0.000 HD
BRANCH  18  20
ATOM     20  C   UNL     1      50.948   4.038  18.226  0.00  0.00    +0.000 A 
ATOM     21  C   UNL     1      50.374   2.954  17.562  0.00  0.00    +0.000 A 
ATOM     22  C   UNL     1      51.107   1.773  17.350  0.00  0.00    +0.000 A 
ATOM     23  C   UNL     1      52.439   1.675  17.770  0.00  0.00    +0.000 A 
ATOM     24  C   UNL     1      53.037   2.764  18.398  0.00  0.00    +0.000 A 
ATOM     25  C   UNL     1      52.293   3.923  18.626  0.00  0.00    +0.000 A 
BRANCH  23  26
ATOM     26  C   UNL     1      53.166   0.392  17.592  0.00  0.00    +0.000 C 
ATOM     27  N   UNL     1      52.912  -0.607  18.493  0.00  0.00    +0.000 N 
ATOM     28  O   UNL     1      53.967   0.230  16.682  0.00  0.00    +0.000 OA
ATOM     29  H   UNL     1      52.358  -0.489  19.326  0.00  0.00    +0.000 HD
ATOM     30  H   UNL     1      53.433  -1.468  18.383  0.00  0.00    +0.000 HD
ENDBRANCH  23  26
ENDBRANCH  18  20
ENDBRANCH   1  18
TORSDOF 6
ENDMDL
MODEL 5
REMARK VINA RESULT:    -6.357      4.270      6.407
REMARK INTER + INTRA:          -9.684
REMARK INTER:                  -8.763
REMARK INTRA:                  -0.920
REMARK UNBOUND:                -1.096
REMARK  Name = 
REMARK  6 active torsions:
REMARK  status: ('A' for Active; 'I' for Inactive)
REMARK    1  A    between atoms: C_2  and  C_3
REMARK    2  A    between atoms: C_6  and  C_7
REMARK    3  A    between atoms: C_9  and  C_10
REMARK    4  A    between atoms: C_10  and  N_11
REMARK    5  A    between atoms: N_11  and  C_12
REMARK    6  A    between atoms: C_15  and  C_16
REMARK                            x       y       z     vdW  Elec       q    Type
REMARK                         _______ _______ _______ _____ _____    ______ ____
ROOT
ATOM      1  C   UNL     1      47.897   7.981  12.831  0.00  0.00    +0.000 C 
ATOM      2  C   UNL     1      48.987   7.742  11.807  0.00  0.00    +0.000 C 
ATOM      3  C   UNL     1      48.440   9.117  11.962  0.00  0.00    +0.000 C 
ENDROOT
BRANCH   1   6
ATOM      4  C   UNL     1      49.510   6.980  16.162  0.00  0.00    +0.000 A 
ATOM      5  C   UNL     1      49.088   6.936  14.831  0.00  0.00    +0.000 A 
ATOM      6  C   UNL     1      48.309   7.971  14.300  0.00  0.00    +0.000 A 
ATOM      7  C   UNL     1      47.928   8.992  15.178  0.00  0.00    +0.000 A 
ATOM      8  C   UNL     1      48.390   8.980  16.479  0.00  0.00    +0.000 A 
ATOM      9  N   UNL     1      49.169   8.006  16.983  0.00  0.00    +0.000 NA
BRANCH   4  13
ATOM     10  C   UNL     1      51.982   3.942  17.948  0.00  0.00    +0.000 A 
ATOM     11  C   UNL     1      50.598   3.767  17.887  0.00  0.00    +0.000 A 
ATOM     12  C   UNL     1      49.793   4.749  17.304  0.00  0.00    +0.000 A 
ATOM     13  C   UNL     1      50.344   5.931  16.775  0.00  0.00    +0.000 A 
ATOM     14  C   UNL     1      51.744   6.078  16.843  0.00  0.00    +0.000 A 
ATOM     15  C   UNL     1      52.555   5.101  17.423  0.00  0.00    +0.000 A 
BRANCH  10  17
ATOM     16  N   UNL     1      53.469   2.117  19.027  0.00  0.00    +0.000 NA
ATOM     17  C   UNL     1      52.807   2.936  18.544  0.00  0.00    +0.000 C 
ENDBRANCH  10  17
ENDBRANCH   4  13
ENDBRANCH   1   6
BRANCH   1  18
ATOM     18  N   UNL     1      46.464   7.750  12.658  0.00  0.00    +0.000 N 
ATOM     19  H   UNL     1      45.866   8.533  12.899  0.00  0.00    +0.000 HD
BRANCH  18  20
ATOM     20  C   UNL     1      45.756   6.578  12.355  0.00  0.00    +0.000 A 
ATOM     21  C   UNL     1      45.312   5.635  13.282  0.00  0.00    +0.000 A 
ATOM     22  C   UNL     1      44.712   4.437  12.854  0.00  0.00    +0.000 A 
ATOM     23  C   UNL     1      44.518   4.183  11.491  0.00  0.00    +0.000 A 
ATOM     24  C   UNL     1      44.921   5.133  10.557  0.00  0.00    +0.000 A 
ATOM     25  C   UNL     1      45.537   6.309  10.991  0.00  0.00    +0.000 A 
BRANCH  23  26
ATOM     26  C   UNL     1      43.944   2.880  11.068  0.00  0.00    +0.000 C 
ATOM     27  N   UNL     1      44.524   2.252   9.999  0.00  0.00    +0.000 N 
ATOM     28  O   UNL     1      42.985   2.385  11.644  0.00  0.00    +0.000 OA
ATOM     29  H   UNL     1      45.233   2.668   9.416  0.00  0.00    +0.000 HD
ATOM     30  H   UNL     1      44.110   1.379   9.698  0.00  0.00    +0.000 HD
ENDBRANCH  23  26
ENDBRANCH  18  20
ENDBRANCH   1  18
TORSDOF 6
ENDMDL
