MODEL 1
REMARK VINA RESULT:    -7.607      0.000      0.000
REMARK INTER + INTRA:          -9.035
REMARK INTER:                  -8.941
REMARK INTRA:                  -0.094
REMARK UNBOUND:                -0.094
REMARK  Name = 
REMARK  3 active torsions:
REMARK  status: ('A' for Active; 'I' for Inactive)
REMARK    1  A    between atoms: C_2  and  C_4
REMARK    2  A    between atoms: N_8  and  C_9
REMARK    3  A    between atoms: C_9  and  C_10
REMARK                            x       y       z     vdW  Elec       q    Type
REMARK                         _______ _______ _______ _____ _____    ______ ____
ROOT
ATOM      1  C   UNL     1      47.827   5.797  14.301  0.00  0.00    +0.000 A 
ATOM      2  C   UNL     1      47.195   6.067  13.113  0.00  0.00    +0.000 A 
ATOM      3  N   UNL     1      46.445   5.148  12.462  0.00  0.00    +0.000 NA
ATOM      4  C   UNL     1      46.356   3.930  13.030  0.00  0.00    +0.000 A 
ATOM      5  N   UNL     1      45.561   2.947  12.447  0.00  0.00    +0.000 N 
ATOM      6  N   UNL     1      46.986   3.624  14.191  0.00  0.00    +0.000 NA
ATOM      7  N   UNL     1      47.733   4.571  14.848  0.00  0.00    +0.000 NA
ATOM      8  H   UNL     1      45.459   2.138  13.042  0.00  0.00    +0.000 HD
ENDROOT
BRANCH   1  10
ATOM      9  N   UNL     1      47.936   8.005  15.287  0.00  0.00    +0.000 N 
ATOM     10  C   UNL     1      48.595   6.837  15.014  0.00  0.00    +0.000 C 
ATOM     11  O   UNL     1      49.766   6.670  15.332  0.00  0.00    +0.000 OA
ATOM     12  H   UNL     1      48.433   8.750  15.757  0.00  0.00    +0.000 HD
ATOM     13  H   UNL     1      46.969   8.144  15.015  0.00  0.00    +0.000 HD
ENDBRANCH   1  10
BRANCH   5  14
ATOM     14  C   UNL     1      44.536   3.293  11.452  0.00  0.00    +0.000 C 
ATOM     15  C   UNL     1      43.436   4.270  11.845  0.00  0.00    +0.000 C 
ATOM     16  C   UNL     1      43.110   2.820  11.700  0.00  0.00    +0.000 C 
BRANCH  14  17
ATOM     17  C   UNL     1      45.041   3.263  10.003  0.00  0.00    +0.000 A 
ATOM     18  C   UNL     1      45.237   4.451   9.285  0.00  0.00    +0.000 A 
ATOM     19  C   UNL     1      45.797   4.418   8.009  0.00  0.00    +0.000 A 
ATOM     20  C   UNL     1      46.144   3.196   7.470  0.00  0.00    +0.000 A 
ATOM     21  F   UNL     1      46.708   3.126   6.258  0.00  0.00    +0.000 F 
ATOM     22  C   UNL     1      45.906   2.053   8.208  0.00  0.00    +0.000 A 
ATOM     23  N   UNL     1      45.360   2.057   9.451  0.00  0.00    +0.000 NA
ENDBRANCH  14  17
ENDBRANCH   5  14
TORSDOF 3
ENDMDL
MODEL 2
REMARK VINA RESULT:    -7.500      3.493      6.243
REMARK INTER + INTRA:          -8.909
REMARK INTER:                  -9.436
REMARK INTRA:                   0.527
REMARK UNBOUND:                -0.094
REMARK  Name = 
REMARK  3 active torsions:
REMARK  status: ('A' for Active; 'I' for Inactive)
REMARK    1  A    between atoms: C_2  and  C_4
REMARK    2  A    between atoms: N_8  and  C_9
REMARK    3  A    between atoms: C_9  and  C_10
REMARK                            x       y       z     vdW  Elec       q    Type
REMARK                         _______ _______ _______ _____ _____    ______ ____
ROOT
ATOM      1  C   UNL     1      46.475   2.594   7.607  0.00  0.00    +0.000 A 
ATOM      2  C   UNL     1      46.088   3.863   7.958  0.00  0.00    +0.000 A 
ATOM      3  N   UNL     1      45.279   4.112   9.012  0.00  0.00    +0.000 NA
ATOM      4  C   UNL     1      44.848   3.041   9.708  0.00  0.00    +0.000 A 
ATOM      5  N   UNL     1      44.053   3.220  10.837  0.00  0.00    +0.000 N 
ATOM      6  N   UNL     1      45.194   1.774   9.374  0.00  0.00    +0.000 NA
ATOM      7  N   UNL     1      46.027   1.537   8.309  0.00  0.00    +0.000 NA
ATOM      8  H   UNL     1      43.923   2.360  11.349  0.00  0.00    +0.000 HD
ENDROOT
BRANCH   1  10
ATOM      9  N   UNL     1      47.254   3.165   5.387  0.00  0.00    +0.000 N 
ATOM     10  C   UNL     1      47.403   2.359   6.482  0.00  0.00    +0.000 C 
ATOM     11  O   UNL     1      48.253   1.477   6.521  0.00  0.00    +0.000 OA
ATOM     12  H   UNL     1      47.857   3.023   4.587  0.00  0.00    +0.000 HD
ATOM     13  H   UNL     1      46.544   3.888   5.353  0.00  0.00    +0.000 HD
ENDBRANCH   1  10
BRANCH   5  14
ATOM     14  C   UNL     1      43.972   4.525  11.508  0.00  0.00    +0.000 C 
ATOM     15  C   UNL     1      42.617   5.009  12.003  0.00  0.00    +0.000 C 
ATOM     16  C   UNL     1      43.228   5.648  10.800  0.00  0.00    +0.000 C 
BRANCH  14  17
ATOM     17  C   UNL     1      45.242   4.905  12.281  0.00  0.00    +0.000 A 
ATOM     18  C   UNL     1      46.093   5.916  11.813  0.00  0.00    +0.000 A 
ATOM     19  C   UNL     1      47.185   6.327  12.575  0.00  0.00    +0.000 A 
ATOM     20  C   UNL     1      47.410   5.714  13.792  0.00  0.00    +0.000 A 
ATOM     21  F   UNL     1      48.433   6.100  14.565  0.00  0.00    +0.000 F 
ATOM     22  C   UNL     1      46.558   4.707  14.195  0.00  0.00    +0.000 A 
ATOM     23  N   UNL     1      45.490   4.285  13.471  0.00  0.00    +0.000 NA
ENDBRANCH  14  17
ENDBRANCH   5  14
TORSDOF 3
ENDMDL
MODEL 3
REMARK VINA RESULT:    -6.615      1.429      1.790
REMARK INTER + INTRA:          -7.869
REMARK INTER:                  -7.901
REMARK INTRA:                   0.032
REMARK UNBOUND:                -0.094
REMARK  Name = 
REMARK  3 active torsions:
REMARK  status: ('A' for Active; 'I' for Inactive)
REMARK    1  A    between atoms: C_2  and  C_4
REMARK    2  A    between atoms: N_8  and  C_9
REMARK    3  A    between atoms: C_9  and  C_10
REMARK                            x       y       z     vdW  Elec       q    Type
REMARK                         _______ _______ _______ _____ _____    ______ ____
ROOT
ATOM      1  C   UNL     1      48.704   6.744  14.330  0.00  0.00    +0.000 A 
ATOM      2  C   UNL     1      47.956   6.897  13.190  0.00  0.00    +0.000 A 
ATOM      3  N   UNL     1      46.967   6.041  12.849  0.00  0.00    +0.000 NA
ATOM      4  C   UNL     1      46.751   5.004  13.681  0.00  0.00    +0.000 A 
ATOM      5  N   UNL     1      45.716   4.108  13.424  0.00  0.00    +0.000 N 
ATOM      6  N   UNL     1      47.487   4.812  14.804  0.00  0.00    +0.000 NA
ATOM      7  N   UNL     1      48.480   5.697  15.145  0.00  0.00    +0.000 NA
ATOM      8  H   UNL     1      45.566   3.472  14.193  0.00  0.00    +0.000 HD
ENDROOT
BRANCH   1  10
ATOM      9  N   UNL     1      49.545   9.014  14.286  0.00  0.00    +0.000 N 
ATOM     10  C   UNL     1      49.743   7.726  14.704  0.00  0.00    +0.000 C 
ATOM     11  O   UNL     1      50.737   7.402  15.341  0.00  0.00    +0.000 OA
ATOM     12  H   UNL     1      50.243   9.713  14.504  0.00  0.00    +0.000 HD
ATOM     13  H   UNL     1      48.726   9.278  13.751  0.00  0.00    +0.000 HD
ENDBRANCH   1  10
BRANCH   5  14
ATOM     14  C   UNL     1      44.629   4.453  12.498  0.00  0.00    +0.000 C 
ATOM     15  C   UNL     1      43.772   5.674  12.798  0.00  0.00    +0.000 C 
ATOM     16  C   UNL     1      43.196   4.310  12.992  0.00  0.00    +0.000 C 
BRANCH  14  17
ATOM     17  C   UNL     1      44.908   4.062  11.040  0.00  0.00    +0.000 A 
ATOM     18  C   UNL     1      44.700   2.749  10.595  0.00  0.00    +0.000 A 
ATOM     19  C   UNL     1      44.854   2.430   9.247  0.00  0.00    +0.000 A 
ATOM     20  C   UNL     1      45.220   3.429   8.368  0.00  0.00    +0.000 A 
ATOM     21  F   UNL     1      45.352   3.167   7.062  0.00  0.00    +0.000 F 
ATOM     22  C   UNL     1      45.438   4.700   8.861  0.00  0.00    +0.000 A 
ATOM     23  N   UNL     1      45.298   5.037  10.168  0.00  0.00    +0.000 NA
ENDBRANCH  14  17
ENDBRANCH   5  14
TORSDOF 3
ENDMDL
MODEL 4
REMARK VINA RESULT:    -6.565      1.527      1.596
REMARK INTER + INTRA:          -7.810
REMARK INTER:                  -8.289
REMARK INTRA:                   0.479
REMARK UNBOUND:                -0.094
REMARK  Name = 
REMARK  3 active torsions:
REMARK  status: ('A' for Active; 'I' for Inactive)
REMARK    1  A    between atoms: C_2  and  C_4
REMARK    2  A    between atoms: N_8  and  C_9
REMARK    3  A    between atoms: C_9  and  C_10
REMARK                            x       y       z     vdW  Elec       q    Type
REMARK                         _______ _______ _______ _____ _____    ______ ____
ROOT
ATOM      1  C   UNL     1      48.215   5.035  15.836  0.00  0.00    +0.000 A 
ATOM      2  C   UNL     1      47.539   5.754  14.882  0.00  0.00    +0.000 A 
ATOM      3  N   UNL     1      46.789   5.166  13.923  0.00  0.00    +0.000 NA
ATOM      4  C   UNL     1      46.743   3.819  13.934  0.00  0.00    +0.000 A 
ATOM      5  N   UNL     1      45.950   3.143  13.010  0.00  0.00    +0.000 N 
ATOM      6  N   UNL     1      47.416   3.079  14.849  0.00  0.00    +0.000 NA
ATOM      7  N   UNL     1      48.164   3.690  15.825  0.00  0.00    +0.000 NA
ATOM      8  H   UNL     1      45.885   2.157  13.217  0.00  0.00    +0.000 HD
ENDROOT
BRANCH   1  10
ATOM      9  N   UNL     1      50.310   5.928  16.655  0.00  0.00    +0.000 N 
ATOM     10  C   UNL     1      48.983   5.708  16.903  0.00  0.00    +0.000 C 
ATOM     11  O   UNL     1      48.463   6.039  17.961  0.00  0.00    +0.000 OA
ATOM     12  H   UNL     1      50.876   6.369  17.368  0.00  0.00    +0.000 HD
ATOM     13  H   UNL     1      50.741   5.646  15.782  0.00  0.00    +0.000 HD
ENDBRANCH   1  10
BRANCH   5  14
ATOM     14  C   UNL     1      44.887   3.838  12.271  0.00  0.00    +0.000 C 
ATOM     15  C   UNL     1      44.243   5.066  12.899  0.00  0.00    +0.000 C 
ATOM     16  C   UNL     1      43.474   3.788  12.836  0.00  0.00    +0.000 C 
BRANCH  14  17
ATOM     17  C   UNL     1      45.034   3.755  10.746  0.00  0.00    +0.000 A 
ATOM     18  C   UNL     1      45.412   4.880   9.998  0.00  0.00    +0.000 A 
ATOM     19  C   UNL     1      45.647   4.768   8.629  0.00  0.00    +0.000 A 
ATOM     20  C   UNL     1      45.493   3.534   8.030  0.00  0.00    +0.000 A 
ATOM     21  F   UNL     1      45.735   3.382   6.721  0.00  0.00    +0.000 F 
ATOM     22  C   UNL     1      45.095   2.464   8.805  0.00  0.00    +0.000 A 
ATOM     23  N   UNL     1      44.857   2.546  10.139  0.00  0.00    +0.000 NA
ENDBRANCH  14  17
ENDBRANCH   5  14
TORSDOF 3
ENDMDL
MODEL 5
REMARK VINA RESULT:    -6.262      2.034      2.618
REMARK INTER + INTRA:          -7.454
REMARK INTER:                  -8.502
REMARK INTRA:                   1.048
REMARK UNBOUND:                -0.094
REMARK  Name = 
REMARK  3 active torsions:
REMARK  status: ('A' for Active; 'I' for Inactive)
REMARK    1  A    between atoms: C_2  and  C_4
REMARK    2  A    between atoms: N_8  and  C_9
REMARK    3  A    between atoms: C_9  and  C_10
REMARK                            x       y       z     vdW  Elec       q    Type
REMARK                         _______ _______ _______ _____ _____    ______ ____
ROOT
ATOM      1  C   UNL     1      46.247   8.042  12.709  0.00  0.00    +0.000 A 
ATOM      2  C   UNL     1      46.330   6.706  13.018  0.00  0.00    +0.000 A 
ATOM      3  N   UNL     1      45.586   5.767  12.392  0.00  0.00    +0.000 NA
ATOM      4  C   UNL     1      44.731   6.205  11.447  0.00  0.00    +0.000 A 
ATOM      5  N   UNL     1      43.968   5.292  10.723  0.00  0.00    +0.000 N 
ATOM      6  N   UNL     1      44.609   7.518  11.134  0.00  0.00    +0.000 NA
ATOM      7  N   UNL     1      45.381   8.460  11.768  0.00  0.00    +0.000 NA
ATOM      8  H   UNL     1      43.486   5.729   9.952  0.00  0.00    +0.000 HD
ENDROOT
BRANCH   1  10
ATOM      9  N   UNL     1      47.275   8.902  14.724  0.00  0.00    +0.000 N 
ATOM     10  C   UNL     1      47.112   9.038  13.373  0.00  0.00    +0.000 C 
ATOM     11  O   UNL     1      47.643   9.948  12.749  0.00  0.00    +0.000 OA
ATOM     12  H   UNL     1      47.844   9.576  15.220  0.00  0.00    +0.000 HD
ATOM     13  H   UNL     1      46.827   8.154  15.241  0.00  0.00    +0.000 HD
ENDBRANCH   1  10
BRANCH   5  14
ATOM     14  C   UNL     1      44.321   3.866  10.691  0.00  0.00    +0.000 C 
ATOM     15  C   UNL     1      43.393   2.867  11.368  0.00  0.00    +0.000 C 
ATOM     16  C   UNL     1      44.705   3.195  12.001  0.00  0.00    +0.000 C 
BRANCH  14  17
ATOM     17  C   UNL     1      45.099   3.448   9.435  0.00  0.00    +0.000 A 
ATOM     18  C   UNL     1      45.653   4.410   8.579  0.00  0.00    +0.000 A 
ATOM     19  C   UNL     1      46.448   4.020   7.502  0.00  0.00    +0.000 A 
ATOM     20  C   UNL     1      46.668   2.673   7.297  0.00  0.00    +0.000 A 
ATOM     21  F   UNL     1      47.447   2.261   6.289  0.00  0.00    +0.000 F 
ATOM     22  C   UNL     1      46.079   1.765   8.153  0.00  0.00    +0.000 A 
ATOM     23  N   UNL     1      45.299   2.118   9.207  0.00  0.00    +0.000 NA
ENDBRANCH  14  17
ENDBRANCH   5  14
TORSDOF 3
ENDMDL
MODEL 6
REMARK VINA RESULT:    -5.759      4.480      7.623
REMARK INTER + INTRA:          -6.863
REMARK INTER:                  -6.887
REMARK INTRA:                   0.024
REMARK UNBOUND:                -0.094
REMARK  Name = 
REMARK  3 active torsions:
REMARK  status: ('A' for Active; 'I' for Inactive)
REMARK    1  A    between atoms: C_2  and  C_4
REMARK    2  A    between atoms: N_8  and  C_9
REMARK    3  A    between atoms: C_9  and  C_10
REMARK                            x       y       z     vdW  Elec       q    Type
REMARK                         _______ _______ _______ _____ _____    ______ ____
ROOT
ATOM      1  C   UNL     1      46.003   4.529  12.708  0.00  0.00    +0.000 A 
ATOM      2  C   UNL     1      46.413   3.645  13.675  0.00  0.00    +0.000 A 
ATOM      3  N   UNL     1      47.167   4.020  14.733  0.00  0.00    +0.000 NA
ATOM      4  C   UNL     1      47.519   5.320  14.792  0.00  0.00    +0.000 A 
ATOM      5  N   UNL     1      48.251   5.793  15.878  0.00  0.00    +0.000 N 
ATOM      6  N   UNL     1      47.150   6.214  13.843  0.00  0.00    +0.000 NA
ATOM      7  N   UNL     1      46.373   5.821  12.781  0.00  0.00    +0.000 NA
ATOM      8  H   UNL     1      48.321   6.800  15.878  0.00  0.00    +0.000 HD
ENDROOT
BRANCH   1  10
ATOM      9  N   UNL     1      44.555   2.866  11.711  0.00  0.00    +0.000 N 
ATOM     10  C   UNL     1      45.136   4.099  11.593  0.00  0.00    +0.000 C 
ATOM     11  O   UNL     1      44.957   4.802  10.607  0.00  0.00    +0.000 OA
ATOM     12  H   UNL     1      43.970   2.526  10.959  0.00  0.00    +0.000 HD
ATOM     13  H   UNL     1      44.711   2.281  12.524  0.00  0.00    +0.000 HD
ENDBRANCH   1  10
BRANCH   5  14
ATOM     14  C   UNL     1      48.338   5.023  17.127  0.00  0.00    +0.000 C 
ATOM     15  C   UNL     1      47.048   4.599  17.815  0.00  0.00    +0.000 C 
ATOM     16  C   UNL     1      47.871   5.692  18.412  0.00  0.00    +0.000 C 
BRANCH  14  17
ATOM     17  C   UNL     1      49.577   4.122  17.217  0.00  0.00    +0.000 A 
ATOM     18  C   UNL     1      50.820   4.646  17.604  0.00  0.00    +0.000 A 
ATOM     19  C   UNL     1      51.913   3.801  17.787  0.00  0.00    +0.000 A 
ATOM     20  C   UNL     1      51.746   2.448  17.572  0.00  0.00    +0.000 A 
ATOM     21  F   UNL     1      52.767   1.602  17.762  0.00  0.00    +0.000 F 
ATOM     22  C   UNL     1      50.510   1.987  17.167  0.00  0.00    +0.000 A 
ATOM     23  N   UNL     1      49.430   2.787  16.980  0.00  0.00    +0.000 NA
ENDBRANCH  14  17
ENDBRANCH   5  14
TORSDOF 3
ENDMDL
MODEL 7
REMARK VINA RESULT:    -5.704      3.419      4.662
REMARK INTER + INTRA:          -6.798
REMARK INTER:                  -6.730
REMARK INTRA:                  -0.068
REMARK UNBOUND:                -0.094
REMARK  Name = 
REMARK  3 active torsions:
REMARK  status: ('A' for Active; 'I' for Inactive)
REMARK    1  A    between atoms: C_2  and  C_4
REMARK    2  A    between atoms: N_8  and  C_9
REMARK    3  A    between atoms: C_9  and  C_10
REMARK                            x       y       z     vdW  Elec       q    Type
REMARK                         _______ _______ _______ _____ _____    ______ ____
ROOT
ATOM      1  C   UNL     1      48.144   3.856  16.522  0.00  0.00    +0.000 A 
ATOM      2  C   UNL     1      47.638   5.056  16.088  0.00  0.00    +0.000 A 
ATOM      3  N   UNL     1      47.048   5.204  14.881  0.00  0.00    +0.000 NA
ATOM      4  C   UNL     1      46.989   4.108  14.099  0.00  0.00    +0.000 A 
ATOM      5  N   UNL     1      46.351   4.168  12.863  0.00  0.00    +0.000 N 
ATOM      6  N   UNL     1      47.499   2.914  14.488  0.00  0.00    +0.000 NA
ATOM      7  N   UNL     1      48.083   2.775  15.723  0.00  0.00    +0.000 NA
ATOM      8  H   UNL     1      46.245   3.255  12.446  0.00  0.00    +0.000 HD
ENDROOT
BRANCH   1  10
ATOM      9  N   UNL     1      49.608   2.677  18.046  0.00  0.00    +0.000 N 
ATOM     10  C   UNL     1      48.734   3.714  17.868  0.00  0.00    +0.000 C 
ATOM     11  O   UNL     1      48.445   4.475  18.783  0.00  0.00    +0.000 OA
ATOM     12  H   UNL     1      50.020   2.533  18.958  0.00  0.00    +0.000 HD
ATOM     13  H   UNL     1      49.840   2.042  17.290  0.00  0.00    +0.000 HD
ENDBRANCH   1  10
BRANCH   5  14
ATOM     14  C   UNL     1      45.428   5.265  12.540  0.00  0.00    +0.000 C 
ATOM     15  C   UNL     1      44.007   5.208  13.084  0.00  0.00    +0.000 C 
ATOM     16  C   UNL     1      44.245   4.959  11.631  0.00  0.00    +0.000 C 
BRANCH  14  17
ATOM     17  C   UNL     1      46.117   6.624  12.358  0.00  0.00    +0.000 A 
ATOM     18  C   UNL     1      45.537   7.797  12.863  0.00  0.00    +0.000 A 
ATOM     19  C   UNL     1      46.221   9.009  12.787  0.00  0.00    +0.000 A 
ATOM     20  C   UNL     1      47.471   9.028  12.201  0.00  0.00    +0.000 A 
ATOM     21  F   UNL     1      48.170  10.168  12.133  0.00  0.00    +0.000 F 
ATOM     22  C   UNL     1      47.986   7.851  11.697  0.00  0.00    +0.000 A 
ATOM     23  N   UNL     1      47.340   6.658  11.755  0.00  0.00    +0.000 NA
ENDBRANCH  14  17
ENDBRANCH   5  14
TORSDOF 3
ENDMDL
MODEL 8
REMARK VINA RESULT:    -5.605      2.886      3.565
REMARK INTER + INTRA:          -6.681
REMARK INTER:                  -7.338
REMARK INTRA:                   0.657
REMARK UNBOUND:                -0.094
REMARK  Name = 
REMARK  3 active torsions:
REMARK  status: ('A' for Active; 'I' for Inactive)
REMARK    1  A    between atoms: C_2  and  C_4
REMARK    2  A    between atoms: N_8  and  C_9
REMARK    3  A    between atoms: C_9  and  C_10
REMARK                            x       y       z     vdW  Elec       q    Type
REMARK                         _______ _______ _______ _____ _____    ______ ____
ROOT
ATOM      1  C   UNL     1      46.806   9.429  12.136  0.00  0.00    +0.000 A 
ATOM      2  C   UNL     1      47.025   8.160  12.612  0.00  0.00    +0.000 A 
ATOM      3  N   UNL     1      46.090   7.186  12.543  0.00  0.00    +0.000 NA
ATOM      4  C   UNL     1      44.907   7.522  11.993  0.00  0.00    +0.000 A 
ATOM      5  N   UNL     1      43.912   6.560  11.841  0.00  0.00    +0.000 N 
ATOM      6  N   UNL     1      44.651   8.772  11.534  0.00  0.00    +0.000 NA
ATOM      7  N   UNL     1      45.615   9.748  11.598  0.00  0.00    +0.000 NA
ATOM      8  H   UNL     1      43.140   6.898  11.285  0.00  0.00    +0.000 HD
ENDROOT
BRANCH   1  10
ATOM      9  N   UNL     1      47.894  11.263  13.282  0.00  0.00    +0.000 N 
ATOM     10  C   UNL     1      47.866  10.456  12.177  0.00  0.00    +0.000 C 
ATOM     11  O   UNL     1      48.669  10.591  11.262  0.00  0.00    +0.000 OA
ATOM     12  H   UNL     1      48.593  11.993  13.339  0.00  0.00    +0.000 HD
ATOM     13  H   UNL     1      47.223  11.156  14.034  0.00  0.00    +0.000 HD
ENDBRANCH   1  10
BRANCH   5  14
ATOM     14  C   UNL     1      44.226   5.126  11.915  0.00  0.00    +0.000 C 
ATOM     15  C   UNL     1      43.463   4.260  12.907  0.00  0.00    +0.000 C 
ATOM     16  C   UNL     1      44.890   4.604  13.181  0.00  0.00    +0.000 C 
BRANCH  14  17
ATOM     17  C   UNL     1      44.690   4.523  10.582  0.00  0.00    +0.000 A 
ATOM     18  C   UNL     1      44.201   3.283  10.145  0.00  0.00    +0.000 A 
ATOM     19  C   UNL     1      44.545   2.795   8.886  0.00  0.00    +0.000 A 
ATOM     20  C   UNL     1      45.379   3.552   8.088  0.00  0.00    +0.000 A 
ATOM     21  F   UNL     1      45.712   3.128   6.862  0.00  0.00    +0.000 F 
ATOM     22  C   UNL     1      45.855   4.753   8.576  0.00  0.00    +0.000 A 
ATOM     23  N   UNL     1      45.537   5.250   9.798  0.00  0.00    +0.000 NA
ENDBRANCH  14  17
ENDBRANCH   5  14
TORSDOF 3
ENDMDL
MODEL 9
REMARK VINA RESULT:    -5.388      4.084      6.856
REMARK INTER + INTRA:          -6.427
REMARK INTER:                  -6.244
REMARK INTRA:                  -0.182
REMARK UNBOUND:                -0.094
REMARK  Name = 
REMARK  3 active torsions:
REMARK  status: ('A' for Active; 'I' for Inactive)
REMARK    1  A    between atoms: C_2  and  C_4
REMARK    2  A    between atoms: N_8  and  C_9
REMARK    3  A    between atoms: C_9  and  C_10
REMARK                            x       y       z     vdW  Elec       q    Type
REMARK                         _______ _______ _______ _____ _____    ______ ____
ROOT
ATOM      1  C   UNL     1      44.625   5.193  10.979  0.00  0.00    +0.000 A 
ATOM      2  C   UNL     1      45.914   5.632  10.809  0.00  0.00    +0.000 A 
ATOM      3  N   UNL     1      46.496   6.522  11.643  0.00  0.00    +0.000 NA
ATOM      4  C   UNL     1      45.740   6.981  12.660  0.00  0.00    +0.000 A 
ATOM      5  N   UNL     1      46.285   7.861  13.591  0.00  0.00    +0.000 N 
ATOM      6  N   UNL     1      44.457   6.585  12.843  0.00  0.00    +0.000 NA
ATOM      7  N   UNL     1      43.882   5.670  11.996  0.00  0.00    +0.000 NA
ATOM      8  H   UNL     1      45.670   8.010  14.377  0.00  0.00    +0.000 HD
ENDROOT
BRANCH   1  10
ATOM      9  N   UNL     1      44.070   4.455   8.742  0.00  0.00    +0.000 N 
ATOM     10  C   UNL     1      44.034   4.180  10.082  0.00  0.00    +0.000 C 
ATOM     11  O   UNL     1      43.525   3.153  10.515  0.00  0.00    +0.000 OA
ATOM     12  H   UNL     1      43.658   3.795   8.095  0.00  0.00    +0.000 HD
ATOM     13  H   UNL     1      44.483   5.309   8.386  0.00  0.00    +0.000 HD
ENDBRANCH   1  10
BRANCH   5  14
ATOM     14  C   UNL     1      47.741   8.019  13.722  0.00  0.00    +0.000 C 
ATOM     15  C   UNL     1      48.563   6.836  14.211  0.00  0.00    +0.000 C 
ATOM     16  C   UNL     1      48.339   7.998  15.121  0.00  0.00    +0.000 C 
BRANCH  14  17
ATOM     17  C   UNL     1      48.352   9.004  12.715  0.00  0.00    +0.000 A 
ATOM     18  C   UNL     1      49.592   8.742  12.115  0.00  0.00    +0.000 A 
ATOM     19  C   UNL     1      50.087   9.587  11.124  0.00  0.00    +0.000 A 
ATOM     20  C   UNL     1      49.336  10.684  10.755  0.00  0.00    +0.000 A 
ATOM     21  F   UNL     1      49.766  11.505   9.788  0.00  0.00    +0.000 F 
ATOM     22  C   UNL     1      48.134  10.912  11.394  0.00  0.00    +0.000 A 
ATOM     23  N   UNL     1      47.630  10.107  12.363  0.00  0.00    +0.000 NA
ENDBRANCH  14  17
ENDBRANCH   5  14
TORSDOF 3
ENDMDL
