MODEL 1
REMARK VINA RESULT:    -7.011      0.000      0.000
REMARK INTER + INTRA:         -11.942
REMARK INTER:                 -11.110
REMARK INTRA:                  -0.832
REMARK UNBOUND:                -0.832
REMARK  Name = 
REMARK  11 active torsions:
REMARK  status: ('A' for Active; 'I' for Inactive)
REMARK    1  A    between atoms: C_1  and  O_2
REMARK    2  A    between atoms: O_2  and  C_3
REMARK    3  A    between atoms: C_3  and  C_4
REMARK    4  A    between atoms: C_4  and  N_5
REMARK    5  A    between atoms: C_4  and  C_21
REMARK    6  A    between atoms: N_5  and  C_6
REMARK    7  A    between atoms: C_6  and  C_7
REMARK    8  A    between atoms: C_10  and  C_11
REMARK    9  A    between atoms: C_11  and  N_12
REMARK   10  A    between atoms: N_12  and  C_13
REMARK   11  A    between atoms: C_13  and  C_14
REMARK                            x       y       z     vdW  Elec       q    Type
REMARK                         _______ _______ _______ _____ _____    ______ ____
ROOT
ATOM      1  N   UNL     1      48.837   5.161  15.749  0.00  0.00    +0.000 NA
ATOM      2  H   UNL     1      49.795   5.002  15.431  0.00  0.00    +0.000 HD
ENDROOT
BRANCH   1   3
ATOM      3  C   UNL     1      48.903   5.488  17.189  0.00  0.00    +0.000 C 
BRANCH   3   4
ATOM      4  C   UNL     1      50.256   4.964  17.661  0.00  0.00    +0.000 A 
ATOM      5  C   UNL     1      51.213   5.726  18.314  0.00  0.00    +0.000 A 
ATOM      6  S   UNL     1      52.619   4.852  18.726  0.00  0.00    +0.000 S 
ATOM      7  C   UNL     1      51.982   3.411  18.083  0.00  0.00    +0.000 A 
ATOM      8  N   UNL     1      52.676   2.243  18.156  0.00  0.00    +0.000 NA
ATOM      9  C   UNL     1      52.063   1.231  17.640  0.00  0.00    +0.000 A 
ATOM     10  N   UNL     1      50.826   1.282  17.048  0.00  0.00    +0.000 N 
ATOM     11  C   UNL     1      50.085   2.439  16.949  0.00  0.00    +0.000 A 
ATOM     12  O   UNL     1      48.975   2.443  16.422  0.00  0.00    +0.000 OA
ATOM     13  C   UNL     1      50.727   3.603  17.533  0.00  0.00    +0.000 A 
ATOM     14  H   UNL     1      50.405   0.451  16.661  0.00  0.00    +0.000 HD
ENDBRANCH   3   4
BRANCH   3  15
ATOM     15  C   UNL     1      47.723   4.924  18.029  0.00  0.00    +0.000 C 
BRANCH  15  17
ATOM     16  C   UNL     1      47.578   6.491  19.788  0.00  0.00    +0.000 C 
ATOM     17  O   UNL     1      47.948   5.168  19.424  0.00  0.00    +0.000 OA
ENDBRANCH  15  17
ENDBRANCH   3  15
ENDBRANCH   1   3
BRANCH   1  18
ATOM     18  C   UNL     1      48.273   6.242  14.945  0.00  0.00    +0.000 C 
BRANCH  18  19
ATOM     19  C   UNL     1      47.124   5.775  14.093  0.00  0.00    +0.000 A 
ATOM     20  C   UNL     1      46.569   6.595  13.109  0.00  0.00    +0.000 A 
ATOM     21  C   UNL     1      45.452   6.164  12.396  0.00  0.00    +0.000 A 
ATOM     22  C   UNL     1      44.905   4.918  12.690  0.00  0.00    +0.000 A 
ATOM     23  N   UNL     1      45.431   4.096  13.634  0.00  0.00    +0.000 NA
ATOM     24  C   UNL     1      46.523   4.538  14.303  0.00  0.00    +0.000 A 
BRANCH  22  25
ATOM     25  C   UNL     1      43.634   4.463  11.995  0.00  0.00    +0.000 C 
BRANCH  25  26
ATOM     26  N   UNL     1      43.753   3.148  11.340  0.00  0.00    +0.000 NA
ATOM     27  H   UNL     1      42.889   3.027  10.806  0.00  0.00    +0.000 HD
BRANCH  26  28
ATOM     28  C   UNL     1      44.889   3.092  10.410  0.00  0.00    +0.000 C 
BRANCH  28  29
ATOM     29  C   UNL     1      44.484   2.597   8.996  0.00  0.00    +0.000 C 
ATOM     30  C   UNL     1      44.858   3.534   7.854  0.00  0.00    +0.000 C 
ATOM     31  C   UNL     1      46.290   3.164   7.513  0.00  0.00    +0.000 C 
ATOM     32  C   UNL     1      46.450   1.730   7.994  0.00  0.00    +0.000 C 
ATOM     33  N   UNL     1      45.179   1.354   8.615  0.00  0.00    +0.000 NA
ATOM     34  H   UNL     1      45.334   0.752   9.421  0.00  0.00    +0.000 HD
ENDBRANCH  28  29
ENDBRANCH  26  28
ENDBRANCH  25  26
ENDBRANCH  22  25
ENDBRANCH  18  19
ENDBRANCH   1  18
TORSDOF 10
ENDMDL
MODEL 2
REMARK VINA RESULT:    -6.810      2.756      4.081
REMARK INTER + INTRA:         -11.623
REMARK INTER:                 -10.411
REMARK INTRA:                  -1.212
REMARK UNBOUND:                -0.832
REMARK  Name = 
REMARK  11 active torsions:
REMARK  status: ('A' for Active; 'I' for Inactive)
REMARK    1  A    between atoms: C_1  and  O_2
REMARK    2  A    between atoms: O_2  and  C_3
REMARK    3  A    between atoms: C_3  and  C_4
REMARK    4  A    between atoms: C_4  and  N_5
REMARK    5  A    between atoms: C_4  and  C_21
REMARK    6  A    between atoms: N_5  and  C_6
REMARK    7  A    between atoms: C_6  and  C_7
REMARK    8  A    between atoms: C_10  and  C_11
REMARK    9  A    between atoms: C_11  and  N_12
REMARK   10  A    between atoms: N_12  and  C_13
REMARK   11  A    between atoms: C_13  and  C_14
REMARK                            x       y       z     vdW  Elec       q    Type
REMARK                         _______ _______ _______ _____ _____    ______ ____
ROOT
ATOM      1  N   UNL     1      48.599   6.521  14.270  0.00  0.00    +0.000 NA
ATOM      2  H   UNL     1      49.099   5.985  13.557  0.00  0.00    +0.000 HD
ENDROOT
BRANCH   1   3
ATOM      3  C   UNL     1      49.595   7.371  14.954  0.00  0.00    +0.000 C 
BRANCH   3   4
ATOM      4  C   UNL     1      48.990   7.684  16.319  0.00  0.00    +0.000 A 
ATOM      5  C   UNL     1      48.492   8.923  16.696  0.00  0.00    +0.000 A 
ATOM      6  S   UNL     1      47.869   8.955  18.284  0.00  0.00    +0.000 S 
ATOM      7  C   UNL     1      48.204   7.302  18.512  0.00  0.00    +0.000 A 
ATOM      8  N   UNL     1      47.866   6.671  19.668  0.00  0.00    +0.000 NA
ATOM      9  C   UNL     1      48.169   5.416  19.693  0.00  0.00    +0.000 A 
ATOM     10  N   UNL     1      48.787   4.738  18.673  0.00  0.00    +0.000 N 
ATOM     11  C   UNL     1      49.149   5.333  17.484  0.00  0.00    +0.000 A 
ATOM     12  O   UNL     1      49.691   4.690  16.587  0.00  0.00    +0.000 OA
ATOM     13  C   UNL     1      48.812   6.743  17.402  0.00  0.00    +0.000 A 
ATOM     14  H   UNL     1      48.997   3.755  18.760  0.00  0.00    +0.000 HD
ENDBRANCH   3   4
BRANCH   3  15
ATOM     15  C   UNL     1      49.987   8.656  14.172  0.00  0.00    +0.000 C 
BRANCH  15  17
ATOM     16  C   UNL     1      50.864   8.204  12.028  0.00  0.00    +0.000 C 
ATOM     17  O   UNL     1      51.171   8.423  13.398  0.00  0.00    +0.000 OA
ENDBRANCH  15  17
ENDBRANCH   3  15
ENDBRANCH   1   3
BRANCH   1  18
ATOM     18  C   UNL     1      47.556   7.292  13.599  0.00  0.00    +0.000 C 
BRANCH  18  19
ATOM     19  C   UNL     1      46.645   6.420  12.778  0.00  0.00    +0.000 A 
ATOM     20  C   UNL     1      45.985   5.327  13.341  0.00  0.00    +0.000 A 
ATOM     21  C   UNL     1      45.217   4.490  12.535  0.00  0.00    +0.000 A 
ATOM     22  C   UNL     1      45.132   4.760  11.172  0.00  0.00    +0.000 A 
ATOM     23  N   UNL     1      45.755   5.822  10.600  0.00  0.00    +0.000 NA
ATOM     24  C   UNL     1      46.486   6.624  11.411  0.00  0.00    +0.000 A 
BRANCH  22  25
ATOM     25  C   UNL     1      44.379   3.813  10.254  0.00  0.00    +0.000 C 
BRANCH  25  26
ATOM     26  N   UNL     1      44.079   4.382   8.929  0.00  0.00    +0.000 NA
ATOM     27  H   UNL     1      44.536   5.297   8.912  0.00  0.00    +0.000 HD
BRANCH  26  28
ATOM     28  C   UNL     1      44.628   3.566   7.837  0.00  0.00    +0.000 C 
BRANCH  28  29
ATOM     29  C   UNL     1      46.176   3.463   7.883  0.00  0.00    +0.000 C 
ATOM     30  C   UNL     1      46.728   2.044   7.837  0.00  0.00    +0.000 C 
ATOM     31  C   UNL     1      46.805   1.714   6.359  0.00  0.00    +0.000 C 
ATOM     32  C   UNL     1      46.892   3.061   5.660  0.00  0.00    +0.000 C 
ATOM     33  N   UNL     1      46.815   4.080   6.706  0.00  0.00    +0.000 NA
ATOM     34  H   UNL     1      46.294   4.893   6.383  0.00  0.00    +0.000 HD
ENDBRANCH  28  29
ENDBRANCH  26  28
ENDBRANCH  25  26
ENDBRANCH  22  25
ENDBRANCH  18  19
ENDBRANCH   1  18
TORSDOF 10
ENDMDL
MODEL 3
REMARK VINA RESULT:    -6.385      3.541      8.314
REMARK INTER + INTRA:         -10.950
REMARK INTER:                  -9.306
REMARK INTRA:                  -1.644
REMARK UNBOUND:                -0.832
REMARK  Name = 
REMARK  11 active torsions:
REMARK  status: ('A' for Active; 'I' for Inactive)
REMARK    1  A    between atoms: C_1  and  O_2
REMARK    2  A    between atoms: O_2  and  C_3
REMARK    3  A    between atoms: C_3  and  C_4
REMARK    4  A    between atoms: C_4  and  N_5
REMARK    5  A    between atoms: C_4  and  C_21
REMARK    6  A    between atoms: N_5  and  C_6
REMARK    7  A    between atoms: C_6  and  C_7
REMARK    8  A    between atoms: C_10  and  C_11
REMARK    9  A    between atoms: C_11  and  N_12
REMARK   10  A    between atoms: N_12  and  C_13
REMARK   11  A    between atoms: C_13  and  C_14
REMARK                            x       y       z     vdW  Elec       q    Type
REMARK                         _______ _______ _______ _____ _____    ______ ____
ROOT
ATOM      1  N   UNL     1      47.599   7.214  11.700  0.00  0.00    +0.000 NA
ATOM      2  H   UNL     1      48.267   6.447  11.808  0.00  0.00    +0.000 HD
ENDROOT
BRANCH   1   3
ATOM      3  C   UNL     1      46.320   6.762  12.285  0.00  0.00    +0.000 C 
BRANCH   3   4
ATOM      4  C   UNL     1      45.748   5.762  11.284  0.00  0.00    +0.000 A 
ATOM      5  C   UNL     1      45.980   5.792   9.917  0.00  0.00    +0.000 A 
ATOM      6  S   UNL     1      45.212   4.530   9.065  0.00  0.00    +0.000 S 
ATOM      7  C   UNL     1      44.575   3.871  10.498  0.00  0.00    +0.000 A 
ATOM      8  N   UNL     1      43.841   2.726  10.478  0.00  0.00    +0.000 NA
ATOM      9  C   UNL     1      43.435   2.337  11.641  0.00  0.00    +0.000 A 
ATOM     10  N   UNL     1      43.686   2.994  12.818  0.00  0.00    +0.000 N 
ATOM     11  C   UNL     1      44.424   4.156  12.891  0.00  0.00    +0.000 A 
ATOM     12  O   UNL     1      44.639   4.710  13.967  0.00  0.00    +0.000 OA
ATOM     13  C   UNL     1      44.918   4.623  11.607  0.00  0.00    +0.000 A 
ATOM     14  H   UNL     1      43.337   2.636  13.694  0.00  0.00    +0.000 HD
ENDBRANCH   3   4
BRANCH   3  15
ATOM     15  C   UNL     1      45.322   7.910  12.609  0.00  0.00    +0.000 C 
BRANCH  15  17
ATOM     16  C   UNL     1      44.439   9.673  11.313  0.00  0.00    +0.000 C 
ATOM     17  O   UNL     1      44.578   8.265  11.437  0.00  0.00    +0.000 OA
ENDBRANCH  15  17
ENDBRANCH   3  15
ENDBRANCH   1   3
BRANCH   1  18
ATOM     18  C   UNL     1      48.151   8.386  12.373  0.00  0.00    +0.000 C 
BRANCH  18  19
ATOM     19  C   UNL     1      48.572   8.083  13.786  0.00  0.00    +0.000 A 
ATOM     20  C   UNL     1      48.072   8.813  14.865  0.00  0.00    +0.000 A 
ATOM     21  C   UNL     1      48.546   8.564  16.151  0.00  0.00    +0.000 A 
ATOM     22  C   UNL     1      49.523   7.588  16.330  0.00  0.00    +0.000 A 
ATOM     23  N   UNL     1      50.019   6.855  15.300  0.00  0.00    +0.000 NA
ATOM     24  C   UNL     1      49.530   7.114  14.063  0.00  0.00    +0.000 A 
BRANCH  22  25
ATOM     25  C   UNL     1      50.125   7.359  17.705  0.00  0.00    +0.000 C 
BRANCH  25  26
ATOM     26  N   UNL     1      50.631   5.990  17.913  0.00  0.00    +0.000 NA
ATOM     27  H   UNL     1      51.457   6.089  18.508  0.00  0.00    +0.000 HD
BRANCH  26  28
ATOM     28  C   UNL     1      49.655   5.137  18.606  0.00  0.00    +0.000 C 
BRANCH  28  29
ATOM     29  C   UNL     1      49.376   3.809  17.853  0.00  0.00    +0.000 C 
ATOM     30  C   UNL     1      48.113   3.076  18.288  0.00  0.00    +0.000 C 
ATOM     31  C   UNL     1      47.006   3.710  17.466  0.00  0.00    +0.000 C 
ATOM     32  C   UNL     1      47.704   4.282  16.242  0.00  0.00    +0.000 C 
ATOM     33  N   UNL     1      49.132   4.018  16.415  0.00  0.00    +0.000 NA
ATOM     34  H   UNL     1      49.690   4.788  16.050  0.00  0.00    +0.000 HD
ENDBRANCH  28  29
ENDBRANCH  26  28
ENDBRANCH  25  26
ENDBRANCH  22  25
ENDBRANCH  18  19
ENDBRANCH   1  18
TORSDOF 10
ENDMDL
MODEL 4
REMARK VINA RESULT:    -6.322      2.096      3.856
REMARK INTER + INTRA:         -10.850
REMARK INTER:                 -10.477
REMARK INTRA:                  -0.374
REMARK UNBOUND:                -0.832
REMARK  Name = 
REMARK  11 active torsions:
REMARK  status: ('A' for Active; 'I' for Inactive)
REMARK    1  A    between atoms: C_1  and  O_2
REMARK    2  A    between atoms: O_2  and  C_3
REMARK    3  A    between atoms: C_3  and  C_4
REMARK    4  A    between atoms: C_4  and  N_5
REMARK    5  A    between atoms: C_4  and  C_21
REMARK    6  A    between atoms: N_5  and  C_6
REMARK    7  A    between atoms: C_6  and  C_7
REMARK    8  A    between atoms: C_10  and  C_11
REMARK    9  A    between atoms: C_11  and  N_12
REMARK   10  A    between atoms: N_12  and  C_13
REMARK   11  A    between atoms: C_13  and  C_14
REMARK                            x       y       z     vdW  Elec       q    Type
REMARK                         _______ _______ _______ _____ _____    ______ ____
ROOT
ATOM      1  N   UNL     1      47.723   4.260  15.448  0.00  0.00    +0.000 NA
ATOM      2  H   UNL     1      48.610   4.004  15.010  0.00  0.00    +0.000 HD
ENDROOT
BRANCH   1   3
ATOM      3  C   UNL     1      47.980   4.422  16.894  0.00  0.00    +0.000 C 
BRANCH   3   4
ATOM      4  C   UNL     1      48.703   5.759  17.029  0.00  0.00    +0.000 A 
ATOM      5  C   UNL     1      49.728   6.189  16.200  0.00  0.00    +0.000 A 
ATOM      6  S   UNL     1      50.327   7.737  16.598  0.00  0.00    +0.000 S 
ATOM      7  C   UNL     1      49.206   7.907  17.868  0.00  0.00    +0.000 A 
ATOM      8  N   UNL     1      49.149   9.049  18.603  0.00  0.00    +0.000 NA
ATOM      9  C   UNL     1      48.242   9.041  19.523  0.00  0.00    +0.000 A 
ATOM     10  N   UNL     1      47.397   7.992  19.780  0.00  0.00    +0.000 N 
ATOM     11  C   UNL     1      47.416   6.815  19.064  0.00  0.00    +0.000 A 
ATOM     12  O   UNL     1      46.634   5.901  19.316  0.00  0.00    +0.000 OA
ATOM     13  C   UNL     1      48.410   6.784  18.006  0.00  0.00    +0.000 A 
ATOM     14  H   UNL     1      46.710   8.052  20.517  0.00  0.00    +0.000 HD
ENDBRANCH   3   4
BRANCH   3  15
ATOM     15  C   UNL     1      48.775   3.252  17.539  0.00  0.00    +0.000 C 
BRANCH  15  17
ATOM     16  C   UNL     1      50.601   1.849  17.022  0.00  0.00    +0.000 C 
ATOM     17  O   UNL     1      49.428   2.479  16.525  0.00  0.00    +0.000 OA
ENDBRANCH  15  17
ENDBRANCH   3  15
ENDBRANCH   1   3
BRANCH   1  18
ATOM     18  C   UNL     1      47.247   5.486  14.813  0.00  0.00    +0.000 C 
BRANCH  18  19
ATOM     19  C   UNL     1      46.546   5.213  13.509  0.00  0.00    +0.000 A 
ATOM     20  C   UNL     1      46.201   6.250  12.640  0.00  0.00    +0.000 A 
ATOM     21  C   UNL     1      45.478   5.972  11.483  0.00  0.00    +0.000 A 
ATOM     22  C   UNL     1      45.103   4.657  11.222  0.00  0.00    +0.000 A 
ATOM     23  N   UNL     1      45.435   3.628  12.044  0.00  0.00    +0.000 NA
ATOM     24  C   UNL     1      46.147   3.928  13.156  0.00  0.00    +0.000 A 
BRANCH  22  25
ATOM     25  C   UNL     1      44.236   4.338  10.017  0.00  0.00    +0.000 C 
BRANCH  25  26
ATOM     26  N   UNL     1      44.801   4.799   8.737  0.00  0.00    +0.000 NA
ATOM     27  H   UNL     1      45.068   5.775   8.889  0.00  0.00    +0.000 HD
BRANCH  26  28
ATOM     28  C   UNL     1      46.001   4.041   8.356  0.00  0.00    +0.000 C 
BRANCH  28  29
ATOM     29  C   UNL     1      45.709   2.948   7.292  0.00  0.00    +0.000 C 
ATOM     30  C   UNL     1      46.525   3.065   6.010  0.00  0.00    +0.000 C 
ATOM     31  C   UNL     1      47.822   2.340   6.318  0.00  0.00    +0.000 C 
ATOM     32  C   UNL     1      47.474   1.373   7.439  0.00  0.00    +0.000 C 
ATOM     33  N   UNL     1      46.065   1.597   7.762  0.00  0.00    +0.000 NA
ATOM     34  H   UNL     1      45.902   1.495   8.762  0.00  0.00    +0.000 HD
ENDBRANCH  28  29
ENDBRANCH  26  28
ENDBRANCH  25  26
ENDBRANCH  22  25
ENDBRANCH  18  19
ENDBRANCH   1  18
TORSDOF 10
ENDMDL
MODEL 5
REMARK VINA RESULT:    -6.196      3.696      8.342
REMARK INTER + INTRA:         -10.650
REMARK INTER:                  -9.403
REMARK INTRA:                  -1.246
REMARK UNBOUND:                -0.832
REMARK  Name = 
REMARK  11 active torsions:
REMARK  status: ('A' for Active; 'I' for Inactive)
REMARK    1  A    between atoms: C_1  and  O_2
REMARK    2  A    between atoms: O_2  and  C_3
REMARK    3  A    between atoms: C_3  and  C_4
REMARK    4  A    between atoms: C_4  and  N_5
REMARK    5  A    between atoms: C_4  and  C_21
REMARK    6  A    between atoms: N_5  and  C_6
REMARK    7  A    between atoms: C_6  and  C_7
REMARK    8  A    between atoms: C_10  and  C_11
REMARK    9  A    between atoms: C_11  and  N_12
REMARK   10  A    between atoms: N_12  and  C_13
REMARK   11  A    between atoms: C_13  and  C_14
REMARK                            x       y       z     vdW  Elec       q    Type
REMARK                         _______ _______ _______ _____ _____    ______ ____
ROOT
ATOM      1  N   UNL     1      47.217   8.856  14.661  0.00  0.00    +0.000 NA
ATOM      2  H   UNL     1      46.659   9.629  15.031  0.00  0.00    +0.000 HD
ENDROOT
BRANCH   1   3
ATOM      3  C   UNL     1      46.971   8.797  13.205  0.00  0.00    +0.000 C 
BRANCH   3   4
ATOM      4  C   UNL     1      46.418   7.399  12.944  0.00  0.00    +0.000 A 
ATOM      5  C   UNL     1      46.993   6.225  13.408  0.00  0.00    +0.000 A 
ATOM      6  S   UNL     1      46.133   4.820  12.960  0.00  0.00    +0.000 S 
ATOM      7  C   UNL     1      44.938   5.735  12.166  0.00  0.00    +0.000 A 
ATOM      8  N   UNL     1      43.862   5.133  11.591  0.00  0.00    +0.000 NA
ATOM      9  C   UNL     1      43.031   5.952  11.038  0.00  0.00    +0.000 A 
ATOM     10  N   UNL     1      43.184   7.315  10.996  0.00  0.00    +0.000 N 
ATOM     11  C   UNL     1      44.255   7.970  11.563  0.00  0.00    +0.000 A 
ATOM     12  O   UNL     1      44.352   9.195  11.517  0.00  0.00    +0.000 OA
ATOM     13  C   UNL     1      45.209   7.090  12.214  0.00  0.00    +0.000 A 
ATOM     14  H   UNL     1      42.496   7.898  10.545  0.00  0.00    +0.000 HD
ENDBRANCH   3   4
BRANCH   3  15
ATOM     15  C   UNL     1      48.216   9.115  12.331  0.00  0.00    +0.000 C 
BRANCH  15  17
ATOM     16  C   UNL     1      49.928   7.614  11.709  0.00  0.00    +0.000 C 
ATOM     17  O   UNL     1      48.565   7.975  11.535  0.00  0.00    +0.000 OA
ENDBRANCH  15  17
ENDBRANCH   3  15
ENDBRANCH   1   3
BRANCH   1  18
ATOM     18  C   UNL     1      48.616   9.115  14.992  0.00  0.00    +0.000 C 
BRANCH  18  19
ATOM     19  C   UNL     1      49.183   8.070  15.914  0.00  0.00    +0.000 A 
ATOM     20  C   UNL     1      48.801   8.000  17.255  0.00  0.00    +0.000 A 
ATOM     21  C   UNL     1      49.408   7.076  18.101  0.00  0.00    +0.000 A 
ATOM     22  C   UNL     1      50.398   6.241  17.589  0.00  0.00    +0.000 A 
ATOM     23  N   UNL     1      50.781   6.280  16.287  0.00  0.00    +0.000 NA
ATOM     24  C   UNL     1      50.165   7.182  15.485  0.00  0.00    +0.000 A 
BRANCH  22  25
ATOM     25  C   UNL     1      51.141   5.289  18.508  0.00  0.00    +0.000 C 
BRANCH  25  26
ATOM     26  N   UNL     1      50.486   3.978  18.663  0.00  0.00    +0.000 NA
ATOM     27  H   UNL     1      49.542   4.180  19.000  0.00  0.00    +0.000 HD
BRANCH  26  28
ATOM     28  C   UNL     1      50.383   3.255  17.388  0.00  0.00    +0.000 C 
BRANCH  28  29
ATOM     29  C   UNL     1      49.039   2.494  17.235  0.00  0.00    +0.000 C 
ATOM     30  C   UNL     1      47.935   2.941  18.187  0.00  0.00    +0.000 C 
ATOM     31  C   UNL     1      47.284   4.119  17.486  0.00  0.00    +0.000 C 
ATOM     32  C   UNL     1      47.591   3.917  16.011  0.00  0.00    +0.000 C 
ATOM     33  N   UNL     1      48.415   2.712  15.917  0.00  0.00    +0.000 NA
ATOM     34  H   UNL     1      49.117   2.808  15.185  0.00  0.00    +0.000 HD
ENDBRANCH  28  29
ENDBRANCH  26  28
ENDBRANCH  25  26
ENDBRANCH  22  25
ENDBRANCH  18  19
ENDBRANCH   1  18
TORSDOF 10
ENDMDL
MODEL 6
REMARK VINA RESULT:    -6.169      3.121      4.240
REMARK INTER + INTRA:         -10.608
REMARK INTER:                  -9.229
REMARK INTRA:                  -1.378
REMARK UNBOUND:                -0.832
REMARK  Name = 
REMARK  11 active torsions:
REMARK  status: ('A' for Active; 'I' for Inactive)
REMARK    1  A    between atoms: C_1  and  O_2
REMARK    2  A    between atoms: O_2  and  C_3
REMARK    3  A    between atoms: C_3  and  C_4
REMARK    4  A    between atoms: C_4  and  N_5
REMARK    5  A    between atoms: C_4  and  C_21
REMARK    6  A    between atoms: N_5  and  C_6
REMARK    7  A    between atoms: C_6  and  C_7
REMARK    8  A    between atoms: C_10  and  C_11
REMARK    9  A    between atoms: C_11  and  N_12
REMARK   10  A    between atoms: N_12  and  C_13
REMARK   11  A    between atoms: C_13  and  C_14
REMARK                            x       y       z     vdW  Elec       q    Type
REMARK                         _______ _______ _______ _____ _____    ______ ____
ROOT
ATOM      1  N   UNL     1      49.407   8.477  13.817  0.00  0.00    +0.000 NA
ATOM      2  H   UNL     1      48.455   8.592  14.171  0.00  0.00    +0.000 HD
ENDROOT
BRANCH   1   3
ATOM      3  C   UNL     1      50.289   8.296  14.989  0.00  0.00    +0.000 C 
BRANCH   3   4
ATOM      4  C   UNL     1      49.405   8.553  16.205  0.00  0.00    +0.000 A 
ATOM      5  C   UNL     1      48.880   9.789  16.552  0.00  0.00    +0.000 A 
ATOM      6  S   UNL     1      47.918   9.753  17.961  0.00  0.00    +0.000 S 
ATOM      7  C   UNL     1      48.134   8.073  18.135  0.00  0.00    +0.000 A 
ATOM      8  N   UNL     1      47.522   7.389  19.138  0.00  0.00    +0.000 NA
ATOM      9  C   UNL     1      47.766   6.120  19.138  0.00  0.00    +0.000 A 
ATOM     10  N   UNL     1      48.573   5.478  18.233  0.00  0.00    +0.000 N 
ATOM     11  C   UNL     1      49.213   6.127  17.201  0.00  0.00    +0.000 A 
ATOM     12  O   UNL     1      49.920   5.515  16.402  0.00  0.00    +0.000 OA
ATOM     13  C   UNL     1      48.955   7.555  17.150  0.00  0.00    +0.000 A 
ATOM     14  H   UNL     1      48.722   4.482  18.292  0.00  0.00    +0.000 HD
ENDBRANCH   3   4
BRANCH   3  15
ATOM     15  C   UNL     1      51.559   9.194  14.980  0.00  0.00    +0.000 C 
BRANCH  15  17
ATOM     16  C   UNL     1      51.782  11.266  13.872  0.00  0.00    +0.000 C 
ATOM     17  O   UNL     1      51.688   9.857  13.716  0.00  0.00    +0.000 OA
ENDBRANCH  15  17
ENDBRANCH   3  15
ENDBRANCH   1   3
BRANCH   1  18
ATOM     18  C   UNL     1      49.414   7.327  12.917  0.00  0.00    +0.000 C 
BRANCH  18  19
ATOM     19  C   UNL     1      48.065   6.664  12.834  0.00  0.00    +0.000 A 
ATOM     20  C   UNL     1      47.172   6.960  11.803  0.00  0.00    +0.000 A 
ATOM     21  C   UNL     1      45.900   6.394  11.803  0.00  0.00    +0.000 A 
ATOM     22  C   UNL     1      45.541   5.544  12.846  0.00  0.00    +0.000 A 
ATOM     23  N   UNL     1      46.393   5.229  13.855  0.00  0.00    +0.000 NA
ATOM     24  C   UNL     1      47.627   5.788  13.822  0.00  0.00    +0.000 A 
BRANCH  22  25
ATOM     25  C   UNL     1      44.131   4.986  12.921  0.00  0.00    +0.000 C 
BRANCH  25  26
ATOM     26  N   UNL     1      44.059   3.526  12.736  0.00  0.00    +0.000 NA
ATOM     27  H   UNL     1      43.078   3.323  12.528  0.00  0.00    +0.000 HD
BRANCH  26  28
ATOM     28  C   UNL     1      44.881   3.068  11.608  0.00  0.00    +0.000 C 
BRANCH  28  29
ATOM     29  C   UNL     1      44.074   2.945  10.287  0.00  0.00    +0.000 C 
ATOM     30  C   UNL     1      44.281   4.086   9.298  0.00  0.00    +0.000 C 
ATOM     31  C   UNL     1      45.518   3.689   8.515  0.00  0.00    +0.000 C 
ATOM     32  C   UNL     1      45.591   2.175   8.637  0.00  0.00    +0.000 C 
ATOM     33  N   UNL     1      44.474   1.771   9.491  0.00  0.00    +0.000 NA
ATOM     34  H   UNL     1      44.738   0.989  10.087  0.00  0.00    +0.000 HD
ENDBRANCH  28  29
ENDBRANCH  26  28
ENDBRANCH  25  26
ENDBRANCH  22  25
ENDBRANCH  18  19
ENDBRANCH   1  18
TORSDOF 10
ENDMDL
MODEL 7
REMARK VINA RESULT:    -5.817      3.669      8.320
REMARK INTER + INTRA:         -10.049
REMARK INTER:                  -8.427
REMARK INTRA:                  -1.622
REMARK UNBOUND:                -0.832
REMARK  Name = 
REMARK  11 active torsions:
REMARK  status: ('A' for Active; 'I' for Inactive)
REMARK    1  A    between atoms: C_1  and  O_2
REMARK    2  A    between atoms: O_2  and  C_3
REMARK    3  A    between atoms: C_3  and  C_4
REMARK    4  A    between atoms: C_4  and  N_5
REMARK    5  A    between atoms: C_4  and  C_21
REMARK    6  A    between atoms: N_5  and  C_6
REMARK    7  A    between atoms: C_6  and  C_7
REMARK    8  A    between atoms: C_10  and  C_11
REMARK    9  A    between atoms: C_11  and  N_12
REMARK   10  A    between atoms: N_12  and  C_13
REMARK   11  A    between atoms: C_13  and  C_14
REMARK                            x       y       z     vdW  Elec       q    Type
REMARK                         _______ _______ _______ _____ _____    ______ ____
ROOT
ATOM      1  N   UNL     1      47.213   7.981  14.055  0.00  0.00    +0.000 NA
ATOM      2  H   UNL     1      46.283   8.132  14.453  0.00  0.00    +0.000 HD
ENDROOT
BRANCH   1   3
ATOM      3  C   UNL     1      47.078   8.072  12.586  0.00  0.00    +0.000 C 
BRANCH   3   4
ATOM      4  C   UNL     1      45.923   7.141  12.228  0.00  0.00    +0.000 A 
ATOM      5  C   UNL     1      44.797   7.520  11.513  0.00  0.00    +0.000 A 
ATOM      6  S   UNL     1      43.687   6.249  11.261  0.00  0.00    +0.000 S 
ATOM      7  C   UNL     1      44.693   5.134  12.061  0.00  0.00    +0.000 A 
ATOM      8  N   UNL     1      44.346   3.822  12.159  0.00  0.00    +0.000 NA
ATOM      9  C   UNL     1      45.211   3.092  12.781  0.00  0.00    +0.000 A 
ATOM     10  N   UNL     1      46.383   3.556  13.323  0.00  0.00    +0.000 N 
ATOM     11  C   UNL     1      46.778   4.874  13.250  0.00  0.00    +0.000 A 
ATOM     12  O   UNL     1      47.842   5.251  13.737  0.00  0.00    +0.000 OA
ATOM     13  C   UNL     1      45.843   5.732  12.542  0.00  0.00    +0.000 A 
ATOM     14  H   UNL     1      47.015   2.930  13.798  0.00  0.00    +0.000 HD
ENDBRANCH   3   4
BRANCH   3  15
ATOM     15  C   UNL     1      48.376   7.733  11.801  0.00  0.00    +0.000 C 
BRANCH  15  17
ATOM     16  C   UNL     1      50.453   8.821  11.529  0.00  0.00    +0.000 C 
ATOM     17  O   UNL     1      49.042   8.938  11.403  0.00  0.00    +0.000 OA
ENDBRANCH  15  17
ENDBRANCH   3  15
ENDBRANCH   1   3
BRANCH   1  18
ATOM     18  C   UNL     1      48.106   8.995  14.608  0.00  0.00    +0.000 C 
BRANCH  18  19
ATOM     19  C   UNL     1      49.064   8.418  15.615  0.00  0.00    +0.000 A 
ATOM     20  C   UNL     1      50.041   7.494  15.241  0.00  0.00    +0.000 A 
ATOM     21  C   UNL     1      50.856   6.915  16.211  0.00  0.00    +0.000 A 
ATOM     22  C   UNL     1      50.669   7.267  17.545  0.00  0.00    +0.000 A 
ATOM     23  N   UNL     1      49.734   8.171  17.936  0.00  0.00    +0.000 NA
ATOM     24  C   UNL     1      48.964   8.724  16.968  0.00  0.00    +0.000 A 
BRANCH  22  25
ATOM     25  C   UNL     1      51.478   6.583  18.633  0.00  0.00    +0.000 C 
BRANCH  25  26
ATOM     26  N   UNL     1      50.659   5.841  19.607  0.00  0.00    +0.000 NA
ATOM     27  H   UNL     1      49.879   6.461  19.841  0.00  0.00    +0.000 HD
BRANCH  26  28
ATOM     28  C   UNL     1      50.115   4.598  19.041  0.00  0.00    +0.000 C 
BRANCH  28  29
ATOM     29  C   UNL     1      48.597   4.426  19.317  0.00  0.00    +0.000 C 
ATOM     30  C   UNL     1      47.683   5.258  18.426  0.00  0.00    +0.000 C 
ATOM     31  C   UNL     1      47.496   4.413  17.180  0.00  0.00    +0.000 C 
ATOM     32  C   UNL     1      47.762   2.985  17.631  0.00  0.00    +0.000 C 
ATOM     33  N   UNL     1      48.128   3.056  19.045  0.00  0.00    +0.000 NA
ATOM     34  H   UNL     1      48.842   2.366  19.270  0.00  0.00    +0.000 HD
ENDBRANCH  28  29
ENDBRANCH  26  28
ENDBRANCH  25  26
ENDBRANCH  22  25
ENDBRANCH  18  19
ENDBRANCH   1  18
TORSDOF 10
ENDMDL
MODEL 8
REMARK VINA RESULT:    -5.264      3.882      5.251
REMARK INTER + INTRA:          -9.173
REMARK INTER:                  -8.199
REMARK INTRA:                  -0.975
REMARK UNBOUND:                -0.832
REMARK  Name = 
REMARK  11 active torsions:
REMARK  status: ('A' for Active; 'I' for Inactive)
REMARK    1  A    between atoms: C_1  and  O_2
REMARK    2  A    between atoms: O_2  and  C_3
REMARK    3  A    between atoms: C_3  and  C_4
REMARK    4  A    between atoms: C_4  and  N_5
REMARK    5  A    between atoms: C_4  and  C_21
REMARK    6  A    between atoms: N_5  and  C_6
REMARK    7  A    between atoms: C_6  and  C_7
REMARK    8  A    between atoms: C_10  and  C_11
REMARK    9  A    between atoms: C_11  and  N_12
REMARK   10  A    between atoms: N_12  and  C_13
REMARK   11  A    between atoms: C_13  and  C_14
REMARK                            x       y       z     vdW  Elec       q    Type
REMARK                         _______ _______ _______ _____ _____    ______ ____
ROOT
ATOM      1  N   UNL     1      49.509   8.056  12.805  0.00  0.00    +0.000 NA
ATOM      2  H   UNL     1      48.888   8.867  12.763  0.00  0.00    +0.000 HD
ENDROOT
BRANCH   1   3
ATOM      3  C   UNL     1      50.800   8.522  13.351  0.00  0.00    +0.000 C 
BRANCH   3   4
ATOM      4  C   UNL     1      50.439   9.483  14.480  0.00  0.00    +0.000 A 
ATOM      5  C   UNL     1      49.727  10.662  14.315  0.00  0.00    +0.000 A 
ATOM      6  S   UNL     1      49.471  11.515  15.770  0.00  0.00    +0.000 S 
ATOM      7  C   UNL     1      50.266  10.317  16.680  0.00  0.00    +0.000 A 
ATOM      8  N   UNL     1      50.359  10.412  18.034  0.00  0.00    +0.000 NA
ATOM      9  C   UNL     1      50.977   9.425  18.592  0.00  0.00    +0.000 A 
ATOM     10  N   UNL     1      51.519   8.359  17.919  0.00  0.00    +0.000 N 
ATOM     11  C   UNL     1      51.451   8.218  16.551  0.00  0.00    +0.000 A 
ATOM     12  O   UNL     1      51.939   7.242  15.984  0.00  0.00    +0.000 OA
ATOM     13  C   UNL     1      50.748   9.297  15.880  0.00  0.00    +0.000 A 
ATOM     14  H   UNL     1      51.992   7.620  18.418  0.00  0.00    +0.000 HD
ENDBRANCH   3   4
BRANCH   3  15
ATOM     15  C   UNL     1      51.744   9.172  12.299  0.00  0.00    +0.000 C 
BRANCH  15  17
ATOM     16  C   UNL     1      52.517   8.577  10.151  0.00  0.00    +0.000 C 
ATOM     17  O   UNL     1      51.376   8.753  10.979  0.00  0.00    +0.000 OA
ENDBRANCH  15  17
ENDBRANCH   3  15
ENDBRANCH   1   3
BRANCH   1  18
ATOM     18  C   UNL     1      48.868   7.044  13.642  0.00  0.00    +0.000 C 
BRANCH  18  19
ATOM     19  C   UNL     1      47.642   6.464  12.991  0.00  0.00    +0.000 A 
ATOM     20  C   UNL     1      47.177   6.941  11.764  0.00  0.00    +0.000 A 
ATOM     21  C   UNL     1      45.991   6.441  11.230  0.00  0.00    +0.000 A 
ATOM     22  C   UNL     1      45.286   5.476  11.943  0.00  0.00    +0.000 A 
ATOM     23  N   UNL     1      45.721   4.986  13.133  0.00  0.00    +0.000 NA
ATOM     24  C   UNL     1      46.882   5.484  13.621  0.00  0.00    +0.000 A 
BRANCH  22  25
ATOM     25  C   UNL     1      43.945   4.981  11.432  0.00  0.00    +0.000 C 
BRANCH  25  26
ATOM     26  N   UNL     1      43.874   3.518  11.266  0.00  0.00    +0.000 NA
ATOM     27  H   UNL     1      42.999   3.339  10.766  0.00  0.00    +0.000 HD
BRANCH  26  28
ATOM     28  C   UNL     1      44.987   2.997  10.460  0.00  0.00    +0.000 C 
BRANCH  28  29
ATOM     29  C   UNL     1      44.524   2.421   9.095  0.00  0.00    +0.000 C 
ATOM     30  C   UNL     1      44.805   3.313   7.892  0.00  0.00    +0.000 C 
ATOM     31  C   UNL     1      46.228   2.971   7.491  0.00  0.00    +0.000 C 
ATOM     32  C   UNL     1      46.461   1.568   8.029  0.00  0.00    +0.000 C 
ATOM     33  N   UNL     1      45.239   1.184   8.735  0.00  0.00    +0.000 NA
ATOM     34  H   UNL     1      45.456   0.626   9.559  0.00  0.00    +0.000 HD
ENDBRANCH  28  29
ENDBRANCH  26  28
ENDBRANCH  25  26
ENDBRANCH  22  25
ENDBRANCH  18  19
ENDBRANCH   1  18
TORSDOF 10
ENDMDL
MODEL 9
REMARK VINA RESULT:    -4.747     10.234     11.343
REMARK INTER + INTRA:          -8.355
REMARK INTER:                  -6.070
REMARK INTRA:                  -2.285
REMARK UNBOUND:                -0.832
REMARK  Name = 
REMARK  11 active torsions:
REMARK  status: ('A' for Active; 'I' for Inactive)
REMARK    1  A    between atoms: C_1  and  O_2
REMARK    2  A    between atoms: O_2  and  C_3
REMARK    3  A    between atoms: C_3  and  C_4
REMARK    4  A    between atoms: C_4  and  N_5
REMARK    5  A    between atoms: C_4  and  C_21
REMARK    6  A    between atoms: N_5  and  C_6
REMARK    7  A    between atoms: C_6  and  C_7
REMARK    8  A    between atoms: C_10  and  C_11
REMARK    9  A    between atoms: C_11  and  N_12
REMARK   10  A    between atoms: N_12  and  C_13
REMARK   11  A    between atoms: C_13  and  C_14
REMARK                            x       y       z     vdW  Elec       q    Type
REMARK                         _______ _______ _______ _____ _____    ______ ____
ROOT
ATOM      1  N   UNL     1      36.417   0.479  15.860  0.00  0.00    +0.000 NA
ATOM      2  H   UNL     1      36.793  -0.445  15.638  0.00  0.00    +0.000 HD
ENDROOT
BRANCH   1   3
ATOM      3  C   UNL     1      37.533   1.285  16.399  0.00  0.00    +0.000 C 
BRANCH   3   4
ATOM      4  C   UNL     1      38.159   0.429  17.495  0.00  0.00    +0.000 A 
ATOM      5  C   UNL     1      38.045   0.679  18.854  0.00  0.00    +0.000 A 
ATOM      6  S   UNL     1      38.848  -0.467  19.831  0.00  0.00    +0.000 S 
ATOM      7  C   UNL     1      39.343  -1.364  18.472  0.00  0.00    +0.000 A 
ATOM      8  N   UNL     1      40.044  -2.521  18.614  0.00  0.00    +0.000 NA
ATOM      9  C   UNL     1      40.339  -3.100  17.498  0.00  0.00    +0.000 A 
ATOM     10  N   UNL     1      40.007  -2.623  16.255  0.00  0.00    +0.000 N 
ATOM     11  C   UNL     1      39.298  -1.458  16.060  0.00  0.00    +0.000 A 
ATOM     12  O   UNL     1      39.008  -1.068  14.931  0.00  0.00    +0.000 OA
ATOM     13  C   UNL     1      38.928  -0.779  17.289  0.00  0.00    +0.000 A 
ATOM     14  H   UNL     1      40.271  -3.126  15.422  0.00  0.00    +0.000 HD
ENDBRANCH   3   4
BRANCH   3  15
ATOM     15  C   UNL     1      37.116   2.693  16.912  0.00  0.00    +0.000 C 
BRANCH  15  17
ATOM     16  C   UNL     1      38.651   4.255  17.790  0.00  0.00    +0.000 C 
ATOM     17  O   UNL     1      38.138   3.651  16.611  0.00  0.00    +0.000 OA
ENDBRANCH  15  17
ENDBRANCH   3  15
ENDBRANCH   1   3
BRANCH   1  18
ATOM     18  C   UNL     1      35.849   1.038  14.637  0.00  0.00    +0.000 C 
BRANCH  18  19
ATOM     19  C   UNL     1      36.278   0.275  13.412  0.00  0.00    +0.000 A 
ATOM     20  C   UNL     1      35.895  -1.053  13.213  0.00  0.00    +0.000 A 
ATOM     21  C   UNL     1      36.379  -1.757  12.113  0.00  0.00    +0.000 A 
ATOM     22  C   UNL     1      37.249  -1.117  11.234  0.00  0.00    +0.000 A 
ATOM     23  N   UNL     1      37.629   0.176  11.397  0.00  0.00    +0.000 NA
ATOM     24  C   UNL     1      37.134   0.837  12.471  0.00  0.00    +0.000 A 
BRANCH  22  25
ATOM     25  C   UNL     1      37.864  -1.887  10.079  0.00  0.00    +0.000 C 
BRANCH  25  26
ATOM     26  N   UNL     1      39.257  -2.306  10.318  0.00  0.00    +0.000 NA
ATOM     27  H   UNL     1      39.615  -1.674  11.039  0.00  0.00    +0.000 HD
BRANCH  26  28
ATOM     28  C   UNL     1      39.342  -3.685  10.821  0.00  0.00    +0.000 C 
BRANCH  28  29
ATOM     29  C   UNL     1      39.408  -3.756  12.370  0.00  0.00    +0.000 C 
ATOM     30  C   UNL     1      40.112  -4.987  12.928  0.00  0.00    +0.000 C 
ATOM     31  C   UNL     1      41.582  -4.612  12.938  0.00  0.00    +0.000 C 
ATOM     32  C   UNL     1      41.599  -3.092  12.985  0.00  0.00    +0.000 C 
ATOM     33  N   UNL     1      40.202  -2.658  12.951  0.00  0.00    +0.000 NA
ATOM     34  H   UNL     1      40.102  -1.801  12.411  0.00  0.00    +0.000 HD
ENDBRANCH  28  29
ENDBRANCH  26  28
ENDBRANCH  25  26
ENDBRANCH  22  25
ENDBRANCH  18  19
ENDBRANCH   1  18
TORSDOF 10
ENDMDL
