MODEL 1
REMARK VINA RESULT:    -7.540      0.000      0.000
REMARK INTER + INTRA:         -11.123
REMARK INTER:                 -10.625
REMARK INTRA:                  -0.498
REMARK UNBOUND:                -0.498
REMARK  Name = 
REMARK  8 active torsions:
REMARK  status: ('A' for Active; 'I' for Inactive)
REMARK    1  A    between atoms: N_1  and  C_2
REMARK    2  A    between atoms: C_2  and  C_3
REMARK    3  A    between atoms: C_3  and  C_4
REMARK    4  A    between atoms: C_7  and  C_8
REMARK    5  A    between atoms: C_8  and  O_9
REMARK    6  A    between atoms: O_9  and  C_10
REMARK    7  A    between atoms: CA_13  and  C_14
REMARK    8  A    between atoms: C_14  and  OXT_16
REMARK                            x       y       z     vdW  Elec       q    Type
REMARK                         _______ _______ _______ _____ _____    ______ ____
ROOT
ATOM      1  C   UNL     1      43.599   4.729  10.304  0.00  0.00    +0.000 C 
ENDROOT
BRANCH   1   5
ATOM      2  C   UNL     1      46.241   2.300   7.867  0.00  0.00    +0.000 A 
ATOM      3  C   UNL     1      46.196   3.691   7.704  0.00  0.00    +0.000 A 
ATOM      4  C   UNL     1      45.335   4.474   8.480  0.00  0.00    +0.000 A 
ATOM      5  C   UNL     1      44.497   3.883   9.433  0.00  0.00    +0.000 A 
ATOM      6  C   UNL     1      44.520   2.491   9.577  0.00  0.00    +0.000 A 
ATOM      7  C   UNL     1      45.385   1.708   8.806  0.00  0.00    +0.000 A 
BRANCH   2   8
ATOM      8  C   UNL     1      47.147   1.439   7.015  0.00  0.00    +0.000 C 
BRANCH   8   9
ATOM      9  C   UNL     1      48.396   2.169   6.501  0.00  0.00    +0.000 C 
BRANCH   9  10
ATOM     10  N   UNL     1      48.278   2.475   5.075  0.00  0.00    +0.000 NA
ATOM     11  H   UNL     1      47.309   2.709   4.859  0.00  0.00    +0.000 HD
ATOM     12  H   UNL     1      48.497   1.644   4.525  0.00  0.00    +0.000 HD
ENDBRANCH   9  10
ENDBRANCH   8   9
ENDBRANCH   2   8
ENDBRANCH   1   5
BRANCH   1  13
ATOM     13  O   UNL     1      44.324   5.850  10.820  0.00  0.00    +0.000 OA
BRANCH  13  14
ATOM     14  C   UNL     1      45.086   5.505  11.917  0.00  0.00    +0.000 A 
ATOM     15  C   UNL     1      44.516   4.701  12.901  0.00  0.00    +0.000 A 
ATOM     16  N   UNL     1      45.197   4.286  14.007  0.00  0.00    +0.000 NA
ATOM     17  CA  UNL     1      46.490   4.726  14.066  0.00  0.00    +0.000 A 
ATOM     18  C   UNL     1      47.060   5.531  13.095  0.00  0.00    +0.000 A 
ATOM     19  N   UNL     1      46.367   5.939  12.005  0.00  0.00    +0.000 NA
BRANCH  17  20
ATOM     20  C   UNL     1      47.300   4.296  15.230  0.00  0.00    +0.000 C 
ATOM     21  O   UNL     1      47.670   3.155  15.430  0.00  0.00    +0.000 OA
BRANCH  20  22
ATOM     22  OXT UNL     1      47.569   5.344  16.044  0.00  0.00    +0.000 OA
ATOM     23  HXT UNL     1      46.935   5.340  16.801  0.00  0.00    +0.000 HD
ENDBRANCH  20  22
ENDBRANCH  17  20
ENDBRANCH  13  14
ENDBRANCH   1  13
TORSDOF 8
ENDMDL
MODEL 2
REMARK VINA RESULT:    -7.451      3.112      6.651
REMARK INTER + INTRA:         -10.998
REMARK INTER:                 -10.548
REMARK INTRA:                  -0.451
REMARK UNBOUND:                -0.498
REMARK  Name = 
REMARK  8 active torsions:
REMARK  status: ('A' for Active; 'I' for Inactive)
REMARK    1  A    between atoms: N_1  and  C_2
REMARK    2  A    between atoms: C_2  and  C_3
REMARK    3  A    between atoms: C_3  and  C_4
REMARK    4  A    between atoms: C_7  and  C_8
REMARK    5  A    between atoms: C_8  and  O_9
REMARK    6  A    between atoms: O_9  and  C_10
REMARK    7  A    between atoms: CA_13  and  C_14
REMARK    8  A    between atoms: C_14  and  OXT_16
REMARK                            x       y       z     vdW  Elec       q    Type
REMARK                         _______ _______ _______ _____ _____    ______ ____
ROOT
ATOM      1  C   UNL     1      43.641   4.463  10.972  0.00  0.00    +0.000 C 
ENDROOT
BRANCH   1   5
ATOM      2  C   UNL     1      47.087   6.350  12.811  0.00  0.00    +0.000 A 
ATOM      3  C   UNL     1      46.593   5.133  13.300  0.00  0.00    +0.000 A 
ATOM      4  C   UNL     1      45.474   4.530  12.717  0.00  0.00    +0.000 A 
ATOM      5  C   UNL     1      44.822   5.133  11.634  0.00  0.00    +0.000 A 
ATOM      6  C   UNL     1      45.297   6.363  11.162  0.00  0.00    +0.000 A 
ATOM      7  C   UNL     1      46.420   6.963  11.742  0.00  0.00    +0.000 A 
BRANCH   2   8
ATOM      8  C   UNL     1      48.280   7.027  13.451  0.00  0.00    +0.000 C 
BRANCH   8   9
ATOM      9  C   UNL     1      48.122   8.546  13.609  0.00  0.00    +0.000 C 
BRANCH   9  10
ATOM     10  N   UNL     1      47.224   8.870  14.719  0.00  0.00    +0.000 NA
ATOM     11  H   UNL     1      47.777   9.058  15.555  0.00  0.00    +0.000 HD
ATOM     12  H   UNL     1      46.644   8.060  14.939  0.00  0.00    +0.000 HD
ENDBRANCH   9  10
ENDBRANCH   8   9
ENDBRANCH   2   8
ENDBRANCH   1   5
BRANCH   1  13
ATOM     13  O   UNL     1      43.710   4.630   9.553  0.00  0.00    +0.000 OA
BRANCH  13  14
ATOM     14  C   UNL     1      44.621   3.767   8.979  0.00  0.00    +0.000 A 
ATOM     15  C   UNL     1      44.600   2.426   9.357  0.00  0.00    +0.000 A 
ATOM     16  N   UNL     1      45.442   1.493   8.827  0.00  0.00    +0.000 NA
ATOM     17  CA  UNL     1      46.306   1.987   7.890  0.00  0.00    +0.000 A 
ATOM     18  C   UNL     1      46.335   3.319   7.515  0.00  0.00    +0.000 A 
ATOM     19  N   UNL     1      45.496   4.234   8.056  0.00  0.00    +0.000 NA
BRANCH  17  20
ATOM     20  C   UNL     1      47.237   1.026   7.252  0.00  0.00    +0.000 C 
ATOM     21  O   UNL     1      48.072   1.323   6.419  0.00  0.00    +0.000 OA
BRANCH  20  22
ATOM     22  OXT UNL     1      47.029  -0.228   7.718  0.00  0.00    +0.000 OA
ATOM     23  HXT UNL     1      46.917  -0.197   8.698  0.00  0.00    +0.000 HD
ENDBRANCH  20  22
ENDBRANCH  17  20
ENDBRANCH  13  14
ENDBRANCH   1  13
TORSDOF 8
ENDMDL
MODEL 3
REMARK VINA RESULT:    -7.343      1.689      2.287
REMARK INTER + INTRA:         -10.845
REMARK INTER:                 -10.420
REMARK INTRA:                  -0.425
REMARK UNBOUND:                -0.498
REMARK  Name = 
REMARK  8 active torsions:
REMARK  status: ('A' for Active; 'I' for Inactive)
REMARK    1  A    between atoms: N_1  and  C_2
REMARK    2  A    between atoms: C_2  and  C_3
REMARK    3  A    between atoms: C_3  and  C_4
REMARK    4  A    between atoms: C_7  and  C_8
REMARK    5  A    between atoms: C_8  and  O_9
REMARK    6  A    between atoms: O_9  and  C_10
REMARK    7  A    between atoms: CA_13  and  C_14
REMARK    8  A    between atoms: C_14  and  OXT_16
REMARK                            x       y       z     vdW  Elec       q    Type
REMARK                         _______ _______ _______ _____ _____    ______ ____
ROOT
ATOM      1  C   UNL     1      43.451   3.914  11.534  0.00  0.00    +0.000 C 
ENDROOT
BRANCH   1   5
ATOM      2  C   UNL     1      45.730   3.107   7.932  0.00  0.00    +0.000 A 
ATOM      3  C   UNL     1      45.248   2.056   8.723  0.00  0.00    +0.000 A 
ATOM      4  C   UNL     1      44.524   2.314   9.892  0.00  0.00    +0.000 A 
ATOM      5  C   UNL     1      44.270   3.630  10.297  0.00  0.00    +0.000 A 
ATOM      6  C   UNL     1      44.776   4.682   9.524  0.00  0.00    +0.000 A 
ATOM      7  C   UNL     1      45.494   4.423   8.352  0.00  0.00    +0.000 A 
BRANCH   2   8
ATOM      8  C   UNL     1      46.538   2.841   6.681  0.00  0.00    +0.000 C 
BRANCH   8   9
ATOM      9  C   UNL     1      47.648   1.797   6.868  0.00  0.00    +0.000 C 
BRANCH   9  10
ATOM     10  N   UNL     1      48.563   1.791   5.726  0.00  0.00    +0.000 NA
ATOM     11  H   UNL     1      49.280   1.080   5.872  0.00  0.00    +0.000 HD
ATOM     12  H   UNL     1      49.055   2.683   5.674  0.00  0.00    +0.000 HD
ENDBRANCH   9  10
ENDBRANCH   8   9
ENDBRANCH   2   8
ENDBRANCH   1   5
BRANCH   1  13
ATOM     13  O   UNL     1      44.151   3.474  12.702  0.00  0.00    +0.000 OA
BRANCH  13  14
ATOM     14  C   UNL     1      45.203   4.310  13.013  0.00  0.00    +0.000 A 
ATOM     15  C   UNL     1      46.416   3.742  13.400  0.00  0.00    +0.000 A 
ATOM     16  N   UNL     1      47.519   4.484  13.700  0.00  0.00    +0.000 NA
ATOM     17  CA  UNL     1      47.334   5.834  13.587  0.00  0.00    +0.000 A 
ATOM     18  C   UNL     1      46.131   6.403  13.210  0.00  0.00    +0.000 A 
ATOM     19  N   UNL     1      45.042   5.652  12.920  0.00  0.00    +0.000 NA
BRANCH  17  20
ATOM     20  C   UNL     1      48.499   6.705  13.876  0.00  0.00    +0.000 C 
ATOM     21  O   UNL     1      48.601   7.417  14.857  0.00  0.00    +0.000 OA
BRANCH  20  22
ATOM     22  OXT UNL     1      49.430   6.605  12.899  0.00  0.00    +0.000 OA
ATOM     23  HXT UNL     1      49.235   5.813  12.343  0.00  0.00    +0.000 HD
ENDBRANCH  20  22
ENDBRANCH  17  20
ENDBRANCH  13  14
ENDBRANCH   1  13
TORSDOF 8
ENDMDL
MODEL 4
REMARK VINA RESULT:    -7.007      3.062      6.704
REMARK INTER + INTRA:         -10.372
REMARK INTER:                 -10.014
REMARK INTRA:                  -0.358
REMARK UNBOUND:                -0.498
REMARK  Name = 
REMARK  8 active torsions:
REMARK  status: ('A' for Active; 'I' for Inactive)
REMARK    1  A    between atoms: N_1  and  C_2
REMARK    2  A    between atoms: C_2  and  C_3
REMARK    3  A    between atoms: C_3  and  C_4
REMARK    4  A    between atoms: C_7  and  C_8
REMARK    5  A    between atoms: C_8  and  O_9
REMARK    6  A    between atoms: O_9  and  C_10
REMARK    7  A    between atoms: CA_13  and  C_14
REMARK    8  A    between atoms: C_14  and  OXT_16
REMARK                            x       y       z     vdW  Elec       q    Type
REMARK                         _______ _______ _______ _____ _____    ______ ____
ROOT
ATOM      1  C   UNL     1      43.732   4.584  10.495  0.00  0.00    +0.000 C 
ENDROOT
BRANCH   1   5
ATOM      2  C   UNL     1      46.813   5.769  13.310  0.00  0.00    +0.000 A 
ATOM      3  C   UNL     1      46.566   6.529  12.159  0.00  0.00    +0.000 A 
ATOM      4  C   UNL     1      45.582   6.141  11.244  0.00  0.00    +0.000 A 
ATOM      5  C   UNL     1      44.826   4.982  11.458  0.00  0.00    +0.000 A 
ATOM      6  C   UNL     1      45.091   4.206  12.592  0.00  0.00    +0.000 A 
ATOM      7  C   UNL     1      46.071   4.598  13.511  0.00  0.00    +0.000 A 
BRANCH   2   8
ATOM      8  C   UNL     1      47.893   6.163  14.294  0.00  0.00    +0.000 C 
BRANCH   8   9
ATOM      9  C   UNL     1      48.727   7.374  13.850  0.00  0.00    +0.000 C 
BRANCH   9  10
ATOM     10  N   UNL     1      50.157   7.125  14.035  0.00  0.00    +0.000 NA
ATOM     11  H   UNL     1      50.690   7.783  13.465  0.00  0.00    +0.000 HD
ATOM     12  H   UNL     1      50.392   6.195  13.688  0.00  0.00    +0.000 HD
ENDBRANCH   9  10
ENDBRANCH   8   9
ENDBRANCH   2   8
ENDBRANCH   1   5
BRANCH   1  13
ATOM     13  O   UNL     1      43.823   3.188  10.193  0.00  0.00    +0.000 OA
BRANCH  13  14
ATOM     14  C   UNL     1      44.734   2.941   9.187  0.00  0.00    +0.000 A 
ATOM     15  C   UNL     1      45.006   3.953   8.268  0.00  0.00    +0.000 A 
ATOM     16  N   UNL     1      45.908   3.812   7.257  0.00  0.00    +0.000 NA
ATOM     17  CA  UNL     1      46.526   2.593   7.222  0.00  0.00    +0.000 A 
ATOM     18  C   UNL     1      46.255   1.582   8.128  0.00  0.00    +0.000 A 
ATOM     19  N   UNL     1      45.351   1.736   9.125  0.00  0.00    +0.000 NA
BRANCH  17  20
ATOM     20  C   UNL     1      47.539   2.375   6.161  0.00  0.00    +0.000 C 
ATOM     21  O   UNL     1      48.400   1.517   6.196  0.00  0.00    +0.000 OA
BRANCH  20  22
ATOM     22  OXT UNL     1      47.379   3.263   5.153  0.00  0.00    +0.000 OA
ATOM     23  HXT UNL     1      47.515   4.177   5.499  0.00  0.00    +0.000 HD
ENDBRANCH  20  22
ENDBRANCH  17  20
ENDBRANCH  13  14
ENDBRANCH   1  13
TORSDOF 8
ENDMDL
MODEL 5
REMARK VINA RESULT:    -6.607      2.910      6.735
REMARK INTER + INTRA:          -9.809
REMARK INTER:                  -9.429
REMARK INTRA:                  -0.380
REMARK UNBOUND:                -0.498
REMARK  Name = 
REMARK  8 active torsions:
REMARK  status: ('A' for Active; 'I' for Inactive)
REMARK    1  A    between atoms: N_1  and  C_2
REMARK    2  A    between atoms: C_2  and  C_3
REMARK    3  A    between atoms: C_3  and  C_4
REMARK    4  A    between atoms: C_7  and  C_8
REMARK    5  A    between atoms: C_8  and  O_9
REMARK    6  A    between atoms: O_9  and  C_10
REMARK    7  A    between atoms: CA_13  and  C_14
REMARK    8  A    between atoms: C_14  and  OXT_16
REMARK                            x       y       z     vdW  Elec       q    Type
REMARK                         _______ _______ _______ _____ _____    ______ ____
ROOT
ATOM      1  C   UNL     1      44.351   5.649  10.217  0.00  0.00    +0.000 C 
ENDROOT
BRANCH   1   5
ATOM      2  C   UNL     1      46.830   5.338  13.763  0.00  0.00    +0.000 A 
ATOM      3  C   UNL     1      45.647   4.596  13.651  0.00  0.00    +0.000 A 
ATOM      4  C   UNL     1      44.840   4.705  12.514  0.00  0.00    +0.000 A 
ATOM      5  C   UNL     1      45.196   5.562  11.466  0.00  0.00    +0.000 A 
ATOM      6  C   UNL     1      46.363   6.326  11.589  0.00  0.00    +0.000 A 
ATOM      7  C   UNL     1      47.173   6.213  12.723  0.00  0.00    +0.000 A 
BRANCH   2   8
ATOM      8  C   UNL     1      47.697   5.250  15.000  0.00  0.00    +0.000 C 
BRANCH   8   9
ATOM      9  C   UNL     1      47.271   4.149  15.981  0.00  0.00    +0.000 C 
BRANCH   9  10
ATOM     10  N   UNL     1      48.265   3.075  16.030  0.00  0.00    +0.000 NA
ATOM     11  H   UNL     1      48.142   2.465  15.222  0.00  0.00    +0.000 HD
ATOM     12  H   UNL     1      48.102   2.493  16.852  0.00  0.00    +0.000 HD
ENDBRANCH   9  10
ENDBRANCH   8   9
ENDBRANCH   2   8
ENDBRANCH   1   5
BRANCH   1  13
ATOM     13  O   UNL     1      43.720   4.391   9.959  0.00  0.00    +0.000 OA
BRANCH  13  14
ATOM     14  C   UNL     1      44.555   3.529   9.279  0.00  0.00    +0.000 A 
ATOM     15  C   UNL     1      45.495   4.063   8.400  0.00  0.00    +0.000 A 
ATOM     16  N   UNL     1      46.380   3.295   7.704  0.00  0.00    +0.000 NA
ATOM     17  CA  UNL     1      46.269   1.954   7.946  0.00  0.00    +0.000 A 
ATOM     18  C   UNL     1      45.333   1.417   8.813  0.00  0.00    +0.000 A 
ATOM     19  N   UNL     1      44.457   2.194   9.492  0.00  0.00    +0.000 NA
BRANCH  17  20
ATOM     20  C   UNL     1      47.215   1.056   7.241  0.00  0.00    +0.000 C 
ATOM     21  O   UNL     1      47.996   1.416   6.380  0.00  0.00    +0.000 OA
BRANCH  20  22
ATOM     22  OXT UNL     1      47.089  -0.217   7.679  0.00  0.00    +0.000 OA
ATOM     23  HXT UNL     1      46.480  -0.236   8.457  0.00  0.00    +0.000 HD
ENDBRANCH  20  22
ENDBRANCH  17  20
ENDBRANCH  13  14
ENDBRANCH   1  13
TORSDOF 8
ENDMDL
MODEL 6
REMARK VINA RESULT:    -6.339      2.894      7.178
REMARK INTER + INTRA:          -9.430
REMARK INTER:                  -9.006
REMARK INTRA:                  -0.424
REMARK UNBOUND:                -0.498
REMARK  Name = 
REMARK  8 active torsions:
REMARK  status: ('A' for Active; 'I' for Inactive)
REMARK    1  A    between atoms: N_1  and  C_2
REMARK    2  A    between atoms: C_2  and  C_3
REMARK    3  A    between atoms: C_3  and  C_4
REMARK    4  A    between atoms: C_7  and  C_8
REMARK    5  A    between atoms: C_8  and  O_9
REMARK    6  A    between atoms: O_9  and  C_10
REMARK    7  A    between atoms: CA_13  and  C_14
REMARK    8  A    between atoms: C_14  and  OXT_16
REMARK                            x       y       z     vdW  Elec       q    Type
REMARK                         _______ _______ _______ _____ _____    ______ ____
ROOT
ATOM      1  C   UNL     1      45.488   6.160  10.965  0.00  0.00    +0.000 C 
ENDROOT
BRANCH   1   5
ATOM      2  C   UNL     1      47.383   5.221  14.752  0.00  0.00    +0.000 A 
ATOM      3  C   UNL     1      47.789   6.336  14.007  0.00  0.00    +0.000 A 
ATOM      4  C   UNL     1      47.188   6.632  12.779  0.00  0.00    +0.000 A 
ATOM      5  C   UNL     1      46.171   5.818  12.268  0.00  0.00    +0.000 A 
ATOM      6  C   UNL     1      45.783   4.688  12.997  0.00  0.00    +0.000 A 
ATOM      7  C   UNL     1      46.380   4.394  14.228  0.00  0.00    +0.000 A 
BRANCH   2   8
ATOM      8  C   UNL     1      48.044   4.873  16.068  0.00  0.00    +0.000 C 
BRANCH   8   9
ATOM      9  C   UNL     1      47.126   4.125  17.046  0.00  0.00    +0.000 C 
BRANCH   9  10
ATOM     10  N   UNL     1      46.685   5.004  18.131  0.00  0.00    +0.000 NA
ATOM     11  H   UNL     1      46.237   5.830  17.735  0.00  0.00    +0.000 HD
ATOM     12  H   UNL     1      47.495   5.342  18.651  0.00  0.00    +0.000 HD
ENDBRANCH   9  10
ENDBRANCH   8   9
ENDBRANCH   2   8
ENDBRANCH   1   5
BRANCH   1  13
ATOM     13  O   UNL     1      44.644   5.081  10.551  0.00  0.00    +0.000 OA
BRANCH  13  14
ATOM     14  C   UNL     1      45.229   4.324   9.557  0.00  0.00    +0.000 A 
ATOM     15  C   UNL     1      45.073   2.940   9.593  0.00  0.00    +0.000 A 
ATOM     16  N   UNL     1      45.591   2.112   8.642  0.00  0.00    +0.000 NA
ATOM     17  CA  UNL     1      46.275   2.757   7.649  0.00  0.00    +0.000 A 
ATOM     18  C   UNL     1      46.438   4.130   7.612  0.00  0.00    +0.000 A 
ATOM     19  N   UNL     1      45.922   4.939   8.568  0.00  0.00    +0.000 NA
BRANCH  17  20
ATOM     20  C   UNL     1      46.848   1.921   6.566  0.00  0.00    +0.000 C 
ATOM     21  O   UNL     1      47.276   0.793   6.719  0.00  0.00    +0.000 OA
BRANCH  20  22
ATOM     22  OXT UNL     1      46.836   2.586   5.387  0.00  0.00    +0.000 OA
ATOM     23  HXT UNL     1      47.529   2.208   4.793  0.00  0.00    +0.000 HD
ENDBRANCH  20  22
ENDBRANCH  17  20
ENDBRANCH  13  14
ENDBRANCH   1  13
TORSDOF 8
ENDMDL
MODEL 7
REMARK VINA RESULT:    -6.152      1.268      1.842
REMARK INTER + INTRA:          -9.167
REMARK INTER:                  -8.810
REMARK INTRA:                  -0.357
REMARK UNBOUND:                -0.498
REMARK  Name = 
REMARK  8 active torsions:
REMARK  status: ('A' for Active; 'I' for Inactive)
REMARK    1  A    between atoms: N_1  and  C_2
REMARK    2  A    between atoms: C_2  and  C_3
REMARK    3  A    between atoms: C_3  and  C_4
REMARK    4  A    between atoms: C_7  and  C_8
REMARK    5  A    between atoms: C_8  and  O_9
REMARK    6  A    between atoms: O_9  and  C_10
REMARK    7  A    between atoms: CA_13  and  C_14
REMARK    8  A    between atoms: C_14  and  OXT_16
REMARK                            x       y       z     vdW  Elec       q    Type
REMARK                         _______ _______ _______ _____ _____    ______ ____
ROOT
ATOM      1  C   UNL     1      44.349   4.877  11.090  0.00  0.00    +0.000 C 
ENDROOT
BRANCH   1   5
ATOM      2  C   UNL     1      45.891   2.516   7.794  0.00  0.00    +0.000 A 
ATOM      3  C   UNL     1      45.312   1.894   8.909  0.00  0.00    +0.000 A 
ATOM      4  C   UNL     1      44.827   2.654   9.978  0.00  0.00    +0.000 A 
ATOM      5  C   UNL     1      44.913   4.051   9.958  0.00  0.00    +0.000 A 
ATOM      6  C   UNL     1      45.516   4.672   8.858  0.00  0.00    +0.000 A 
ATOM      7  C   UNL     1      45.997   3.913   7.786  0.00  0.00    +0.000 A 
BRANCH   2   8
ATOM      8  C   UNL     1      46.445   1.704   6.643  0.00  0.00    +0.000 C 
BRANCH   8   9
ATOM      9  C   UNL     1      47.368   2.500   5.709  0.00  0.00    +0.000 C 
BRANCH   9  10
ATOM     10  N   UNL     1      48.629   1.792   5.487  0.00  0.00    +0.000 NA
ATOM     11  H   UNL     1      48.969   1.422   6.374  0.00  0.00    +0.000 HD
ATOM     12  H   UNL     1      49.340   2.449   5.163  0.00  0.00    +0.000 HD
ENDBRANCH   9  10
ENDBRANCH   8   9
ENDBRANCH   2   8
ENDBRANCH   1   5
BRANCH   1  13
ATOM     13  O   UNL     1      45.030   6.133  11.173  0.00  0.00    +0.000 OA
BRANCH  13  14
ATOM     14  C   UNL     1      45.936   6.157  12.213  0.00  0.00    +0.000 A 
ATOM     15  C   UNL     1      46.025   5.044  13.047  0.00  0.00    +0.000 A 
ATOM     16  N   UNL     1      46.907   4.963  14.084  0.00  0.00    +0.000 NA
ATOM     17  CA  UNL     1      47.698   6.068  14.233  0.00  0.00    +0.000 A 
ATOM     18  C   UNL     1      47.609   7.178  13.412  0.00  0.00    +0.000 A 
ATOM     19  N   UNL     1      46.724   7.245  12.389  0.00  0.00    +0.000 NA
BRANCH  17  20
ATOM     20  C   UNL     1      48.698   6.043  15.327  0.00  0.00    +0.000 C 
ATOM     21  O   UNL     1      49.676   6.764  15.384  0.00  0.00    +0.000 OA
BRANCH  20  22
ATOM     22  OXT UNL     1      48.380   5.107  16.250  0.00  0.00    +0.000 OA
ATOM     23  HXT UNL     1      48.807   5.337  17.110  0.00  0.00    +0.000 HD
ENDBRANCH  20  22
ENDBRANCH  17  20
ENDBRANCH  13  14
ENDBRANCH   1  13
TORSDOF 8
ENDMDL
MODEL 8
REMARK VINA RESULT:    -6.112      2.515      4.014
REMARK INTER + INTRA:          -9.110
REMARK INTER:                  -8.766
REMARK INTRA:                  -0.344
REMARK UNBOUND:                -0.498
REMARK  Name = 
REMARK  8 active torsions:
REMARK  status: ('A' for Active; 'I' for Inactive)
REMARK    1  A    between atoms: N_1  and  C_2
REMARK    2  A    between atoms: C_2  and  C_3
REMARK    3  A    between atoms: C_3  and  C_4
REMARK    4  A    between atoms: C_7  and  C_8
REMARK    5  A    between atoms: C_8  and  O_9
REMARK    6  A    between atoms: O_9  and  C_10
REMARK    7  A    between atoms: CA_13  and  C_14
REMARK    8  A    between atoms: C_14  and  OXT_16
REMARK                            x       y       z     vdW  Elec       q    Type
REMARK                         _______ _______ _______ _____ _____    ______ ____
ROOT
ATOM      1  C   UNL     1      45.812   4.921  13.741  0.00  0.00    +0.000 C 
ENDROOT
BRANCH   1   5
ATOM      2  C   UNL     1      45.009   4.097   9.559  0.00  0.00    +0.000 A 
ATOM      3  C   UNL     1      44.851   3.097  10.527  0.00  0.00    +0.000 A 
ATOM      4  C   UNL     1      45.123   3.358  11.874  0.00  0.00    +0.000 A 
ATOM      5  C   UNL     1      45.562   4.623  12.281  0.00  0.00    +0.000 A 
ATOM      6  C   UNL     1      45.747   5.615  11.312  0.00  0.00    +0.000 A 
ATOM      7  C   UNL     1      45.470   5.357   9.965  0.00  0.00    +0.000 A 
BRANCH   2   8
ATOM      8  C   UNL     1      44.746   3.821   8.094  0.00  0.00    +0.000 C 
BRANCH   8   9
ATOM      9  C   UNL     1      45.936   3.191   7.357  0.00  0.00    +0.000 C 
BRANCH   9  10
ATOM     10  N   UNL     1      46.874   4.217   6.899  0.00  0.00    +0.000 NA
ATOM     11  H   UNL     1      46.390   4.862   6.274  0.00  0.00    +0.000 HD
ATOM     12  H   UNL     1      47.613   3.785   6.343  0.00  0.00    +0.000 HD
ENDBRANCH   9  10
ENDBRANCH   8   9
ENDBRANCH   2   8
ENDBRANCH   1   5
BRANCH   1  13
ATOM     13  O   UNL     1      47.211   5.120  13.972  0.00  0.00    +0.000 OA
BRANCH  13  14
ATOM     14  C   UNL     1      47.564   4.812  15.269  0.00  0.00    +0.000 A 
ATOM     15  C   UNL     1      48.311   5.737  15.995  0.00  0.00    +0.000 A 
ATOM     16  N   UNL     1      48.685   5.535  17.291  0.00  0.00    +0.000 NA
ATOM     17  CA  UNL     1      48.262   4.345  17.816  0.00  0.00    +0.000 A 
ATOM     18  C   UNL     1      47.525   3.420  17.098  0.00  0.00    +0.000 A 
ATOM     19  N   UNL     1      47.167   3.634  15.809  0.00  0.00    +0.000 NA
BRANCH  17  20
ATOM     20  C   UNL     1      48.612   4.065  19.230  0.00  0.00    +0.000 C 
ATOM     21  O   UNL     1      49.219   4.830  19.955  0.00  0.00    +0.000 OA
BRANCH  20  22
ATOM     22  OXT UNL     1      48.170   2.842  19.602  0.00  0.00    +0.000 OA
ATOM     23  HXT UNL     1      47.555   2.936  20.369  0.00  0.00    +0.000 HD
ENDBRANCH  20  22
ENDBRANCH  17  20
ENDBRANCH  13  14
ENDBRANCH   1  13
TORSDOF 8
ENDMDL
MODEL 9
REMARK VINA RESULT:    -6.057      3.418      7.129
REMARK INTER + INTRA:          -9.034
REMARK INTER:                  -8.602
REMARK INTRA:                  -0.432
REMARK UNBOUND:                -0.498
REMARK  Name = 
REMARK  8 active torsions:
REMARK  status: ('A' for Active; 'I' for Inactive)
REMARK    1  A    between atoms: N_1  and  C_2
REMARK    2  A    between atoms: C_2  and  C_3
REMARK    3  A    between atoms: C_3  and  C_4
REMARK    4  A    between atoms: C_7  and  C_8
REMARK    5  A    between atoms: C_8  and  O_9
REMARK    6  A    between atoms: O_9  and  C_10
REMARK    7  A    between atoms: CA_13  and  C_14
REMARK    8  A    between atoms: C_14  and  OXT_16
REMARK                            x       y       z     vdW  Elec       q    Type
REMARK                         _______ _______ _______ _____ _____    ______ ____
ROOT
ATOM      1  C   UNL     1      45.089   4.413  11.837  0.00  0.00    +0.000 C 
ENDROOT
BRANCH   1   5
ATOM      2  C   UNL     1      46.563   8.479  12.166  0.00  0.00    +0.000 A 
ATOM      3  C   UNL     1      47.427   7.390  12.340  0.00  0.00    +0.000 A 
ATOM      4  C   UNL     1      46.950   6.078  12.247  0.00  0.00    +0.000 A 
ATOM      5  C   UNL     1      45.599   5.828  11.983  0.00  0.00    +0.000 A 
ATOM      6  C   UNL     1      44.729   6.915  11.837  0.00  0.00    +0.000 A 
ATOM      7  C   UNL     1      45.206   8.226  11.924  0.00  0.00    +0.000 A 
BRANCH   2   8
ATOM      8  C   UNL     1      47.060   9.903  12.292  0.00  0.00    +0.000 C 
BRANCH   8   9
ATOM      9  C   UNL     1      48.421  10.027  12.993  0.00  0.00    +0.000 C 
BRANCH   9  10
ATOM     10  N   UNL     1      48.254  10.250  14.430  0.00  0.00    +0.000 NA
ATOM     11  H   UNL     1      49.154  10.130  14.896  0.00  0.00    +0.000 HD
ATOM     12  H   UNL     1      47.636   9.538  14.819  0.00  0.00    +0.000 HD
ENDBRANCH   9  10
ENDBRANCH   8   9
ENDBRANCH   2   8
ENDBRANCH   1   5
BRANCH   1  13
ATOM     13  O   UNL     1      44.283   4.297  10.660  0.00  0.00    +0.000 OA
BRANCH  13  14
ATOM     14  C   UNL     1      44.994   3.770   9.602  0.00  0.00    +0.000 A 
ATOM     15  C   UNL     1      45.593   4.644   8.697  0.00  0.00    +0.000 A 
ATOM     16  N   UNL     1      46.337   4.219   7.637  0.00  0.00    +0.000 NA
ATOM     17  CA  UNL     1      46.447   2.860   7.540  0.00  0.00    +0.000 A 
ATOM     18  C   UNL     1      45.849   1.987   8.431  0.00  0.00    +0.000 A 
ATOM     19  N   UNL     1      45.108   2.425   9.476  0.00  0.00    +0.000 NA
BRANCH  17  20
ATOM     20  C   UNL     1      47.262   2.323   6.423  0.00  0.00    +0.000 C 
ATOM     21  O   UNL     1      47.152   2.668   5.262  0.00  0.00    +0.000 OA
BRANCH  20  22
ATOM     22  OXT UNL     1      48.139   1.395   6.869  0.00  0.00    +0.000 OA
ATOM     23  HXT UNL     1      48.260   1.502   7.843  0.00  0.00    +0.000 HD
ENDBRANCH  20  22
ENDBRANCH  17  20
ENDBRANCH  13  14
ENDBRANCH   1  13
TORSDOF 8
ENDMDL
