MODEL 1
REMARK VINA RESULT:    -8.699      0.000      0.000
REMARK INTER + INTRA:         -11.954
REMARK INTER:                 -11.241
REMARK INTRA:                  -0.712
REMARK UNBOUND:                -0.712
REMARK  Name = 
REMARK  5 active torsions:
REMARK  status: ('A' for Active; 'I' for Inactive)
REMARK    1  A    between atoms: C_2  and  C_4
REMARK    2  A    between atoms: C_7  and  N_8
REMARK    3  A    between atoms: N_8  and  C_9
REMARK    4  A    between atoms: C_9  and  C_10
REMARK    5  A    between atoms: C_14  and  C_15
REMARK                            x       y       z     vdW  Elec       q    Type
REMARK                         _______ _______ _______ _____ _____    ______ ____
ROOT
ATOM      1  C   UNL     1      43.594   4.427  11.220  0.00  0.00    +0.000 C 
ENDROOT
BRANCH   1   2
ATOM      2  C   UNL     1      44.823   4.865  11.984  0.00  0.00    +0.000 A 
ATOM      3  C   UNL     1      45.479   4.006  12.868  0.00  0.00    +0.000 A 
ATOM      4  C   UNL     1      46.635   4.431  13.519  0.00  0.00    +0.000 A 
ATOM      5  C   UNL     1      47.145   5.714  13.289  0.00  0.00    +0.000 A 
ATOM      6  C   UNL     1      46.524   6.604  12.396  0.00  0.00    +0.000 A 
ATOM      7  C   UNL     1      45.354   6.152  11.760  0.00  0.00    +0.000 A 
BRANCH   6   8
ATOM      8  C   UNL     1      47.090   7.948  12.118  0.00  0.00    +0.000 A 
ATOM      9  C   UNL     1      46.296   9.112  12.172  0.00  0.00    +0.000 A 
ATOM     10  C   UNL     1      46.830  10.379  11.900  0.00  0.00    +0.000 A 
ATOM     11  C   UNL     1      48.175  10.512  11.578  0.00  0.00    +0.000 A 
ATOM     12  C   UNL     1      48.970   9.377  11.519  0.00  0.00    +0.000 A 
ATOM     13  F   UNL     1      50.267   9.496  11.208  0.00  0.00    +0.000 F 
ATOM     14  C   UNL     1      48.443   8.112  11.775  0.00  0.00    +0.000 A 
ENDBRANCH   6   8
ENDBRANCH   1   2
BRANCH   1  15
ATOM     15  N   UNL     1      43.782   4.734   9.807  0.00  0.00    +0.000 N 
ATOM     16  H   UNL     1      42.908   4.719   9.292  0.00  0.00    +0.000 HD
BRANCH  15  20
ATOM     17  C   UNL     1      46.510   2.496   7.714  0.00  0.00    +0.000 A 
ATOM     18  C   UNL     1      46.495   3.874   7.602  0.00  0.00    +0.000 A 
ATOM     19  N   UNL     1      45.641   4.654   8.315  0.00  0.00    +0.000 NA
ATOM     20  C   UNL     1      44.788   4.021   9.150  0.00  0.00    +0.000 A 
ATOM     21  C   UNL     1      44.836   2.624   9.263  0.00  0.00    +0.000 A 
ATOM     22  N   UNL     1      45.686   1.824   8.564  0.00  0.00    +0.000 NA
BRANCH  17  24
ATOM     23  N   UNL     1      48.514   2.355   6.363  0.00  0.00    +0.000 N 
ATOM     24  C   UNL     1      47.419   1.695   6.850  0.00  0.00    +0.000 C 
ATOM     25  O   UNL     1      47.217   0.511   6.608  0.00  0.00    +0.000 OA
ATOM     26  H   UNL     1      49.194   1.850   5.815  0.00  0.00    +0.000 HD
ATOM     27  H   UNL     1      48.676   3.324   6.615  0.00  0.00    +0.000 HD
ENDBRANCH  17  24
ENDBRANCH  15  20
ENDBRANCH   1  15
TORSDOF 5
ENDMDL
MODEL 2
REMARK VINA RESULT:    -8.696      0.912      1.338
REMARK INTER + INTRA:         -11.951
REMARK INTER:                 -11.279
REMARK INTRA:                  -0.671
REMARK UNBOUND:                -0.712
REMARK  Name = 
REMARK  5 active torsions:
REMARK  status: ('A' for Active; 'I' for Inactive)
REMARK    1  A    between atoms: C_2  and  C_4
REMARK    2  A    between atoms: C_7  and  N_8
REMARK    3  A    between atoms: N_8  and  C_9
REMARK    4  A    between atoms: C_9  and  C_10
REMARK    5  A    between atoms: C_14  and  C_15
REMARK                            x       y       z     vdW  Elec       q    Type
REMARK                         _______ _______ _______ _____ _____    ______ ____
ROOT
ATOM      1  C   UNL     1      43.608   4.439  11.249  0.00  0.00    +0.000 C 
ENDROOT
BRANCH   1   2
ATOM      2  C   UNL     1      44.865   4.811  12.002  0.00  0.00    +0.000 A 
ATOM      3  C   UNL     1      45.493   3.911  12.866  0.00  0.00    +0.000 A 
ATOM      4  C   UNL     1      46.675   4.274  13.507  0.00  0.00    +0.000 A 
ATOM      5  C   UNL     1      47.240   5.536  13.287  0.00  0.00    +0.000 A 
ATOM      6  C   UNL     1      46.648   6.465  12.414  0.00  0.00    +0.000 A 
ATOM      7  C   UNL     1      45.451   6.075  11.788  0.00  0.00    +0.000 A 
BRANCH   6   8
ATOM      8  C   UNL     1      47.270   7.786  12.146  0.00  0.00    +0.000 A 
ATOM      9  C   UNL     1      48.622   7.905  11.765  0.00  0.00    +0.000 A 
ATOM     10  C   UNL     1      49.211   9.154  11.521  0.00  0.00    +0.000 A 
ATOM     11  C   UNL     1      48.454  10.313  11.642  0.00  0.00    +0.000 A 
ATOM     12  C   UNL     1      47.123  10.214  12.017  0.00  0.00    +0.000 A 
ATOM     13  F   UNL     1      46.388  11.328  12.138  0.00  0.00    +0.000 F 
ATOM     14  C   UNL     1      46.535   8.978  12.274  0.00  0.00    +0.000 A 
ENDBRANCH   6   8
ENDBRANCH   1   2
BRANCH   1  15
ATOM     15  N   UNL     1      43.793   4.751   9.837  0.00  0.00    +0.000 N 
ATOM     16  H   UNL     1      42.918   4.743   9.324  0.00  0.00    +0.000 HD
BRANCH  15  20
ATOM     17  C   UNL     1      46.501   2.506   7.726  0.00  0.00    +0.000 A 
ATOM     18  C   UNL     1      46.496   3.884   7.622  0.00  0.00    +0.000 A 
ATOM     19  N   UNL     1      45.649   4.666   8.342  0.00  0.00    +0.000 NA
ATOM     20  C   UNL     1      44.793   4.034   9.174  0.00  0.00    +0.000 A 
ATOM     21  C   UNL     1      44.830   2.636   9.278  0.00  0.00    +0.000 A 
ATOM     22  N   UNL     1      45.673   1.834   8.573  0.00  0.00    +0.000 NA
BRANCH  17  24
ATOM     23  N   UNL     1      48.486   2.366   6.348  0.00  0.00    +0.000 N 
ATOM     24  C   UNL     1      47.402   1.703   6.855  0.00  0.00    +0.000 C 
ATOM     25  O   UNL     1      47.204   0.516   6.626  0.00  0.00    +0.000 OA
ATOM     26  H   UNL     1      49.161   1.859   5.793  0.00  0.00    +0.000 HD
ATOM     27  H   UNL     1      48.646   3.337   6.589  0.00  0.00    +0.000 HD
ENDBRANCH  17  24
ENDBRANCH  15  20
ENDBRANCH   1  15
TORSDOF 5
ENDMDL
MODEL 3
REMARK VINA RESULT:    -8.406      2.735      4.196
REMARK INTER + INTRA:         -11.575
REMARK INTER:                 -10.927
REMARK INTRA:                  -0.648
REMARK UNBOUND:                -0.712
REMARK  Name = 
REMARK  5 active torsions:
REMARK  status: ('A' for Active; 'I' for Inactive)
REMARK    1  A    between atoms: C_2  and  C_4
REMARK    2  A    between atoms: C_7  and  N_8
REMARK    3  A    between atoms: N_8  and  C_9
REMARK    4  A    between atoms: C_9  and  C_10
REMARK    5  A    between atoms: C_14  and  C_15
REMARK                            x       y       z     vdW  Elec       q    Type
REMARK                         _______ _______ _______ _____ _____    ______ ____
ROOT
ATOM      1  C   UNL     1      44.015   4.572  11.476  0.00  0.00    +0.000 C 
ENDROOT
BRANCH   1   2
ATOM      2  C   UNL     1      45.258   5.274  11.977  0.00  0.00    +0.000 A 
ATOM      3  C   UNL     1      45.830   6.337  11.275  0.00  0.00    +0.000 A 
ATOM      4  C   UNL     1      46.947   6.989  11.792  0.00  0.00    +0.000 A 
ATOM      5  C   UNL     1      47.498   6.586  13.014  0.00  0.00    +0.000 A 
ATOM      6  C   UNL     1      46.944   5.530  13.759  0.00  0.00    +0.000 A 
ATOM      7  C   UNL     1      45.822   4.886  13.209  0.00  0.00    +0.000 A 
BRANCH   6   8
ATOM      8  C   UNL     1      47.501   5.132  15.076  0.00  0.00    +0.000 A 
ATOM      9  C   UNL     1      48.512   5.882  15.712  0.00  0.00    +0.000 A 
ATOM     10  C   UNL     1      49.043   5.499  16.951  0.00  0.00    +0.000 A 
ATOM     11  C   UNL     1      48.565   4.361  17.589  0.00  0.00    +0.000 A 
ATOM     12  C   UNL     1      47.572   3.611  16.978  0.00  0.00    +0.000 A 
ATOM     13  F   UNL     1      47.108   2.511  17.586  0.00  0.00    +0.000 F 
ATOM     14  C   UNL     1      47.049   3.978  15.740  0.00  0.00    +0.000 A 
ENDBRANCH   6   8
ENDBRANCH   1   2
BRANCH   1  15
ATOM     15  N   UNL     1      43.913   4.765  10.035  0.00  0.00    +0.000 N 
ATOM     16  H   UNL     1      42.950   4.845   9.726  0.00  0.00    +0.000 HD
BRANCH  15  20
ATOM     17  C   UNL     1      46.318   2.287   7.820  0.00  0.00    +0.000 A 
ATOM     18  C   UNL     1      45.471   1.770   8.783  0.00  0.00    +0.000 A 
ATOM     19  N   UNL     1      44.624   2.552   9.503  0.00  0.00    +0.000 NA
ATOM     20  C   UNL     1      44.644   3.877   9.240  0.00  0.00    +0.000 A 
ATOM     21  C   UNL     1      45.495   4.375   8.245  0.00  0.00    +0.000 A 
ATOM     22  N   UNL     1      46.347   3.612   7.508  0.00  0.00    +0.000 NA
BRANCH  17  24
ATOM     23  N   UNL     1      48.398   1.988   6.618  0.00  0.00    +0.000 N 
ATOM     24  C   UNL     1      47.275   1.388   7.119  0.00  0.00    +0.000 C 
ATOM     25  O   UNL     1      47.086   0.182   7.018  0.00  0.00    +0.000 OA
ATOM     26  H   UNL     1      49.108   1.420   6.179  0.00  0.00    +0.000 HD
ATOM     27  H   UNL     1      48.547   2.981   6.754  0.00  0.00    +0.000 HD
ENDBRANCH  17  24
ENDBRANCH  15  20
ENDBRANCH   1  15
TORSDOF 5
ENDMDL
MODEL 4
REMARK VINA RESULT:    -8.338      4.434      7.299
REMARK INTER + INTRA:         -11.487
REMARK INTER:                 -11.104
REMARK INTRA:                  -0.383
REMARK UNBOUND:                -0.712
REMARK  Name = 
REMARK  5 active torsions:
REMARK  status: ('A' for Active; 'I' for Inactive)
REMARK    1  A    between atoms: C_2  and  C_4
REMARK    2  A    between atoms: C_7  and  N_8
REMARK    3  A    between atoms: N_8  and  C_9
REMARK    4  A    between atoms: C_9  and  C_10
REMARK    5  A    between atoms: C_14  and  C_15
REMARK                            x       y       z     vdW  Elec       q    Type
REMARK                         _______ _______ _______ _____ _____    ______ ____
ROOT
ATOM      1  C   UNL     1      46.271   7.132  11.913  0.00  0.00    +0.000 C 
ENDROOT
BRANCH   1   2
ATOM      2  C   UNL     1      45.391   6.123  11.210  0.00  0.00    +0.000 A 
ATOM      3  C   UNL     1      44.016   6.061  11.447  0.00  0.00    +0.000 A 
ATOM      4  C   UNL     1      43.232   5.148  10.747  0.00  0.00    +0.000 A 
ATOM      5  C   UNL     1      43.814   4.294   9.803  0.00  0.00    +0.000 A 
ATOM      6  C   UNL     1      45.191   4.333   9.524  0.00  0.00    +0.000 A 
ATOM      7  C   UNL     1      45.959   5.259  10.252  0.00  0.00    +0.000 A 
BRANCH   6   8
ATOM      8  C   UNL     1      45.801   3.459   8.492  0.00  0.00    +0.000 A 
ATOM      9  C   UNL     1      46.315   3.981   7.287  0.00  0.00    +0.000 A 
ATOM     10  C   UNL     1      46.883   3.153   6.309  0.00  0.00    +0.000 A 
ATOM     11  C   UNL     1      46.960   1.782   6.520  0.00  0.00    +0.000 A 
ATOM     12  C   UNL     1      46.458   1.251   7.699  0.00  0.00    +0.000 A 
ATOM     13  F   UNL     1      46.528  -0.070   7.909  0.00  0.00    +0.000 F 
ATOM     14  C   UNL     1      45.881   2.067   8.670  0.00  0.00    +0.000 A 
ENDBRANCH   6   8
ENDBRANCH   1   2
BRANCH   1  15
ATOM     15  N   UNL     1      47.500   6.473  12.339  0.00  0.00    +0.000 N 
ATOM     16  H   UNL     1      47.911   5.914  11.599  0.00  0.00    +0.000 HD
BRANCH  15  20
ATOM     17  C   UNL     1      47.472   4.191  15.748  0.00  0.00    +0.000 A 
ATOM     18  C   UNL     1      48.128   5.407  15.720  0.00  0.00    +0.000 A 
ATOM     19  N   UNL     1      48.119   6.215  14.627  0.00  0.00    +0.000 NA
ATOM     20  C   UNL     1      47.437   5.774  13.548  0.00  0.00    +0.000 A 
ATOM     21  C   UNL     1      46.762   4.547  13.607  0.00  0.00    +0.000 A 
ATOM     22  N   UNL     1      46.752   3.726  14.691  0.00  0.00    +0.000 NA
BRANCH  17  24
ATOM     23  N   UNL     1      48.856   3.031  17.361  0.00  0.00    +0.000 N 
ATOM     24  C   UNL     1      47.583   3.319  16.949  0.00  0.00    +0.000 C 
ATOM     25  O   UNL     1      46.599   2.906  17.550  0.00  0.00    +0.000 OA
ATOM     26  H   UNL     1      48.993   2.488  18.201  0.00  0.00    +0.000 HD
ATOM     27  H   UNL     1      49.650   3.423  16.868  0.00  0.00    +0.000 HD
ENDBRANCH  17  24
ENDBRANCH  15  20
ENDBRANCH   1  15
TORSDOF 5
ENDMDL
MODEL 5
REMARK VINA RESULT:    -8.240      3.975      6.797
REMARK INTER + INTRA:         -11.361
REMARK INTER:                 -10.538
REMARK INTRA:                  -0.823
REMARK UNBOUND:                -0.712
REMARK  Name = 
REMARK  5 active torsions:
REMARK  status: ('A' for Active; 'I' for Inactive)
REMARK    1  A    between atoms: C_2  and  C_4
REMARK    2  A    between atoms: C_7  and  N_8
REMARK    3  A    between atoms: N_8  and  C_9
REMARK    4  A    between atoms: C_9  and  C_10
REMARK    5  A    between atoms: C_14  and  C_15
REMARK                            x       y       z     vdW  Elec       q    Type
REMARK                         _______ _______ _______ _____ _____    ______ ____
ROOT
ATOM      1  C   UNL     1      44.116   6.723  11.470  0.00  0.00    +0.000 C 
ENDROOT
BRANCH   1   2
ATOM      2  C   UNL     1      44.102   5.238  11.183  0.00  0.00    +0.000 A 
ATOM      3  C   UNL     1      43.305   4.358  11.919  0.00  0.00    +0.000 A 
ATOM      4  C   UNL     1      43.285   3.004  11.593  0.00  0.00    +0.000 A 
ATOM      5  C   UNL     1      44.056   2.520  10.530  0.00  0.00    +0.000 A 
ATOM      6  C   UNL     1      44.860   3.374   9.755  0.00  0.00    +0.000 A 
ATOM      7  C   UNL     1      44.868   4.735  10.112  0.00  0.00    +0.000 A 
BRANCH   6   8
ATOM      8  C   UNL     1      45.643   2.869   8.600  0.00  0.00    +0.000 A 
ATOM      9  C   UNL     1      46.074   3.725   7.566  0.00  0.00    +0.000 A 
ATOM     10  C   UNL     1      46.806   3.245   6.470  0.00  0.00    +0.000 A 
ATOM     11  C   UNL     1      47.133   1.896   6.392  0.00  0.00    +0.000 A 
ATOM     12  C   UNL     1      46.716   1.041   7.400  0.00  0.00    +0.000 A 
ATOM     13  F   UNL     1      47.026  -0.261   7.330  0.00  0.00    +0.000 F 
ATOM     14  C   UNL     1      45.977   1.509   8.485  0.00  0.00    +0.000 A 
ENDBRANCH   6   8
ENDBRANCH   1   2
BRANCH   1  15
ATOM     15  N   UNL     1      44.774   6.949  12.752  0.00  0.00    +0.000 N 
ATOM     16  H   UNL     1      44.280   7.628  13.321  0.00  0.00    +0.000 HD
BRANCH  15  20
ATOM     17  C   UNL     1      48.823   7.493  12.382  0.00  0.00    +0.000 A 
ATOM     18  C   UNL     1      47.945   8.517  12.080  0.00  0.00    +0.000 A 
ATOM     19  N   UNL     1      46.601   8.393  12.236  0.00  0.00    +0.000 NA
ATOM     20  C   UNL     1      46.147   7.209  12.702  0.00  0.00    +0.000 A 
ATOM     21  C   UNL     1      47.058   6.193  13.022  0.00  0.00    +0.000 A 
ATOM     22  N   UNL     1      48.407   6.297  12.880  0.00  0.00    +0.000 NA
BRANCH  17  24
ATOM     23  N   UNL     1      51.062   7.881  13.219  0.00  0.00    +0.000 N 
ATOM     24  C   UNL     1      50.278   7.667  12.118  0.00  0.00    +0.000 C 
ATOM     25  O   UNL     1      50.751   7.597  10.991  0.00  0.00    +0.000 OA
ATOM     26  H   UNL     1      52.063   7.953  13.108  0.00  0.00    +0.000 HD
ATOM     27  H   UNL     1      50.646   7.891  14.144  0.00  0.00    +0.000 HD
ENDBRANCH  17  24
ENDBRANCH  15  20
ENDBRANCH   1  15
TORSDOF 5
ENDMDL
MODEL 6
REMARK VINA RESULT:    -7.874      5.464      8.264
REMARK INTER + INTRA:         -10.888
REMARK INTER:                 -10.304
REMARK INTRA:                  -0.584
REMARK UNBOUND:                -0.712
REMARK  Name = 
REMARK  5 active torsions:
REMARK  status: ('A' for Active; 'I' for Inactive)
REMARK    1  A    between atoms: C_2  and  C_4
REMARK    2  A    between atoms: C_7  and  N_8
REMARK    3  A    between atoms: N_8  and  C_9
REMARK    4  A    between atoms: C_9  and  C_10
REMARK    5  A    between atoms: C_14  and  C_15
REMARK                            x       y       z     vdW  Elec       q    Type
REMARK                         _______ _______ _______ _____ _____    ______ ____
ROOT
ATOM      1  C   UNL     1      45.943   5.314  13.870  0.00  0.00    +0.000 C 
ENDROOT
BRANCH   1   2
ATOM      2  C   UNL     1      45.051   5.033  12.681  0.00  0.00    +0.000 A 
ATOM      3  C   UNL     1      43.718   5.450  12.654  0.00  0.00    +0.000 A 
ATOM      4  C   UNL     1      42.941   5.214  11.522  0.00  0.00    +0.000 A 
ATOM      5  C   UNL     1      43.489   4.564  10.411  0.00  0.00    +0.000 A 
ATOM      6  C   UNL     1      44.830   4.142  10.392  0.00  0.00    +0.000 A 
ATOM      7  C   UNL     1      45.588   4.386  11.551  0.00  0.00    +0.000 A 
BRANCH   6   8
ATOM      8  C   UNL     1      45.424   3.492   9.197  0.00  0.00    +0.000 A 
ATOM      9  C   UNL     1      45.868   4.243   8.089  0.00  0.00    +0.000 A 
ATOM     10  C   UNL     1      46.421   3.628   6.957  0.00  0.00    +0.000 A 
ATOM     11  C   UNL     1      46.553   2.245   6.914  0.00  0.00    +0.000 A 
ATOM     12  C   UNL     1      46.120   1.491   7.994  0.00  0.00    +0.000 A 
ATOM     13  F   UNL     1      46.243   0.158   7.958  0.00  0.00    +0.000 F 
ATOM     14  C   UNL     1      45.558   2.095   9.117  0.00  0.00    +0.000 A 
ENDBRANCH   6   8
ENDBRANCH   1   2
BRANCH   1  15
ATOM     15  N   UNL     1      46.484   4.052  14.362  0.00  0.00    +0.000 N 
ATOM     16  H   UNL     1      45.789   3.314  14.369  0.00  0.00    +0.000 HD
BRANCH  15  20
ATOM     17  C   UNL     1      48.388   4.480  17.970  0.00  0.00    +0.000 A 
ATOM     18  C   UNL     1      47.663   3.337  17.688  0.00  0.00    +0.000 A 
ATOM     19  N   UNL     1      47.059   3.137  16.487  0.00  0.00    +0.000 NA
ATOM     20  C   UNL     1      47.193   4.114  15.565  0.00  0.00    +0.000 A 
ATOM     21  C   UNL     1      47.952   5.254  15.866  0.00  0.00    +0.000 A 
ATOM     22  N   UNL     1      48.570   5.473  17.058  0.00  0.00    +0.000 NA
BRANCH  17  24
ATOM     23  N   UNL     1      48.528   3.799  20.289  0.00  0.00    +0.000 N 
ATOM     24  C   UNL     1      48.962   4.672  19.330  0.00  0.00    +0.000 C 
ATOM     25  O   UNL     1      49.792   5.541  19.573  0.00  0.00    +0.000 OA
ATOM     26  H   UNL     1      48.922   3.847  21.218  0.00  0.00    +0.000 HD
ATOM     27  H   UNL     1      47.873   3.064  20.048  0.00  0.00    +0.000 HD
ENDBRANCH  17  24
ENDBRANCH  15  20
ENDBRANCH   1  15
TORSDOF 5
ENDMDL
MODEL 7
REMARK VINA RESULT:    -7.735      1.276      2.225
REMARK INTER + INTRA:         -10.708
REMARK INTER:                  -9.932
REMARK INTRA:                  -0.776
REMARK UNBOUND:                -0.712
REMARK  Name = 
REMARK  5 active torsions:
REMARK  status: ('A' for Active; 'I' for Inactive)
REMARK    1  A    between atoms: C_2  and  C_4
REMARK    2  A    between atoms: C_7  and  N_8
REMARK    3  A    between atoms: N_8  and  C_9
REMARK    4  A    between atoms: C_9  and  C_10
REMARK    5  A    between atoms: C_14  and  C_15
REMARK                            x       y       z     vdW  Elec       q    Type
REMARK                         _______ _______ _______ _____ _____    ______ ____
ROOT
ATOM      1  C   UNL     1      44.120   5.002  11.345  0.00  0.00    +0.000 C 
ENDROOT
BRANCH   1   2
ATOM      2  C   UNL     1      44.737   6.375  11.485  0.00  0.00    +0.000 A 
ATOM      3  C   UNL     1      43.981   7.537  11.314  0.00  0.00    +0.000 A 
ATOM      4  C   UNL     1      44.574   8.784  11.496  0.00  0.00    +0.000 A 
ATOM      5  C   UNL     1      45.923   8.879  11.855  0.00  0.00    +0.000 A 
ATOM      6  C   UNL     1      46.716   7.735  12.052  0.00  0.00    +0.000 A 
ATOM      7  C   UNL     1      46.093   6.490  11.852  0.00  0.00    +0.000 A 
BRANCH   6   8
ATOM      8  C   UNL     1      48.134   7.835  12.476  0.00  0.00    +0.000 A 
ATOM      9  C   UNL     1      48.503   7.841  13.837  0.00  0.00    +0.000 A 
ATOM     10  C   UNL     1      49.843   7.944  14.236  0.00  0.00    +0.000 A 
ATOM     11  C   UNL     1      50.847   8.032  13.280  0.00  0.00    +0.000 A 
ATOM     12  C   UNL     1      50.502   8.029  11.937  0.00  0.00    +0.000 A 
ATOM     13  F   UNL     1      51.465   8.115  11.009  0.00  0.00    +0.000 F 
ATOM     14  C   UNL     1      49.172   7.939  11.533  0.00  0.00    +0.000 A 
ENDBRANCH   6   8
ENDBRANCH   1   2
BRANCH   1  15
ATOM     15  N   UNL     1      43.852   4.747   9.934  0.00  0.00    +0.000 N 
ATOM     16  H   UNL     1      42.928   4.355   9.785  0.00  0.00    +0.000 HD
BRANCH  15  20
ATOM     17  C   UNL     1      46.514   2.527   7.740  0.00  0.00    +0.000 A 
ATOM     18  C   UNL     1      46.469   3.902   7.610  0.00  0.00    +0.000 A 
ATOM     19  N   UNL     1      45.637   4.677   8.354  0.00  0.00    +0.000 NA
ATOM     20  C   UNL     1      44.837   4.041   9.238  0.00  0.00    +0.000 A 
ATOM     21  C   UNL     1      44.916   2.647   9.367  0.00  0.00    +0.000 A 
ATOM     22  N   UNL     1      45.745   1.853   8.638  0.00  0.00    +0.000 NA
BRANCH  17  24
ATOM     23  N   UNL     1      48.495   2.380   6.356  0.00  0.00    +0.000 N 
ATOM     24  C   UNL     1      47.394   1.729   6.842  0.00  0.00    +0.000 C 
ATOM     25  O   UNL     1      47.164   0.556   6.575  0.00  0.00    +0.000 OA
ATOM     26  H   UNL     1      49.156   1.874   5.784  0.00  0.00    +0.000 HD
ATOM     27  H   UNL     1      48.681   3.338   6.629  0.00  0.00    +0.000 HD
ENDBRANCH  17  24
ENDBRANCH  15  20
ENDBRANCH   1  15
TORSDOF 5
ENDMDL
MODEL 8
REMARK VINA RESULT:    -7.300      4.538      7.324
REMARK INTER + INTRA:         -10.146
REMARK INTER:                  -9.471
REMARK INTRA:                  -0.675
REMARK UNBOUND:                -0.712
REMARK  Name = 
REMARK  5 active torsions:
REMARK  status: ('A' for Active; 'I' for Inactive)
REMARK    1  A    between atoms: C_2  and  C_4
REMARK    2  A    between atoms: C_7  and  N_8
REMARK    3  A    between atoms: N_8  and  C_9
REMARK    4  A    between atoms: C_9  and  C_10
REMARK    5  A    between atoms: C_14  and  C_15
REMARK                            x       y       z     vdW  Elec       q    Type
REMARK                         _______ _______ _______ _____ _____    ______ ____
ROOT
ATOM      1  C   UNL     1      45.521   7.507  11.907  0.00  0.00    +0.000 C 
ENDROOT
BRANCH   1   2
ATOM      2  C   UNL     1      44.872   6.234  11.412  0.00  0.00    +0.000 A 
ATOM      3  C   UNL     1      43.616   5.829  11.869  0.00  0.00    +0.000 A 
ATOM      4  C   UNL     1      43.030   4.674  11.355  0.00  0.00    +0.000 A 
ATOM      5  C   UNL     1      43.692   3.920  10.380  0.00  0.00    +0.000 A 
ATOM      6  C   UNL     1      44.950   4.301   9.882  0.00  0.00    +0.000 A 
ATOM      7  C   UNL     1      45.521   5.465  10.425  0.00  0.00    +0.000 A 
BRANCH   6   8
ATOM      8  C   UNL     1      45.633   3.526   8.816  0.00  0.00    +0.000 A 
ATOM      9  C   UNL     1      46.220   4.157   7.700  0.00  0.00    +0.000 A 
ATOM     10  C   UNL     1      46.856   3.423   6.690  0.00  0.00    +0.000 A 
ATOM     11  C   UNL     1      46.929   2.038   6.779  0.00  0.00    +0.000 A 
ATOM     12  C   UNL     1      46.355   1.401   7.869  0.00  0.00    +0.000 A 
ATOM     13  F   UNL     1      46.420   0.066   7.960  0.00  0.00    +0.000 F 
ATOM     14  C   UNL     1      45.710   2.123   8.870  0.00  0.00    +0.000 A 
ENDBRANCH   6   8
ENDBRANCH   1   2
BRANCH   1  15
ATOM     15  N   UNL     1      46.082   7.267  13.232  0.00  0.00    +0.000 N 
ATOM     16  H   UNL     1      45.506   7.660  13.969  0.00  0.00    +0.000 HD
BRANCH  15  20
ATOM     17  C   UNL     1      50.114   7.939  13.571  0.00  0.00    +0.000 A 
ATOM     18  C   UNL     1      49.319   8.788  12.824  0.00  0.00    +0.000 A 
ATOM     19  N   UNL     1      47.974   8.628  12.727  0.00  0.00    +0.000 NA
ATOM     20  C   UNL     1      47.432   7.588  13.396  0.00  0.00    +0.000 A 
ATOM     21  C   UNL     1      48.255   6.753  14.165  0.00  0.00    +0.000 A 
ATOM     22  N   UNL     1      49.603   6.898  14.282  0.00  0.00    +0.000 NA
BRANCH  17  24
ATOM     23  N   UNL     1      52.231   7.780  14.735  0.00  0.00    +0.000 N 
ATOM     24  C   UNL     1      51.591   8.125  13.576  0.00  0.00    +0.000 C 
ATOM     25  O   UNL     1      52.202   8.535  12.597  0.00  0.00    +0.000 OA
ATOM     26  H   UNL     1      53.238   7.834  14.780  0.00  0.00    +0.000 HD
ATOM     27  H   UNL     1      51.703   7.404  15.514  0.00  0.00    +0.000 HD
ENDBRANCH  17  24
ENDBRANCH  15  20
ENDBRANCH   1  15
TORSDOF 5
ENDMDL
MODEL 9
REMARK VINA RESULT:    -7.093      5.128      8.073
REMARK INTER + INTRA:          -9.879
REMARK INTER:                  -9.261
REMARK INTRA:                  -0.617
REMARK UNBOUND:                -0.712
REMARK  Name = 
REMARK  5 active torsions:
REMARK  status: ('A' for Active; 'I' for Inactive)
REMARK    1  A    between atoms: C_2  and  C_4
REMARK    2  A    between atoms: C_7  and  N_8
REMARK    3  A    between atoms: N_8  and  C_9
REMARK    4  A    between atoms: C_9  and  C_10
REMARK    5  A    between atoms: C_14  and  C_15
REMARK                            x       y       z     vdW  Elec       q    Type
REMARK                         _______ _______ _______ _____ _____    ______ ____
ROOT
ATOM      1  C   UNL     1      45.850   7.312  12.015  0.00  0.00    +0.000 C 
ENDROOT
BRANCH   1   2
ATOM      2  C   UNL     1      45.071   6.171  11.401  0.00  0.00    +0.000 A 
ATOM      3  C   UNL     1      43.734   5.937  11.732  0.00  0.00    +0.000 A 
ATOM      4  C   UNL     1      43.036   4.903  11.111  0.00  0.00    +0.000 A 
ATOM      5  C   UNL     1      43.667   4.100  10.154  0.00  0.00    +0.000 A 
ATOM      6  C   UNL     1      45.006   4.310   9.782  0.00  0.00    +0.000 A 
ATOM      7  C   UNL     1      45.688   5.355  10.431  0.00  0.00    +0.000 A 
BRANCH   6   8
ATOM      8  C   UNL     1      45.661   3.487   8.736  0.00  0.00    +0.000 A 
ATOM      9  C   UNL     1      46.249   4.069   7.594  0.00  0.00    +0.000 A 
ATOM     10  C   UNL     1      46.860   3.289   6.602  0.00  0.00    +0.000 A 
ATOM     11  C   UNL     1      46.906   1.907   6.736  0.00  0.00    +0.000 A 
ATOM     12  C   UNL     1      46.331   1.318   7.852  0.00  0.00    +0.000 A 
ATOM     13  F   UNL     1      46.370  -0.015   7.987  0.00  0.00    +0.000 F 
ATOM     14  C   UNL     1      45.711   2.085   8.835  0.00  0.00    +0.000 A 
ENDBRANCH   6   8
ENDBRANCH   1   2
BRANCH   1  15
ATOM     15  N   UNL     1      47.233   6.892  12.204  0.00  0.00    +0.000 N 
ATOM     16  H   UNL     1      47.369   5.911  11.986  0.00  0.00    +0.000 HD
BRANCH  15  20
ATOM     17  C   UNL     1      48.672   7.973  15.891  0.00  0.00    +0.000 A 
ATOM     18  C   UNL     1      48.864   6.692  15.408  0.00  0.00    +0.000 A 
ATOM     19  N   UNL     1      48.447   6.309  14.173  0.00  0.00    +0.000 NA
ATOM     20  C   UNL     1      47.822   7.242  13.423  0.00  0.00    +0.000 A 
ATOM     21  C   UNL     1      47.657   8.541  13.926  0.00  0.00    +0.000 A 
ATOM     22  N   UNL     1      48.072   8.948  15.155  0.00  0.00    +0.000 NA
BRANCH  17  24
ATOM     23  N   UNL     1      49.640   7.284  18.001  0.00  0.00    +0.000 N 
ATOM     24  C   UNL     1      49.086   8.307  17.281  0.00  0.00    +0.000 C 
ATOM     25  O   UNL     1      48.966   9.434  17.746  0.00  0.00    +0.000 OA
ATOM     26  H   UNL     1      49.988   7.464  18.931  0.00  0.00    +0.000 HD
ATOM     27  H   UNL     1      49.765   6.373  17.574  0.00  0.00    +0.000 HD
ENDBRANCH  17  24
ENDBRANCH  15  20
ENDBRANCH   1  15
TORSDOF 5
ENDMDL
