MODEL 1
REMARK VINA RESULT:    -6.689      0.000      0.000
REMARK INTER + INTRA:          -8.896
REMARK INTER:                  -8.449
REMARK INTRA:                  -0.447
REMARK UNBOUND:                -0.447
REMARK  Name = 
REMARK  5 active torsions:
REMARK  status: ('A' for Active; 'I' for Inactive)
REMARK    1  A    between atoms: N_1  and  C_2
REMARK    2  A    between atoms: C_2  and  C_3
REMARK    3  A    between atoms: N_6  and  C_7
REMARK    4  A    between atoms: C_7  and  C_8
REMARK    5  A    between atoms: C_14  and  C_15
REMARK                            x       y       z     vdW  Elec       q    Type
REMARK                         _______ _______ _______ _____ _____    ______ ____
ROOT
ATOM      1  C   UNL     1      44.137   5.539  11.502  0.00  0.00    +0.000 A 
ATOM      2  C   UNL     1      43.194   4.977  12.352  0.00  0.00    +0.000 A 
ATOM      3  N   UNL     1      42.996   3.669  11.982  0.00  0.00    +0.000 N 
ATOM      4  C   UNL     1      43.763   3.380  10.889  0.00  0.00    +0.000 A 
ATOM      5  N   UNL     1      43.774   2.205  10.225  0.00  0.00    +0.000 NA
ATOM      6  C   UNL     1      44.607   2.263   9.153  0.00  0.00    +0.000 A 
ATOM      7  C   UNL     1      45.365   3.381   8.819  0.00  0.00    +0.000 A 
ATOM      8  N   UNL     1      45.362   4.555   9.520  0.00  0.00    +0.000 NA
ATOM      9  C   UNL     1      44.500   4.521  10.576  0.00  0.00    +0.000 A 
ATOM     10  H   UNL     1      42.361   3.014  12.414  0.00  0.00    +0.000 HD
ENDROOT
BRANCH   7  11
ATOM     11  C   UNL     1      46.211   3.343   7.592  0.00  0.00    +0.000 C 
ATOM     12  N   UNL     1      46.743   2.121   7.275  0.00  0.00    +0.000 N 
ATOM     13  O   UNL     1      46.431   4.338   6.914  0.00  0.00    +0.000 OA
ATOM     14  H   UNL     1      46.575   1.322   7.877  0.00  0.00    +0.000 HD
ATOM     15  H   UNL     1      47.382   2.045   6.495  0.00  0.00    +0.000 HD
ENDBRANCH   7  11
BRANCH   1  16
ATOM     16  C   UNL     1      44.640   6.947  11.495  0.00  0.00    +0.000 C 
BRANCH  16  20
ATOM     17  C   UNL     1      48.473   7.925  13.177  0.00  0.00    +0.000 C 
ATOM     18  C   UNL     1      47.915   6.514  13.396  0.00  0.00    +0.000 C 
ATOM     19  C   UNL     1      46.750   6.201  12.452  0.00  0.00    +0.000 C 
ATOM     20  N   UNL     1      45.659   7.186  12.542  0.00  0.00    +0.000 NA
ATOM     21  C   UNL     1      46.145   8.575  12.402  0.00  0.00    +0.000 C 
ATOM     22  C   UNL     1      47.311   8.914  13.336  0.00  0.00    +0.000 C 
BRANCH  17  23
ATOM     23  C   UNL     1      49.194   8.025  11.816  0.00  0.00    +0.000 C 
BRANCH  23  24
ATOM     24  N   UNL     1      50.497   7.368  11.833  0.00  0.00    +0.000 NA
ATOM     25  H   UNL     1      51.048   7.736  12.609  0.00  0.00    +0.000 HD
ATOM     26  H   UNL     1      51.011   7.605  10.985  0.00  0.00    +0.000 HD
ENDBRANCH  23  24
ENDBRANCH  17  23
ENDBRANCH  16  20
ENDBRANCH   1  16
TORSDOF 5
ENDMDL
MODEL 2
REMARK VINA RESULT:    -6.437      3.354      4.642
REMARK INTER + INTRA:          -8.577
REMARK INTER:                  -8.285
REMARK INTRA:                  -0.292
REMARK UNBOUND:                -0.447
REMARK  Name = 
REMARK  5 active torsions:
REMARK  status: ('A' for Active; 'I' for Inactive)
REMARK    1  A    between atoms: N_1  and  C_2
REMARK    2  A    between atoms: C_2  and  C_3
REMARK    3  A    between atoms: N_6  and  C_7
REMARK    4  A    between atoms: C_7  and  C_8
REMARK    5  A    between atoms: C_14  and  C_15
REMARK                            x       y       z     vdW  Elec       q    Type
REMARK                         _______ _______ _______ _____ _____    ______ ____
ROOT
ATOM      1  C   UNL     1      46.535   6.426  13.171  0.00  0.00    +0.000 A 
ATOM      2  C   UNL     1      46.262   7.787  13.115  0.00  0.00    +0.000 A 
ATOM      3  N   UNL     1      45.066   7.966  12.465  0.00  0.00    +0.000 N 
ATOM      4  C   UNL     1      44.574   6.756  12.066  0.00  0.00    +0.000 A 
ATOM      5  N   UNL     1      43.446   6.563  11.349  0.00  0.00    +0.000 NA
ATOM      6  C   UNL     1      43.268   5.245  11.074  0.00  0.00    +0.000 A 
ATOM      7  C   UNL     1      44.124   4.239  11.508  0.00  0.00    +0.000 A 
ATOM      8  N   UNL     1      45.248   4.450  12.257  0.00  0.00    +0.000 NA
ATOM      9  C   UNL     1      45.458   5.773  12.507  0.00  0.00    +0.000 A 
ATOM     10  H   UNL     1      44.618   8.850  12.269  0.00  0.00    +0.000 HD
ENDROOT
BRANCH   7  11
ATOM     11  C   UNL     1      43.850   2.829  11.104  0.00  0.00    +0.000 C 
ATOM     12  N   UNL     1      44.602   2.352  10.064  0.00  0.00    +0.000 N 
ATOM     13  O   UNL     1      43.000   2.142  11.655  0.00  0.00    +0.000 OA
ATOM     14  H   UNL     1      45.272   2.958   9.602  0.00  0.00    +0.000 HD
ATOM     15  H   UNL     1      44.414   1.429   9.698  0.00  0.00    +0.000 HD
ENDBRANCH   7  11
BRANCH   1  16
ATOM     16  C   UNL     1      47.741   5.757  13.747  0.00  0.00    +0.000 C 
BRANCH  16  20
ATOM     17  C   UNL     1      48.573   3.804  17.485  0.00  0.00    +0.000 C 
ATOM     18  C   UNL     1      47.340   3.363  16.686  0.00  0.00    +0.000 C 
ATOM     19  C   UNL     1      47.378   3.870  15.241  0.00  0.00    +0.000 C 
ATOM     20  N   UNL     1      47.533   5.331  15.149  0.00  0.00    +0.000 NA
ATOM     21  C   UNL     1      48.671   5.826  15.954  0.00  0.00    +0.000 C 
ATOM     22  C   UNL     1      48.657   5.334  17.404  0.00  0.00    +0.000 C 
BRANCH  17  23
ATOM     23  C   UNL     1      49.840   3.082  16.980  0.00  0.00    +0.000 C 
BRANCH  23  24
ATOM     24  N   UNL     1      49.530   1.819  16.318  0.00  0.00    +0.000 NA
ATOM     25  H   UNL     1      48.549   1.589  16.478  0.00  0.00    +0.000 HD
ATOM     26  H   UNL     1      50.070   1.068  16.745  0.00  0.00    +0.000 HD
ENDBRANCH  23  24
ENDBRANCH  17  23
ENDBRANCH  16  20
ENDBRANCH   1  16
TORSDOF 5
ENDMDL
MODEL 3
REMARK VINA RESULT:    -6.265      3.952      7.430
REMARK INTER + INTRA:          -8.360
REMARK INTER:                  -7.827
REMARK INTRA:                  -0.533
REMARK UNBOUND:                -0.447
REMARK  Name = 
REMARK  5 active torsions:
REMARK  status: ('A' for Active; 'I' for Inactive)
REMARK    1  A    between atoms: N_1  and  C_2
REMARK    2  A    between atoms: C_2  and  C_3
REMARK    3  A    between atoms: N_6  and  C_7
REMARK    4  A    between atoms: C_7  and  C_8
REMARK    5  A    between atoms: C_14  and  C_15
REMARK                            x       y       z     vdW  Elec       q    Type
REMARK                         _______ _______ _______ _____ _____    ______ ____
ROOT
ATOM      1  C   UNL     1      48.087   6.502  13.845  0.00  0.00    +0.000 A 
ATOM      2  C   UNL     1      48.678   7.757  13.814  0.00  0.00    +0.000 A 
ATOM      3  N   UNL     1      49.197   8.026  15.057  0.00  0.00    +0.000 N 
ATOM      4  C   UNL     1      48.925   6.989  15.903  0.00  0.00    +0.000 A 
ATOM      5  N   UNL     1      49.235   6.943  17.216  0.00  0.00    +0.000 NA
ATOM      6  C   UNL     1      48.778   5.794  17.781  0.00  0.00    +0.000 A 
ATOM      7  C   UNL     1      48.111   4.797  17.078  0.00  0.00    +0.000 A 
ATOM      8  N   UNL     1      47.828   4.848  15.742  0.00  0.00    +0.000 NA
ATOM      9  C   UNL     1      48.249   6.013  15.172  0.00  0.00    +0.000 A 
ATOM     10  H   UNL     1      49.678   8.870  15.335  0.00  0.00    +0.000 HD
ENDROOT
BRANCH   7  11
ATOM     11  C   UNL     1      47.615   3.599  17.816  0.00  0.00    +0.000 C 
ATOM     12  N   UNL     1      48.305   3.275  18.955  0.00  0.00    +0.000 N 
ATOM     13  O   UNL     1      46.663   2.936  17.428  0.00  0.00    +0.000 OA
ATOM     14  H   UNL     1      49.114   3.821  19.231  0.00  0.00    +0.000 HD
ATOM     15  H   UNL     1      48.062   2.434  19.460  0.00  0.00    +0.000 HD
ENDBRANCH   7  11
BRANCH   1  16
ATOM     16  C   UNL     1      47.361   5.804  12.740  0.00  0.00    +0.000 C 
BRANCH  16  20
ATOM     17  C   UNL     1      43.193   5.313  11.809  0.00  0.00    +0.000 C 
ATOM     18  C   UNL     1      43.907   6.582  11.329  0.00  0.00    +0.000 C 
ATOM     19  C   UNL     1      45.431   6.451  11.406  0.00  0.00    +0.000 C 
ATOM     20  N   UNL     1      45.909   6.091  12.751  0.00  0.00    +0.000 NA
ATOM     21  C   UNL     1      45.209   4.908  13.297  0.00  0.00    +0.000 C 
ATOM     22  C   UNL     1      43.683   5.014  13.232  0.00  0.00    +0.000 C 
BRANCH  17  23
ATOM     23  C   UNL     1      43.413   4.151  10.817  0.00  0.00    +0.000 C 
BRANCH  23  24
ATOM     24  N   UNL     1      43.015   2.864  11.378  0.00  0.00    +0.000 NA
ATOM     25  H   UNL     1      42.469   2.352  10.685  0.00  0.00    +0.000 HD
ATOM     26  H   UNL     1      42.396   3.014  12.173  0.00  0.00    +0.000 HD
ENDBRANCH  23  24
ENDBRANCH  17  23
ENDBRANCH  16  20
ENDBRANCH   1  16
TORSDOF 5
ENDMDL
MODEL 4
REMARK VINA RESULT:    -5.855      2.830      3.940
REMARK INTER + INTRA:          -7.841
REMARK INTER:                  -7.292
REMARK INTRA:                  -0.550
REMARK UNBOUND:                -0.447
REMARK  Name = 
REMARK  5 active torsions:
REMARK  status: ('A' for Active; 'I' for Inactive)
REMARK    1  A    between atoms: N_1  and  C_2
REMARK    2  A    between atoms: C_2  and  C_3
REMARK    3  A    between atoms: N_6  and  C_7
REMARK    4  A    between atoms: C_7  and  C_8
REMARK    5  A    between atoms: C_14  and  C_15
REMARK                            x       y       z     vdW  Elec       q    Type
REMARK                         _______ _______ _______ _____ _____    ______ ____
ROOT
ATOM      1  C   UNL     1      45.349   8.326  12.196  0.00  0.00    +0.000 A 
ATOM      2  C   UNL     1      44.494   9.142  11.469  0.00  0.00    +0.000 A 
ATOM      3  N   UNL     1      43.476   8.370  10.965  0.00  0.00    +0.000 N 
ATOM      4  C   UNL     1      43.671   7.065  11.319  0.00  0.00    +0.000 A 
ATOM      5  N   UNL     1      42.897   6.025  10.945  0.00  0.00    +0.000 NA
ATOM      6  C   UNL     1      43.395   4.854  11.423  0.00  0.00    +0.000 A 
ATOM      7  C   UNL     1      44.534   4.762  12.216  0.00  0.00    +0.000 A 
ATOM      8  N   UNL     1      45.292   5.831  12.608  0.00  0.00    +0.000 NA
ATOM      9  C   UNL     1      44.822   7.007  12.103  0.00  0.00    +0.000 A 
ATOM     10  H   UNL     1      42.710   8.689  10.389  0.00  0.00    +0.000 HD
ENDROOT
BRANCH   7  11
ATOM     11  C   UNL     1      45.012   3.416  12.644  0.00  0.00    +0.000 C 
ATOM     12  N   UNL     1      44.151   2.377  12.409  0.00  0.00    +0.000 N 
ATOM     13  O   UNL     1      46.097   3.245  13.184  0.00  0.00    +0.000 OA
ATOM     14  H   UNL     1      43.242   2.555  11.994  0.00  0.00    +0.000 HD
ATOM     15  H   UNL     1      44.388   1.452  12.739  0.00  0.00    +0.000 HD
ENDBRANCH   7  11
BRANCH   1  16
ATOM     16  C   UNL     1      46.614   8.714  12.893  0.00  0.00    +0.000 C 
BRANCH  16  20
ATOM     17  C   UNL     1      50.732   8.924  11.678  0.00  0.00    +0.000 C 
ATOM     18  C   UNL     1      49.790  10.066  11.277  0.00  0.00    +0.000 C 
ATOM     19  C   UNL     1      48.482  10.041  12.074  0.00  0.00    +0.000 C 
ATOM     20  N   UNL     1      47.773   8.755  11.974  0.00  0.00    +0.000 NA
ATOM     21  C   UNL     1      48.651   7.606  12.287  0.00  0.00    +0.000 C 
ATOM     22  C   UNL     1      49.966   7.607  11.503  0.00  0.00    +0.000 C 
BRANCH  17  23
ATOM     23  C   UNL     1      51.281   9.142  13.104  0.00  0.00    +0.000 C 
BRANCH  23  24
ATOM     24  N   UNL     1      52.019   7.982  13.594  0.00  0.00    +0.000 NA
ATOM     25  H   UNL     1      52.929   7.946  13.135  0.00  0.00    +0.000 HD
ATOM     26  H   UNL     1      51.532   7.128  13.325  0.00  0.00    +0.000 HD
ENDBRANCH  23  24
ENDBRANCH  17  23
ENDBRANCH  16  20
ENDBRANCH   1  16
TORSDOF 5
ENDMDL
MODEL 5
REMARK VINA RESULT:    -5.761      3.150      6.620
REMARK INTER + INTRA:          -7.723
REMARK INTER:                  -7.315
REMARK INTRA:                  -0.408
REMARK UNBOUND:                -0.447
REMARK  Name = 
REMARK  5 active torsions:
REMARK  status: ('A' for Active; 'I' for Inactive)
REMARK    1  A    between atoms: N_1  and  C_2
REMARK    2  A    between atoms: C_2  and  C_3
REMARK    3  A    between atoms: N_6  and  C_7
REMARK    4  A    between atoms: C_7  and  C_8
REMARK    5  A    between atoms: C_14  and  C_15
REMARK                            x       y       z     vdW  Elec       q    Type
REMARK                         _______ _______ _______ _____ _____    ______ ____
ROOT
ATOM      1  C   UNL     1      47.173   4.445  14.738  0.00  0.00    +0.000 A 
ATOM      2  C   UNL     1      46.968   4.081  16.062  0.00  0.00    +0.000 A 
ATOM      3  N   UNL     1      47.640   4.968  16.867  0.00  0.00    +0.000 N 
ATOM      4  C   UNL     1      48.305   5.878  16.095  0.00  0.00    +0.000 A 
ATOM      5  N   UNL     1      49.113   6.857  16.553  0.00  0.00    +0.000 NA
ATOM      6  C   UNL     1      49.660   7.554  15.524  0.00  0.00    +0.000 A 
ATOM      7  C   UNL     1      49.388   7.300  14.183  0.00  0.00    +0.000 A 
ATOM      8  N   UNL     1      48.545   6.320  13.738  0.00  0.00    +0.000 NA
ATOM      9  C   UNL     1      48.019   5.590  14.761  0.00  0.00    +0.000 A 
ATOM     10  H   UNL     1      47.680   4.949  17.876  0.00  0.00    +0.000 HD
ENDROOT
BRANCH   7  11
ATOM     11  C   UNL     1      50.085   8.103  13.137  0.00  0.00    +0.000 C 
ATOM     12  N   UNL     1      50.520   7.404  12.043  0.00  0.00    +0.000 N 
ATOM     13  O   UNL     1      50.271   9.308  13.249  0.00  0.00    +0.000 OA
ATOM     14  H   UNL     1      50.385   6.399  11.996  0.00  0.00    +0.000 HD
ATOM     15  H   UNL     1      51.060   7.879  11.333  0.00  0.00    +0.000 HD
ENDBRANCH   7  11
BRANCH   1  16
ATOM     16  C   UNL     1      46.673   3.754  13.510  0.00  0.00    +0.000 C 
BRANCH  16  20
ATOM     17  C   UNL     1      43.689   4.760  10.583  0.00  0.00    +0.000 C 
ATOM     18  C   UNL     1      44.626   5.865  11.085  0.00  0.00    +0.000 C 
ATOM     19  C   UNL     1      45.843   5.299  11.822  0.00  0.00    +0.000 C 
ATOM     20  N   UNL     1      45.477   4.414  12.940  0.00  0.00    +0.000 NA
ATOM     21  C   UNL     1      44.521   3.362  12.532  0.00  0.00    +0.000 C 
ATOM     22  C   UNL     1      43.293   3.902  11.793  0.00  0.00    +0.000 C 
BRANCH  17  23
ATOM     23  C   UNL     1      44.348   3.960   9.440  0.00  0.00    +0.000 C 
BRANCH  23  24
ATOM     24  N   UNL     1      45.123   4.812   8.545  0.00  0.00    +0.000 NA
ATOM     25  H   UNL     1      44.560   5.037   7.725  0.00  0.00    +0.000 HD
ATOM     26  H   UNL     1      45.933   4.298   8.200  0.00  0.00    +0.000 HD
ENDBRANCH  23  24
ENDBRANCH  17  23
ENDBRANCH  16  20
ENDBRANCH   1  16
TORSDOF 5
ENDMDL
MODEL 6
REMARK VINA RESULT:    -5.711      2.028      2.743
REMARK INTER + INTRA:          -7.660
REMARK INTER:                  -7.525
REMARK INTRA:                  -0.135
REMARK UNBOUND:                -0.447
REMARK  Name = 
REMARK  5 active torsions:
REMARK  status: ('A' for Active; 'I' for Inactive)
REMARK    1  A    between atoms: N_1  and  C_2
REMARK    2  A    between atoms: C_2  and  C_3
REMARK    3  A    between atoms: N_6  and  C_7
REMARK    4  A    between atoms: C_7  and  C_8
REMARK    5  A    between atoms: C_14  and  C_15
REMARK                            x       y       z     vdW  Elec       q    Type
REMARK                         _______ _______ _______ _____ _____    ______ ____
ROOT
ATOM      1  C   UNL     1      44.387   4.170   9.851  0.00  0.00    +0.000 A 
ATOM      2  C   UNL     1      43.728   3.304  10.714  0.00  0.00    +0.000 A 
ATOM      3  N   UNL     1      44.122   2.020  10.429  0.00  0.00    +0.000 N 
ATOM      4  C   UNL     1      44.993   2.029   9.376  0.00  0.00    +0.000 A 
ATOM      5  N   UNL     1      45.533   0.939   8.793  0.00  0.00    +0.000 NA
ATOM      6  C   UNL     1      46.316   1.291   7.740  0.00  0.00    +0.000 A 
ATOM      7  C   UNL     1      46.545   2.606   7.349  0.00  0.00    +0.000 A 
ATOM      8  N   UNL     1      46.011   3.702   7.970  0.00  0.00    +0.000 NA
ATOM      9  C   UNL     1      45.193   3.358   9.005  0.00  0.00    +0.000 A 
ATOM     10  H   UNL     1      43.802   1.179  10.889  0.00  0.00    +0.000 HD
ENDROOT
BRANCH   7  11
ATOM     11  C   UNL     1      47.388   2.869   6.148  0.00  0.00    +0.000 C 
ATOM     12  N   UNL     1      48.733   2.659   6.307  0.00  0.00    +0.000 N 
ATOM     13  O   UNL     1      46.918   3.260   5.087  0.00  0.00    +0.000 OA
ATOM     14  H   UNL     1      49.098   2.372   7.209  0.00  0.00    +0.000 HD
ATOM     15  H   UNL     1      49.364   2.887   5.552  0.00  0.00    +0.000 HD
ENDBRANCH   7  11
BRANCH   1  16
ATOM     16  C   UNL     1      44.246   5.656   9.761  0.00  0.00    +0.000 C 
BRANCH  16  20
ATOM     17  C   UNL     1      46.745   6.143  13.225  0.00  0.00    +0.000 C 
ATOM     18  C   UNL     1      45.247   6.445  13.353  0.00  0.00    +0.000 C 
ATOM     19  C   UNL     1      44.443   5.885  12.176  0.00  0.00    +0.000 C 
ATOM     20  N   UNL     1      44.934   6.354  10.870  0.00  0.00    +0.000 NA
ATOM     21  C   UNL     1      46.390   6.148  10.712  0.00  0.00    +0.000 C 
ATOM     22  C   UNL     1      47.218   6.700  11.876  0.00  0.00    +0.000 C 
BRANCH  17  23
ATOM     23  C   UNL     1      47.017   4.634  13.407  0.00  0.00    +0.000 C 
BRANCH  23  24
ATOM     24  N   UNL     1      46.417   4.109  14.629  0.00  0.00    +0.000 NA
ATOM     25  H   UNL     1      46.929   3.277  14.923  0.00  0.00    +0.000 HD
ATOM     26  H   UNL     1      45.464   3.801  14.437  0.00  0.00    +0.000 HD
ENDBRANCH  23  24
ENDBRANCH  17  23
ENDBRANCH  16  20
ENDBRANCH   1  16
TORSDOF 5
ENDMDL
MODEL 7
REMARK VINA RESULT:    -5.638      2.896      6.826
REMARK INTER + INTRA:          -7.568
REMARK INTER:                  -7.224
REMARK INTRA:                  -0.343
REMARK UNBOUND:                -0.447
REMARK  Name = 
REMARK  5 active torsions:
REMARK  status: ('A' for Active; 'I' for Inactive)
REMARK    1  A    between atoms: N_1  and  C_2
REMARK    2  A    between atoms: C_2  and  C_3
REMARK    3  A    between atoms: N_6  and  C_7
REMARK    4  A    between atoms: C_7  and  C_8
REMARK    5  A    between atoms: C_14  and  C_15
REMARK                            x       y       z     vdW  Elec       q    Type
REMARK                         _______ _______ _______ _____ _____    ______ ____
ROOT
ATOM      1  C   UNL     1      47.007   7.848  12.211  0.00  0.00    +0.000 A 
ATOM      2  C   UNL     1      46.160   8.897  12.546  0.00  0.00    +0.000 A 
ATOM      3  N   UNL     1      46.871  10.070  12.482  0.00  0.00    +0.000 N 
ATOM      4  C   UNL     1      48.169   9.803  12.148  0.00  0.00    +0.000 A 
ATOM      5  N   UNL     1      49.159  10.715  12.054  0.00  0.00    +0.000 NA
ATOM      6  C   UNL     1      50.341  10.115  11.755  0.00  0.00    +0.000 A 
ATOM      7  C   UNL     1      50.487   8.748  11.545  0.00  0.00    +0.000 A 
ATOM      8  N   UNL     1      49.466   7.842  11.618  0.00  0.00    +0.000 NA
ATOM      9  C   UNL     1      48.282   8.427  11.955  0.00  0.00    +0.000 A 
ATOM     10  H   UNL     1      46.519  10.995  12.681  0.00  0.00    +0.000 HD
ENDROOT
BRANCH   7  11
ATOM     11  C   UNL     1      51.845   8.198  11.267  0.00  0.00    +0.000 C 
ATOM     12  N   UNL     1      51.876   7.003  10.598  0.00  0.00    +0.000 N 
ATOM     13  O   UNL     1      52.869   8.765  11.622  0.00  0.00    +0.000 OA
ATOM     14  H   UNL     1      51.010   6.537  10.350  0.00  0.00    +0.000 HD
ATOM     15  H   UNL     1      52.763   6.544  10.442  0.00  0.00    +0.000 HD
ENDBRANCH   7  11
BRANCH   1  16
ATOM     16  C   UNL     1      46.689   6.388  12.182  0.00  0.00    +0.000 C 
BRANCH  16  20
ATOM     17  C   UNL     1      43.036   4.189  11.633  0.00  0.00    +0.000 C 
ATOM     18  C   UNL     1      43.827   4.619  10.392  0.00  0.00    +0.000 C 
ATOM     19  C   UNL     1      45.254   5.054  10.739  0.00  0.00    +0.000 C 
ATOM     20  N   UNL     1      45.298   6.122  11.750  0.00  0.00    +0.000 NA
ATOM     21  C   UNL     1      44.498   5.793  12.949  0.00  0.00    +0.000 C 
ATOM     22  C   UNL     1      43.066   5.356  12.630  0.00  0.00    +0.000 C 
BRANCH  17  23
ATOM     23  C   UNL     1      43.589   2.867  12.205  0.00  0.00    +0.000 C 
BRANCH  23  24
ATOM     24  N   UNL     1      43.045   1.699  11.519  0.00  0.00    +0.000 NA
ATOM     25  H   UNL     1      43.288   0.859  12.044  0.00  0.00    +0.000 HD
ATOM     26  H   UNL     1      43.489   1.601  10.606  0.00  0.00    +0.000 HD
ENDBRANCH  23  24
ENDBRANCH  17  23
ENDBRANCH  16  20
ENDBRANCH   1  16
TORSDOF 5
ENDMDL
MODEL 8
REMARK VINA RESULT:    -5.442      3.568      7.119
REMARK INTER + INTRA:          -7.320
REMARK INTER:                  -7.516
REMARK INTRA:                   0.196
REMARK UNBOUND:                -0.447
REMARK  Name = 
REMARK  5 active torsions:
REMARK  status: ('A' for Active; 'I' for Inactive)
REMARK    1  A    between atoms: N_1  and  C_2
REMARK    2  A    between atoms: C_2  and  C_3
REMARK    3  A    between atoms: N_6  and  C_7
REMARK    4  A    between atoms: C_7  and  C_8
REMARK    5  A    between atoms: C_14  and  C_15
REMARK                            x       y       z     vdW  Elec       q    Type
REMARK                         _______ _______ _______ _____ _____    ______ ____
ROOT
ATOM      1  C   UNL     1      47.003   5.443  13.384  0.00  0.00    +0.000 A 
ATOM      2  C   UNL     1      46.685   4.112  13.616  0.00  0.00    +0.000 A 
ATOM      3  N   UNL     1      47.179   3.754  14.847  0.00  0.00    +0.000 N 
ATOM      4  C   UNL     1      47.840   4.812  15.403  0.00  0.00    +0.000 A 
ATOM      5  N   UNL     1      48.499   4.796  16.581  0.00  0.00    +0.000 NA
ATOM      6  C   UNL     1      49.092   5.995  16.819  0.00  0.00    +0.000 A 
ATOM      7  C   UNL     1      48.996   7.091  15.968  0.00  0.00    +0.000 A 
ATOM      8  N   UNL     1      48.301   7.097  14.790  0.00  0.00    +0.000 NA
ATOM      9  C   UNL     1      47.733   5.887  14.523  0.00  0.00    +0.000 A 
ATOM     10  H   UNL     1      47.107   2.843  15.279  0.00  0.00    +0.000 HD
ENDROOT
BRANCH   7  11
ATOM     11  C   UNL     1      49.729   8.343  16.313  0.00  0.00    +0.000 C 
ATOM     12  N   UNL     1      49.861   8.605  17.651  0.00  0.00    +0.000 N 
ATOM     13  O   UNL     1      50.175   9.100  15.461  0.00  0.00    +0.000 OA
ATOM     14  H   UNL     1      49.447   7.979  18.334  0.00  0.00    +0.000 HD
ATOM     15  H   UNL     1      50.286   9.472  17.948  0.00  0.00    +0.000 HD
ENDBRANCH   7  11
BRANCH   1  16
ATOM     16  C   UNL     1      46.708   6.256  12.164  0.00  0.00    +0.000 C 
BRANCH  16  20
ATOM     17  C   UNL     1      42.977   4.220  11.523  0.00  0.00    +0.000 C 
ATOM     18  C   UNL     1      43.870   4.512  10.312  0.00  0.00    +0.000 C 
ATOM     19  C   UNL     1      45.294   4.895  10.724  0.00  0.00    +0.000 C 
ATOM     20  N   UNL     1      45.335   6.033  11.657  0.00  0.00    +0.000 NA
ATOM     21  C   UNL     1      44.441   5.838  12.819  0.00  0.00    +0.000 C 
ATOM     22  C   UNL     1      43.010   5.454  12.434  0.00  0.00    +0.000 C 
BRANCH  17  23
ATOM     23  C   UNL     1      43.414   2.916  12.224  0.00  0.00    +0.000 C 
BRANCH  23  24
ATOM     24  N   UNL     1      43.062   1.729  11.452  0.00  0.00    +0.000 NA
ATOM     25  H   UNL     1      42.690   1.018  12.082  0.00  0.00    +0.000 HD
ATOM     26  H   UNL     1      43.903   1.329  11.037  0.00  0.00    +0.000 HD
ENDBRANCH  23  24
ENDBRANCH  17  23
ENDBRANCH  16  20
ENDBRANCH   1  16
TORSDOF 5
ENDMDL
MODEL 9
REMARK VINA RESULT:    -5.127      2.704      4.182
REMARK INTER + INTRA:          -6.922
REMARK INTER:                  -6.458
REMARK INTRA:                  -0.465
REMARK UNBOUND:                -0.447
REMARK  Name = 
REMARK  5 active torsions:
REMARK  status: ('A' for Active; 'I' for Inactive)
REMARK    1  A    between atoms: N_1  and  C_2
REMARK    2  A    between atoms: C_2  and  C_3
REMARK    3  A    between atoms: N_6  and  C_7
REMARK    4  A    between atoms: C_7  and  C_8
REMARK    5  A    between atoms: C_14  and  C_15
REMARK                            x       y       z     vdW  Elec       q    Type
REMARK                         _______ _______ _______ _____ _____    ______ ____
ROOT
ATOM      1  C   UNL     1      46.575   7.505  12.572  0.00  0.00    +0.000 A 
ATOM      2  C   UNL     1      46.093   8.791  12.370  0.00  0.00    +0.000 A 
ATOM      3  N   UNL     1      44.812   8.706  11.881  0.00  0.00    +0.000 N 
ATOM      4  C   UNL     1      44.466   7.394  11.728  0.00  0.00    +0.000 A 
ATOM      5  N   UNL     1      43.301   6.943  11.215  0.00  0.00    +0.000 NA
ATOM      6  C   UNL     1      43.294   5.586  11.152  0.00  0.00    +0.000 A 
ATOM      7  C   UNL     1      44.341   4.783  11.591  0.00  0.00    +0.000 A 
ATOM      8  N   UNL     1      45.504   5.256  12.133  0.00  0.00    +0.000 NA
ATOM      9  C   UNL     1      45.538   6.619  12.167  0.00  0.00    +0.000 A 
ATOM     10  H   UNL     1      44.214   9.480  11.633  0.00  0.00    +0.000 HD
ENDROOT
BRANCH   7  11
ATOM     11  C   UNL     1      44.238   3.304  11.428  0.00  0.00    +0.000 C 
ATOM     12  N   UNL     1      44.766   2.556  12.447  0.00  0.00    +0.000 N 
ATOM     13  O   UNL     1      43.727   2.785  10.445  0.00  0.00    +0.000 OA
ATOM     14  H   UNL     1      45.218   3.014  13.232  0.00  0.00    +0.000 HD
ATOM     15  H   UNL     1      44.790   1.549  12.363  0.00  0.00    +0.000 HD
ENDBRANCH   7  11
BRANCH   1  16
ATOM     16  C   UNL     1      47.932   7.100  13.053  0.00  0.00    +0.000 C 
BRANCH  16  20
ATOM     17  C   UNL     1      49.940   7.252  16.851  0.00  0.00    +0.000 C 
ATOM     18  C   UNL     1      48.659   6.417  16.731  0.00  0.00    +0.000 C 
ATOM     19  C   UNL     1      48.272   6.160  15.272  0.00  0.00    +0.000 C 
ATOM     20  N   UNL     1      48.132   7.399  14.489  0.00  0.00    +0.000 NA
ATOM     21  C   UNL     1      49.313   8.279  14.616  0.00  0.00    +0.000 C 
ATOM     22  C   UNL     1      49.721   8.552  16.067  0.00  0.00    +0.000 C 
BRANCH  17  23
ATOM     23  C   UNL     1      51.168   6.442  16.385  0.00  0.00    +0.000 C 
BRANCH  23  24
ATOM     24  N   UNL     1      51.222   5.120  16.999  0.00  0.00    +0.000 NA
ATOM     25  H   UNL     1      51.105   4.409  16.276  0.00  0.00    +0.000 HD
ATOM     26  H   UNL     1      50.436   5.006  17.638  0.00  0.00    +0.000 HD
ENDBRANCH  23  24
ENDBRANCH  17  23
ENDBRANCH  16  20
ENDBRANCH   1  16
TORSDOF 5
ENDMDL
