MODEL 1
REMARK VINA RESULT:    -8.268      0.000      0.000
REMARK INTER + INTRA:          -9.098
REMARK INTER:                  -9.718
REMARK INTRA:                   0.621
REMARK UNBOUND:                 0.621
REMARK  Name = 
REMARK  3 active torsions:
REMARK  status: ('A' for Active; 'I' for Inactive)
REMARK    1  A    between atoms: C_2  and  C_4
REMARK    2  A    between atoms: N_8  and  C_9
REMARK    3  A    between atoms: C_9  and  C_10
REMARK                            x       y       z     vdW  Elec       q    Type
REMARK                         _______ _______ _______ _____ _____    ______ ____
ROOT
ATOM      1  C   UNL     1      46.369   2.149   7.891  0.00  0.00    +0.000 A 
ATOM      2  C   UNL     1      46.384   3.429   7.349  0.00  0.00    +0.000 A 
ATOM      3  C   UNL     1      45.698   4.443   8.012  0.00  0.00    +0.000 A 
ATOM      4  C   UNL     1      45.014   4.172   9.202  0.00  0.00    +0.000 A 
ATOM      5  N   UNL     1      44.385   5.269   9.828  0.00  0.00    +0.000 N 
ATOM      6  N   UNL     1      45.003   2.935   9.737  0.00  0.00    +0.000 NA
ATOM      7  C   UNL     1      45.654   1.949   9.064  0.00  0.00    +0.000 A 
ATOM      8  H   UNL     1      43.783   5.741   9.161  0.00  0.00    +0.000 HD
ENDROOT
BRANCH   1  10
ATOM      9  N   UNL     1      46.700  -0.248   7.652  0.00  0.00    +0.000 N 
ATOM     10  C   UNL     1      47.057   1.007   7.250  0.00  0.00    +0.000 C 
ATOM     11  O   UNL     1      47.891   1.182   6.368  0.00  0.00    +0.000 OA
ATOM     12  H   UNL     1      47.112  -1.016   7.134  0.00  0.00    +0.000 HD
ATOM     13  H   UNL     1      45.859  -0.438   8.175  0.00  0.00    +0.000 HD
ENDBRANCH   1  10
BRANCH   5  14
ATOM     14  C   UNL     1      43.909   5.247  11.228  0.00  0.00    +0.000 C 
ATOM     15  C   UNL     1      42.946   4.097  11.503  0.00  0.00    +0.000 C 
ATOM     16  C   UNL     1      42.461   5.506  11.595  0.00  0.00    +0.000 C 
BRANCH  14  17
ATOM     17  C   UNL     1      44.934   5.597  12.314  0.00  0.00    +0.000 C 
ATOM     18  C   UNL     1      45.921   6.672  11.839  0.00  0.00    +0.000 C 
ATOM     19  C   UNL     1      46.875   7.070  12.962  0.00  0.00    +0.000 C 
ATOM     20  C   UNL     1      47.620   5.859  13.517  0.00  0.00    +0.000 C 
ATOM     21  C   UNL     1      46.663   4.753  13.952  0.00  0.00    +0.000 C 
ATOM     22  C   UNL     1      45.690   4.367  12.836  0.00  0.00    +0.000 C 
ENDBRANCH  14  17
ENDBRANCH   5  14
TORSDOF 3
ENDMDL
MODEL 2
REMARK VINA RESULT:    -7.990      1.368      1.705
REMARK INTER + INTRA:          -8.771
REMARK INTER:                  -8.174
REMARK INTRA:                  -0.597
REMARK UNBOUND:                 0.621
REMARK  Name = 
REMARK  3 active torsions:
REMARK  status: ('A' for Active; 'I' for Inactive)
REMARK    1  A    between atoms: C_2  and  C_4
REMARK    2  A    between atoms: N_8  and  C_9
REMARK    3  A    between atoms: C_9  and  C_10
REMARK                            x       y       z     vdW  Elec       q    Type
REMARK                         _______ _______ _______ _____ _____    ______ ____
ROOT
ATOM      1  C   UNL     1      46.364   2.998   7.547  0.00  0.00    +0.000 A 
ATOM      2  C   UNL     1      45.724   1.952   8.203  0.00  0.00    +0.000 A 
ATOM      3  C   UNL     1      45.093   2.211   9.417  0.00  0.00    +0.000 A 
ATOM      4  C   UNL     1      45.103   3.502   9.955  0.00  0.00    +0.000 A 
ATOM      5  N   UNL     1      44.401   3.681  11.166  0.00  0.00    +0.000 N 
ATOM      6  N   UNL     1      45.714   4.522   9.321  0.00  0.00    +0.000 NA
ATOM      7  C   UNL     1      46.349   4.248   8.150  0.00  0.00    +0.000 A 
ATOM      8  H   UNL     1      44.718   2.999  11.848  0.00  0.00    +0.000 HD
ENDROOT
BRANCH   1  10
ATOM      9  N   UNL     1      48.411   2.556   6.312  0.00  0.00    +0.000 N 
ATOM     10  C   UNL     1      47.071   2.814   6.261  0.00  0.00    +0.000 C 
ATOM     11  O   UNL     1      46.471   2.860   5.193  0.00  0.00    +0.000 OA
ATOM     12  H   UNL     1      48.858   2.338   5.428  0.00  0.00    +0.000 HD
ATOM     13  H   UNL     1      48.882   2.264   7.155  0.00  0.00    +0.000 HD
ENDBRANCH   1  10
BRANCH   5  14
ATOM     14  C   UNL     1      44.025   5.007  11.704  0.00  0.00    +0.000 C 
ATOM     15  C   UNL     1      42.566   5.072  12.141  0.00  0.00    +0.000 C 
ATOM     16  C   UNL     1      43.035   5.915  11.002  0.00  0.00    +0.000 C 
BRANCH  14  17
ATOM     17  C   UNL     1      45.065   5.720  12.577  0.00  0.00    +0.000 C 
ATOM     18  C   UNL     1      45.667   6.938  11.864  0.00  0.00    +0.000 C 
ATOM     19  C   UNL     1      46.632   7.686  12.782  0.00  0.00    +0.000 C 
ATOM     20  C   UNL     1      47.733   6.766  13.302  0.00  0.00    +0.000 C 
ATOM     21  C   UNL     1      47.162   5.519  13.973  0.00  0.00    +0.000 C 
ATOM     22  C   UNL     1      46.177   4.780  13.065  0.00  0.00    +0.000 C 
ENDBRANCH  14  17
ENDBRANCH   5  14
TORSDOF 3
ENDMDL
MODEL 3
REMARK VINA RESULT:    -7.750      3.366      6.265
REMARK INTER + INTRA:          -8.489
REMARK INTER:                  -8.090
REMARK INTRA:                  -0.399
REMARK UNBOUND:                 0.621
REMARK  Name = 
REMARK  3 active torsions:
REMARK  status: ('A' for Active; 'I' for Inactive)
REMARK    1  A    between atoms: C_2  and  C_4
REMARK    2  A    between atoms: N_8  and  C_9
REMARK    3  A    between atoms: C_9  and  C_10
REMARK                            x       y       z     vdW  Elec       q    Type
REMARK                         _______ _______ _______ _____ _____    ______ ____
ROOT
ATOM      1  C   UNL     1      47.335   4.798  15.111  0.00  0.00    +0.000 A 
ATOM      2  C   UNL     1      47.570   5.999  14.451  0.00  0.00    +0.000 A 
ATOM      3  C   UNL     1      46.959   6.214  13.219  0.00  0.00    +0.000 A 
ATOM      4  C   UNL     1      46.123   5.238  12.666  0.00  0.00    +0.000 A 
ATOM      5  N   UNL     1      45.512   5.560  11.435  0.00  0.00    +0.000 N 
ATOM      6  N   UNL     1      45.885   4.075  13.304  0.00  0.00    +0.000 NA
ATOM      7  C   UNL     1      46.510   3.868  14.494  0.00  0.00    +0.000 A 
ATOM      8  H   UNL     1      46.221   5.853  10.770  0.00  0.00    +0.000 HD
ENDROOT
BRANCH   1  10
ATOM      9  N   UNL     1      47.496   5.154  17.511  0.00  0.00    +0.000 N 
ATOM     10  C   UNL     1      47.951   4.476  16.417  0.00  0.00    +0.000 C 
ATOM     11  O   UNL     1      48.814   3.610  16.517  0.00  0.00    +0.000 OA
ATOM     12  H   UNL     1      47.861   4.852  18.408  0.00  0.00    +0.000 HD
ATOM     13  H   UNL     1      46.633   5.676  17.513  0.00  0.00    +0.000 HD
ENDBRANCH   1  10
BRANCH   5  14
ATOM     14  C   UNL     1      44.366   4.814  10.873  0.00  0.00    +0.000 C 
ATOM     15  C   UNL     1      43.067   5.613  10.916  0.00  0.00    +0.000 C 
ATOM     16  C   UNL     1      43.195   4.366  11.725  0.00  0.00    +0.000 C 
BRANCH  14  17
ATOM     17  C   UNL     1      44.638   3.960   9.629  0.00  0.00    +0.000 C 
ATOM     18  C   UNL     1      44.966   2.506   9.998  0.00  0.00    +0.000 C 
ATOM     19  C   UNL     1      45.145   1.652   8.745  0.00  0.00    +0.000 C 
ATOM     20  C   UNL     1      46.216   2.231   7.824  0.00  0.00    +0.000 C 
ATOM     21  C   UNL     1      45.941   3.692   7.480  0.00  0.00    +0.000 C 
ATOM     22  C   UNL     1      45.738   4.547   8.733  0.00  0.00    +0.000 C 
ENDBRANCH  14  17
ENDBRANCH   5  14
TORSDOF 3
ENDMDL
MODEL 4
REMARK VINA RESULT:    -6.450      3.284      6.239
REMARK INTER + INTRA:          -6.960
REMARK INTER:                  -7.701
REMARK INTRA:                   0.741
REMARK UNBOUND:                 0.621
REMARK  Name = 
REMARK  3 active torsions:
REMARK  status: ('A' for Active; 'I' for Inactive)
REMARK    1  A    between atoms: C_2  and  C_4
REMARK    2  A    between atoms: N_8  and  C_9
REMARK    3  A    between atoms: C_9  and  C_10
REMARK                            x       y       z     vdW  Elec       q    Type
REMARK                         _______ _______ _______ _____ _____    ______ ____
ROOT
ATOM      1  C   UNL     1      47.956   6.400  14.052  0.00  0.00    +0.000 A 
ATOM      2  C   UNL     1      47.596   5.155  14.554  0.00  0.00    +0.000 A 
ATOM      3  C   UNL     1      46.422   4.563  14.095  0.00  0.00    +0.000 A 
ATOM      4  C   UNL     1      45.629   5.215  13.144  0.00  0.00    +0.000 A 
ATOM      5  N   UNL     1      44.481   4.522  12.705  0.00  0.00    +0.000 N 
ATOM      6  N   UNL     1      45.977   6.418  12.648  0.00  0.00    +0.000 NA
ATOM      7  C   UNL     1      47.112   6.995  13.125  0.00  0.00    +0.000 A 
ATOM      8  H   UNL     1      43.928   4.236  13.507  0.00  0.00    +0.000 HD
ENDROOT
BRANCH   1  10
ATOM      9  N   UNL     1      49.413   8.344  13.958  0.00  0.00    +0.000 N 
ATOM     10  C   UNL     1      49.178   7.110  14.491  0.00  0.00    +0.000 C 
ATOM     11  O   UNL     1      49.932   6.621  15.326  0.00  0.00    +0.000 OA
ATOM     12  H   UNL     1      50.202   8.854  14.343  0.00  0.00    +0.000 HD
ATOM     13  H   UNL     1      48.706   8.878  13.476  0.00  0.00    +0.000 HD
ENDBRANCH   1  10
BRANCH   5  14
ATOM     14  C   UNL     1      43.720   4.890  11.492  0.00  0.00    +0.000 C 
ATOM     15  C   UNL     1      43.419   6.383  11.418  0.00  0.00    +0.000 C 
ATOM     16  C   UNL     1      42.297   5.409  11.555  0.00  0.00    +0.000 C 
BRANCH  14  17
ATOM     17  C   UNL     1      44.100   4.172  10.191  0.00  0.00    +0.000 C 
ATOM     18  C   UNL     1      44.310   2.668  10.412  0.00  0.00    +0.000 C 
ATOM     19  C   UNL     1      44.598   1.958   9.091  0.00  0.00    +0.000 C 
ATOM     20  C   UNL     1      45.799   2.573   8.378  0.00  0.00    +0.000 C 
ATOM     21  C   UNL     1      45.639   4.079   8.189  0.00  0.00    +0.000 C 
ATOM     22  C   UNL     1      45.327   4.791   9.507  0.00  0.00    +0.000 C 
ENDBRANCH  14  17
ENDBRANCH   5  14
TORSDOF 3
ENDMDL
MODEL 5
REMARK VINA RESULT:    -6.421      3.398      6.272
REMARK INTER + INTRA:          -6.926
REMARK INTER:                  -7.125
REMARK INTRA:                   0.199
REMARK UNBOUND:                 0.621
REMARK  Name = 
REMARK  3 active torsions:
REMARK  status: ('A' for Active; 'I' for Inactive)
REMARK    1  A    between atoms: C_2  and  C_4
REMARK    2  A    between atoms: N_8  and  C_9
REMARK    3  A    between atoms: C_9  and  C_10
REMARK                            x       y       z     vdW  Elec       q    Type
REMARK                         _______ _______ _______ _____ _____    ______ ____
ROOT
ATOM      1  C   UNL     1      48.280   7.455  13.654  0.00  0.00    +0.000 A 
ATOM      2  C   UNL     1      47.276   8.395  13.456  0.00  0.00    +0.000 A 
ATOM      3  C   UNL     1      46.126   8.010  12.772  0.00  0.00    +0.000 A 
ATOM      4  C   UNL     1      45.991   6.700  12.300  0.00  0.00    +0.000 A 
ATOM      5  N   UNL     1      44.774   6.388  11.657  0.00  0.00    +0.000 N 
ATOM      6  N   UNL     1      46.958   5.782  12.495  0.00  0.00    +0.000 NA
ATOM      7  C   UNL     1      48.086   6.180  13.142  0.00  0.00    +0.000 A 
ATOM      8  H   UNL     1      44.597   7.062  10.918  0.00  0.00    +0.000 HD
ENDROOT
BRANCH   1  10
ATOM      9  N   UNL     1      49.923   9.086  14.397  0.00  0.00    +0.000 N 
ATOM     10  C   UNL     1      49.541   7.776  14.358  0.00  0.00    +0.000 C 
ATOM     11  O   UNL     1      50.200   6.903  14.912  0.00  0.00    +0.000 OA
ATOM     12  H   UNL     1      50.737   9.297  14.964  0.00  0.00    +0.000 HD
ATOM     13  H   UNL     1      49.296   9.847  14.181  0.00  0.00    +0.000 HD
ENDBRANCH   1  10
BRANCH   5  14
ATOM     14  C   UNL     1      44.322   5.005  11.393  0.00  0.00    +0.000 C 
ATOM     15  C   UNL     1      42.803   4.870  11.411  0.00  0.00    +0.000 C 
ATOM     16  C   UNL     1      43.619   4.168  12.444  0.00  0.00    +0.000 C 
BRANCH  14  17
ATOM     17  C   UNL     1      45.097   4.213  10.333  0.00  0.00    +0.000 C 
ATOM     18  C   UNL     1      45.419   5.072   9.103  0.00  0.00    +0.000 C 
ATOM     19  C   UNL     1      46.268   4.294   8.101  0.00  0.00    +0.000 C 
ATOM     20  C   UNL     1      45.588   2.991   7.687  0.00  0.00    +0.000 C 
ATOM     21  C   UNL     1      45.210   2.138   8.895  0.00  0.00    +0.000 C 
ATOM     22  C   UNL     1      44.380   2.922   9.913  0.00  0.00    +0.000 C 
ENDBRANCH  14  17
ENDBRANCH   5  14
TORSDOF 3
ENDMDL
MODEL 6
REMARK VINA RESULT:    -6.361      3.640      5.514
REMARK INTER + INTRA:          -6.856
REMARK INTER:                  -6.234
REMARK INTRA:                  -0.622
REMARK UNBOUND:                 0.621
REMARK  Name = 
REMARK  3 active torsions:
REMARK  status: ('A' for Active; 'I' for Inactive)
REMARK    1  A    between atoms: C_2  and  C_4
REMARK    2  A    between atoms: N_8  and  C_9
REMARK    3  A    between atoms: C_9  and  C_10
REMARK                            x       y       z     vdW  Elec       q    Type
REMARK                         _______ _______ _______ _____ _____    ______ ____
ROOT
ATOM      1  C   UNL     1      44.690   4.849  11.931  0.00  0.00    +0.000 A 
ATOM      2  C   UNL     1      44.179   6.077  11.527  0.00  0.00    +0.000 A 
ATOM      3  C   UNL     1      44.966   7.214  11.692  0.00  0.00    +0.000 A 
ATOM      4  C   UNL     1      46.245   7.112  12.249  0.00  0.00    +0.000 A 
ATOM      5  N   UNL     1      46.987   8.309  12.338  0.00  0.00    +0.000 N 
ATOM      6  N   UNL     1      46.749   5.923  12.635  0.00  0.00    +0.000 NA
ATOM      7  C   UNL     1      45.959   4.826  12.492  0.00  0.00    +0.000 A 
ATOM      8  H   UNL     1      46.437   9.016  12.814  0.00  0.00    +0.000 HD
ENDROOT
BRANCH   1  10
ATOM      9  N   UNL     1      44.344   2.521  12.543  0.00  0.00    +0.000 N 
ATOM     10  C   UNL     1      43.922   3.590  11.807  0.00  0.00    +0.000 C 
ATOM     11  O   UNL     1      42.926   3.521  11.095  0.00  0.00    +0.000 OA
ATOM     12  H   UNL     1      43.750   1.700  12.518  0.00  0.00    +0.000 HD
ATOM     13  H   UNL     1      44.988   2.607  13.315  0.00  0.00    +0.000 HD
ENDBRANCH   1  10
BRANCH   5  14
ATOM     14  C   UNL     1      48.445   8.350  12.583  0.00  0.00    +0.000 C 
ATOM     15  C   UNL     1      49.190   9.199  11.558  0.00  0.00    +0.000 C 
ATOM     16  C   UNL     1      49.445   7.730  11.626  0.00  0.00    +0.000 C 
BRANCH  14  17
ATOM     17  C   UNL     1      48.900   8.433  14.045  0.00  0.00    +0.000 C 
ATOM     18  C   UNL     1      49.391   7.075  14.566  0.00  0.00    +0.000 C 
ATOM     19  C   UNL     1      49.922   7.198  15.991  0.00  0.00    +0.000 C 
ATOM     20  C   UNL     1      48.873   7.789  16.929  0.00  0.00    +0.000 C 
ATOM     21  C   UNL     1      48.331   9.117  16.410  0.00  0.00    +0.000 C 
ATOM     22  C   UNL     1      47.818   9.004  14.973  0.00  0.00    +0.000 C 
ENDBRANCH  14  17
ENDBRANCH   5  14
TORSDOF 3
ENDMDL
MODEL 7
REMARK VINA RESULT:    -6.158      3.279      5.194
REMARK INTER + INTRA:          -6.618
REMARK INTER:                  -6.844
REMARK INTRA:                   0.226
REMARK UNBOUND:                 0.621
REMARK  Name = 
REMARK  3 active torsions:
REMARK  status: ('A' for Active; 'I' for Inactive)
REMARK    1  A    between atoms: C_2  and  C_4
REMARK    2  A    between atoms: N_8  and  C_9
REMARK    3  A    between atoms: C_9  and  C_10
REMARK                            x       y       z     vdW  Elec       q    Type
REMARK                         _______ _______ _______ _____ _____    ______ ____
ROOT
ATOM      1  C   UNL     1      44.863   3.722  11.564  0.00  0.00    +0.000 A 
ATOM      2  C   UNL     1      45.465   3.523  12.801  0.00  0.00    +0.000 A 
ATOM      3  C   UNL     1      46.299   4.518  13.305  0.00  0.00    +0.000 A 
ATOM      4  C   UNL     1      46.517   5.692  12.577  0.00  0.00    +0.000 A 
ATOM      5  N   UNL     1      47.342   6.662  13.185  0.00  0.00    +0.000 N 
ATOM      6  N   UNL     1      45.931   5.894  11.381  0.00  0.00    +0.000 NA
ATOM      7  C   UNL     1      45.140   4.902  10.889  0.00  0.00    +0.000 A 
ATOM      8  H   UNL     1      48.220   6.237  13.463  0.00  0.00    +0.000 HD
ENDROOT
BRANCH   1  10
ATOM      9  N   UNL     1      44.381   2.157   9.766  0.00  0.00    +0.000 N 
ATOM     10  C   UNL     1      43.974   2.716  10.943  0.00  0.00    +0.000 C 
ATOM     11  O   UNL     1      42.926   2.374  11.483  0.00  0.00    +0.000 OA
ATOM     12  H   UNL     1      43.806   1.402   9.407  0.00  0.00    +0.000 HD
ATOM     13  H   UNL     1      45.329   2.219   9.428  0.00  0.00    +0.000 HD
ENDBRANCH   1  10
BRANCH   5  14
ATOM     14  C   UNL     1      47.418   8.068  12.732  0.00  0.00    +0.000 C 
ATOM     15  C   UNL     1      47.044   9.060  13.828  0.00  0.00    +0.000 C 
ATOM     16  C   UNL     1      46.189   8.948  12.610  0.00  0.00    +0.000 C 
BRANCH  14  17
ATOM     17  C   UNL     1      48.583   8.434  11.804  0.00  0.00    +0.000 C 
ATOM     18  C   UNL     1      49.787   7.505  12.009  0.00  0.00    +0.000 C 
ATOM     19  C   UNL     1      50.900   7.828  11.015  0.00  0.00    +0.000 C 
ATOM     20  C   UNL     1      51.324   9.291  11.108  0.00  0.00    +0.000 C 
ATOM     21  C   UNL     1      50.137  10.238  10.958  0.00  0.00    +0.000 C 
ATOM     22  C   UNL     1      49.009   9.903  11.936  0.00  0.00    +0.000 C 
ENDBRANCH  14  17
ENDBRANCH   5  14
TORSDOF 3
ENDMDL
MODEL 8
REMARK VINA RESULT:    -5.982      2.306      3.817
REMARK INTER + INTRA:          -6.411
REMARK INTER:                  -5.852
REMARK INTRA:                  -0.559
REMARK UNBOUND:                 0.621
REMARK  Name = 
REMARK  3 active torsions:
REMARK  status: ('A' for Active; 'I' for Inactive)
REMARK    1  A    between atoms: C_2  and  C_4
REMARK    2  A    between atoms: N_8  and  C_9
REMARK    3  A    between atoms: C_9  and  C_10
REMARK                            x       y       z     vdW  Elec       q    Type
REMARK                         _______ _______ _______ _____ _____    ______ ____
ROOT
ATOM      1  C   UNL     1      44.852   3.918   9.867  0.00  0.00    +0.000 A 
ATOM      2  C   UNL     1      44.246   3.797  11.112  0.00  0.00    +0.000 A 
ATOM      3  C   UNL     1      44.464   4.793  12.061  0.00  0.00    +0.000 A 
ATOM      4  C   UNL     1      45.274   5.892  11.756  0.00  0.00    +0.000 A 
ATOM      5  N   UNL     1      45.402   6.874  12.762  0.00  0.00    +0.000 N 
ATOM      6  N   UNL     1      45.858   6.019  10.548  0.00  0.00    +0.000 NA
ATOM      7  C   UNL     1      45.657   5.025   9.642  0.00  0.00    +0.000 A 
ATOM      8  H   UNL     1      45.694   6.435  13.630  0.00  0.00    +0.000 HD
ENDROOT
BRANCH   1  10
ATOM      9  N   UNL     1      44.527   1.605   9.192  0.00  0.00    +0.000 N 
ATOM     10  C   UNL     1      44.689   2.903   8.803  0.00  0.00    +0.000 C 
ATOM     11  O   UNL     1      44.667   3.222   7.619  0.00  0.00    +0.000 OA
ATOM     12  H   UNL     1      44.320   0.940   8.454  0.00  0.00    +0.000 HD
ATOM     13  H   UNL     1      44.288   1.341  10.136  0.00  0.00    +0.000 HD
ENDBRANCH   1  10
BRANCH   5  14
ATOM     14  C   UNL     1      45.931   8.232  12.514  0.00  0.00    +0.000 C 
ATOM     15  C   UNL     1      44.911   9.324  12.815  0.00  0.00    +0.000 C 
ATOM     16  C   UNL     1      45.388   9.125  11.416  0.00  0.00    +0.000 C 
BRANCH  14  17
ATOM     17  C   UNL     1      47.391   8.490  12.907  0.00  0.00    +0.000 C 
ATOM     18  C   UNL     1      48.288   8.676  11.675  0.00  0.00    +0.000 C 
ATOM     19  C   UNL     1      49.717   9.020  12.088  0.00  0.00    +0.000 C 
ATOM     20  C   UNL     1      50.297   7.964  13.025  0.00  0.00    +0.000 C 
ATOM     21  C   UNL     1      49.399   7.722  14.235  0.00  0.00    +0.000 C 
ATOM     22  C   UNL     1      47.961   7.400  13.826  0.00  0.00    +0.000 C 
ENDBRANCH  14  17
ENDBRANCH   5  14
TORSDOF 3
ENDMDL
MODEL 9
REMARK VINA RESULT:    -5.845      4.370      6.517
REMARK INTER + INTRA:          -6.249
REMARK INTER:                  -5.640
REMARK INTRA:                  -0.609
REMARK UNBOUND:                 0.621
REMARK  Name = 
REMARK  3 active torsions:
REMARK  status: ('A' for Active; 'I' for Inactive)
REMARK    1  A    between atoms: C_2  and  C_4
REMARK    2  A    between atoms: N_8  and  C_9
REMARK    3  A    between atoms: C_9  and  C_10
REMARK                            x       y       z     vdW  Elec       q    Type
REMARK                         _______ _______ _______ _____ _____    ______ ____
ROOT
ATOM      1  C   UNL     1      44.598   6.182  12.156  0.00  0.00    +0.000 A 
ATOM      2  C   UNL     1      45.283   5.064  12.618  0.00  0.00    +0.000 A 
ATOM      3  C   UNL     1      46.535   5.241  13.200  0.00  0.00    +0.000 A 
ATOM      4  C   UNL     1      47.084   6.522  13.318  0.00  0.00    +0.000 A 
ATOM      5  N   UNL     1      48.337   6.610  13.961  0.00  0.00    +0.000 N 
ATOM      6  N   UNL     1      46.422   7.611  12.880  0.00  0.00    +0.000 NA
ATOM      7  C   UNL     1      45.212   7.420  12.289  0.00  0.00    +0.000 A 
ATOM      8  H   UNL     1      48.992   5.972  13.519  0.00  0.00    +0.000 HD
ENDROOT
BRANCH   1  10
ATOM      9  N   UNL     1      42.681   7.256  11.116  0.00  0.00    +0.000 N 
ATOM     10  C   UNL     1      43.270   6.090  11.512  0.00  0.00    +0.000 C 
ATOM     11  O   UNL     1      42.734   5.005  11.312  0.00  0.00    +0.000 OA
ATOM     12  H   UNL     1      41.817   7.165  10.592  0.00  0.00    +0.000 HD
ATOM     13  H   UNL     1      43.186   8.125  11.032  0.00  0.00    +0.000 HD
ENDBRANCH   1  10
BRANCH   5  14
ATOM     14  C   UNL     1      48.909   7.878  14.465  0.00  0.00    +0.000 C 
ATOM     15  C   UNL     1      49.361   7.782  15.918  0.00  0.00    +0.000 C 
ATOM     16  C   UNL     1      48.238   8.693  15.553  0.00  0.00    +0.000 C 
BRANCH  14  17
ATOM     17  C   UNL     1      49.787   8.676  13.494  0.00  0.00    +0.000 C 
ATOM     18  C   UNL     1      49.159  10.031  13.141  0.00  0.00    +0.000 C 
ATOM     19  C   UNL     1      50.090  10.847  12.247  0.00  0.00    +0.000 C 
ATOM     20  C   UNL     1      50.463  10.079  10.982  0.00  0.00    +0.000 C 
ATOM     21  C   UNL     1      51.045   8.705  11.302  0.00  0.00    +0.000 C 
ATOM     22  C   UNL     1      50.126   7.893  12.217  0.00  0.00    +0.000 C 
ENDBRANCH  14  17
ENDBRANCH   5  14
TORSDOF 3
ENDMDL
