MODEL 1
REMARK VINA RESULT:    -8.735      0.000      0.000
REMARK INTER + INTRA:         -14.150
REMARK INTER:                 -13.076
REMARK INTRA:                  -1.074
REMARK UNBOUND:                -1.074
REMARK  Name = 
REMARK  9 active torsions:
REMARK  status: ('A' for Active; 'I' for Inactive)
REMARK    1  A    between atoms: C_2  and  C_22
REMARK    2  A    between atoms: N_3  and  CA_4
REMARK    3  A    between atoms: CA_4  and  C_5
REMARK    4  A    between atoms: CA_4  and  C_7
REMARK    5  A    between atoms: C_5  and  O_6
REMARK    6  A    between atoms: C_10  and  C_11
REMARK    7  A    between atoms: C_11  and  N_12
REMARK    8  A    between atoms: N_12  and  C_13
REMARK    9  A    between atoms: C_13  and  C_14
REMARK                            x       y       z     vdW  Elec       q    Type
REMARK                         _______ _______ _______ _____ _____    ______ ____
ROOT
ATOM      1  CA  UNL     1      46.730   7.919  12.757  0.00  0.00    +0.000 C 
ENDROOT
BRANCH   1   2
ATOM      2  C   UNL     1      45.771   6.897  12.181  0.00  0.00    +0.000 A 
ATOM      3  C   UNL     1      46.004   6.397  10.893  0.00  0.00    +0.000 A 
ATOM      4  C   UNL     1      45.286   5.304  10.417  0.00  0.00    +0.000 A 
ATOM      5  C   UNL     1      44.323   4.728  11.237  0.00  0.00    +0.000 A 
ATOM      6  N   UNL     1      44.014   5.248  12.451  0.00  0.00    +0.000 NA
ATOM      7  C   UNL     1      44.727   6.314  12.887  0.00  0.00    +0.000 A 
BRANCH   5   8
ATOM      8  C   UNL     1      43.642   3.433  10.831  0.00  0.00    +0.000 C 
BRANCH   8   9
ATOM      9  N   UNL     1      43.842   3.119   9.415  0.00  0.00    +0.000 NA
ATOM     10  H   UNL     1      44.325   3.895   8.967  0.00  0.00    +0.000 HD
BRANCH   9  11
ATOM     11  C   UNL     1      44.632   1.898   9.241  0.00  0.00    +0.000 C 
BRANCH  11  12
ATOM     12  C   UNL     1      45.718   2.078   8.196  0.00  0.00    +0.000 A 
ATOM     13  C   UNL     1      45.801   3.264   7.465  0.00  0.00    +0.000 A 
ATOM     14  C   UNL     1      46.821   3.410   6.529  0.00  0.00    +0.000 A 
ATOM     15  C   UNL     1      47.725   2.370   6.342  0.00  0.00    +0.000 A 
ATOM     16  C   UNL     1      47.569   1.225   7.105  0.00  0.00    +0.000 A 
ATOM     17  N   UNL     1      46.593   1.056   8.024  0.00  0.00    +0.000 NA
ENDBRANCH  11  12
ENDBRANCH   9  11
ENDBRANCH   8   9
ENDBRANCH   5   8
ENDBRANCH   1   2
BRANCH   1  20
ATOM     18  O   UNL     1      48.728   5.938  13.270  0.00  0.00    +0.000 OA
ATOM     19  C   UNL     1      48.207   6.519  14.217  0.00  0.00    +0.000 C 
ATOM     20  N   UNL     1      47.213   7.451  14.056  0.00  0.00    +0.000 N 
ATOM     21  H   UNL     1      46.752   7.825  14.879  0.00  0.00    +0.000 HD
BRANCH  19  22
ATOM     22  C   UNL     1      48.618   6.250  15.596  0.00  0.00    +0.000 A 
ATOM     23  C   UNL     1      49.312   7.194  16.337  0.00  0.00    +0.000 A 
ATOM     24  S   UNL     1      49.602   6.718  17.950  0.00  0.00    +0.000 S 
ATOM     25  C   UNL     1      48.774   5.248  17.726  0.00  0.00    +0.000 A 
ATOM     26  N   UNL     1      48.590   4.381  18.756  0.00  0.00    +0.000 NA
ATOM     27  C   UNL     1      47.896   3.330  18.453  0.00  0.00    +0.000 A 
ATOM     28  N   UNL     1      47.394   3.061  17.204  0.00  0.00    +0.000 N 
ATOM     29  C   UNL     1      47.647   3.855  16.112  0.00  0.00    +0.000 A 
ATOM     30  O   UNL     1      47.345   3.487  14.978  0.00  0.00    +0.000 OA
ATOM     31  C   UNL     1      48.344   5.092  16.422  0.00  0.00    +0.000 A 
ATOM     32  H   UNL     1      46.911   2.193  17.027  0.00  0.00    +0.000 HD
ENDBRANCH  19  22
ENDBRANCH   1  20
BRANCH   1  33
ATOM     33  C   UNL     1      46.233   9.382  12.859  0.00  0.00    +0.000 C 
BRANCH  33  34
ATOM     34  O   UNL     1      44.817   9.507  12.989  0.00  0.00    +0.000 OA
ATOM     35  H   UNL     1      44.494  10.008  12.223  0.00  0.00    +0.000 HD
ENDBRANCH  33  34
ENDBRANCH   1  33
TORSDOF 9
ENDMDL
MODEL 2
REMARK VINA RESULT:    -8.406      2.039      2.609
REMARK INTER + INTRA:         -13.657
REMARK INTER:                 -12.355
REMARK INTRA:                  -1.302
REMARK UNBOUND:                -1.074
REMARK  Name = 
REMARK  9 active torsions:
REMARK  status: ('A' for Active; 'I' for Inactive)
REMARK    1  A    between atoms: C_2  and  C_22
REMARK    2  A    between atoms: N_3  and  CA_4
REMARK    3  A    between atoms: CA_4  and  C_5
REMARK    4  A    between atoms: CA_4  and  C_7
REMARK    5  A    between atoms: C_5  and  O_6
REMARK    6  A    between atoms: C_10  and  C_11
REMARK    7  A    between atoms: C_11  and  N_12
REMARK    8  A    between atoms: N_12  and  C_13
REMARK    9  A    between atoms: C_13  and  C_14
REMARK                            x       y       z     vdW  Elec       q    Type
REMARK                         _______ _______ _______ _____ _____    ______ ____
ROOT
ATOM      1  CA  UNL     1      47.782   6.877  13.578  0.00  0.00    +0.000 C 
ENDROOT
BRANCH   1   2
ATOM      2  C   UNL     1      46.828   6.056  12.734  0.00  0.00    +0.000 A 
ATOM      3  C   UNL     1      46.255   4.901  13.285  0.00  0.00    +0.000 A 
ATOM      4  C   UNL     1      45.213   4.248  12.634  0.00  0.00    +0.000 A 
ATOM      5  C   UNL     1      44.762   4.753  11.420  0.00  0.00    +0.000 A 
ATOM      6  N   UNL     1      45.358   5.813  10.820  0.00  0.00    +0.000 NA
ATOM      7  C   UNL     1      46.373   6.427  11.476  0.00  0.00    +0.000 A 
BRANCH   5   8
ATOM      8  C   UNL     1      43.518   4.180  10.763  0.00  0.00    +0.000 C 
BRANCH   8   9
ATOM      9  N   UNL     1      43.795   3.626   9.436  0.00  0.00    +0.000 NA
ATOM     10  H   UNL     1      44.301   4.316   8.886  0.00  0.00    +0.000 HD
BRANCH   9  11
ATOM     11  C   UNL     1      44.593   2.400   9.521  0.00  0.00    +0.000 C 
BRANCH  11  12
ATOM     12  C   UNL     1      45.614   2.320   8.401  0.00  0.00    +0.000 A 
ATOM     13  C   UNL     1      45.844   3.422   7.577  0.00  0.00    +0.000 A 
ATOM     14  C   UNL     1      46.801   3.325   6.571  0.00  0.00    +0.000 A 
ATOM     15  C   UNL     1      47.499   2.133   6.410  0.00  0.00    +0.000 A 
ATOM     16  C   UNL     1      47.208   1.086   7.267  0.00  0.00    +0.000 A 
ATOM     17  N   UNL     1      46.288   1.151   8.256  0.00  0.00    +0.000 NA
ENDBRANCH  11  12
ENDBRANCH   9  11
ENDBRANCH   8   9
ENDBRANCH   5   8
ENDBRANCH   1   2
BRANCH   1  20
ATOM     18  O   UNL     1      50.005   6.668  15.365  0.00  0.00    +0.000 OA
ATOM     19  C   UNL     1      48.891   6.330  15.755  0.00  0.00    +0.000 C 
ATOM     20  N   UNL     1      47.784   6.361  14.946  0.00  0.00    +0.000 N 
ATOM     21  H   UNL     1      46.910   5.977  15.293  0.00  0.00    +0.000 HD
BRANCH  19  22
ATOM     22  C   UNL     1      48.672   5.865  17.126  0.00  0.00    +0.000 A 
ATOM     23  C   UNL     1      48.823   4.530  17.466  0.00  0.00    +0.000 A 
ATOM     24  S   UNL     1      48.621   4.223  19.132  0.00  0.00    +0.000 S 
ATOM     25  C   UNL     1      48.363   5.872  19.465  0.00  0.00    +0.000 A 
ATOM     26  N   UNL     1      48.194   6.314  20.738  0.00  0.00    +0.000 NA
ATOM     27  C   UNL     1      48.062   7.599  20.846  0.00  0.00    +0.000 A 
ATOM     28  N   UNL     1      48.061   8.473  19.788  0.00  0.00    +0.000 N 
ATOM     29  C   UNL     1      48.122   8.060  18.479  0.00  0.00    +0.000 A 
ATOM     30  O   UNL     1      47.928   8.849  17.556  0.00  0.00    +0.000 OA
ATOM     31  C   UNL     1      48.361   6.636  18.314  0.00  0.00    +0.000 A 
ATOM     32  H   UNL     1      47.896   9.456  19.941  0.00  0.00    +0.000 HD
ENDBRANCH  19  22
ENDBRANCH   1  20
BRANCH   1  33
ATOM     33  C   UNL     1      47.587   8.414  13.578  0.00  0.00    +0.000 C 
BRANCH  33  34
ATOM     34  O   UNL     1      47.097   8.937  14.812  0.00  0.00    +0.000 OA
ATOM     35  H   UNL     1      46.663   8.211  15.289  0.00  0.00    +0.000 HD
ENDBRANCH  33  34
ENDBRANCH   1  33
TORSDOF 9
ENDMDL
MODEL 3
REMARK VINA RESULT:    -8.015      1.764      2.088
REMARK INTER + INTRA:         -13.071
REMARK INTER:                 -11.914
REMARK INTRA:                  -1.157
REMARK UNBOUND:                -1.074
REMARK  Name = 
REMARK  9 active torsions:
REMARK  status: ('A' for Active; 'I' for Inactive)
REMARK    1  A    between atoms: C_2  and  C_22
REMARK    2  A    between atoms: N_3  and  CA_4
REMARK    3  A    between atoms: CA_4  and  C_5
REMARK    4  A    between atoms: CA_4  and  C_7
REMARK    5  A    between atoms: C_5  and  O_6
REMARK    6  A    between atoms: C_10  and  C_11
REMARK    7  A    between atoms: C_11  and  N_12
REMARK    8  A    between atoms: N_12  and  C_13
REMARK    9  A    between atoms: C_13  and  C_14
REMARK                            x       y       z     vdW  Elec       q    Type
REMARK                         _______ _______ _______ _____ _____    ______ ____
ROOT
ATOM      1  CA  UNL     1      47.973   6.816  13.418  0.00  0.00    +0.000 C 
ENDROOT
BRANCH   1   2
ATOM      2  C   UNL     1      46.767   5.943  13.135  0.00  0.00    +0.000 A 
ATOM      3  C   UNL     1      45.835   6.362  12.175  0.00  0.00    +0.000 A 
ATOM      4  C   UNL     1      44.843   5.496  11.727  0.00  0.00    +0.000 A 
ATOM      5  C   UNL     1      44.785   4.213  12.259  0.00  0.00    +0.000 A 
ATOM      6  N   UNL     1      45.615   3.813  13.253  0.00  0.00    +0.000 NA
ATOM      7  C   UNL     1      46.569   4.678  13.672  0.00  0.00    +0.000 A 
BRANCH   5   8
ATOM      8  C   UNL     1      43.835   3.181  11.675  0.00  0.00    +0.000 C 
BRANCH   8   9
ATOM      9  N   UNL     1      44.468   2.369  10.634  0.00  0.00    +0.000 NA
ATOM     10  H   UNL     1      43.998   1.468  10.582  0.00  0.00    +0.000 HD
BRANCH   9  11
ATOM     11  C   UNL     1      44.397   3.023   9.325  0.00  0.00    +0.000 C 
BRANCH  11  12
ATOM     12  C   UNL     1      45.505   2.550   8.402  0.00  0.00    +0.000 A 
ATOM     13  C   UNL     1      46.114   3.441   7.517  0.00  0.00    +0.000 A 
ATOM     14  C   UNL     1      47.142   2.984   6.698  0.00  0.00    +0.000 A 
ATOM     15  C   UNL     1      47.531   1.652   6.778  0.00  0.00    +0.000 A 
ATOM     16  C   UNL     1      46.873   0.832   7.679  0.00  0.00    +0.000 A 
ATOM     17  N   UNL     1      45.875   1.247   8.490  0.00  0.00    +0.000 NA
ENDBRANCH  11  12
ENDBRANCH   9  11
ENDBRANCH   8   9
ENDBRANCH   5   8
ENDBRANCH   1   2
BRANCH   1  20
ATOM     18  O   UNL     1      50.357   6.918  14.995  0.00  0.00    +0.000 OA
ATOM     19  C   UNL     1      49.273   7.110  15.538  0.00  0.00    +0.000 C 
ATOM     20  N   UNL     1      48.083   7.036  14.859  0.00  0.00    +0.000 N 
ATOM     21  H   UNL     1      47.215   7.106  15.380  0.00  0.00    +0.000 HD
BRANCH  19  22
ATOM     22  C   UNL     1      49.181   7.431  16.964  0.00  0.00    +0.000 A 
ATOM     23  C   UNL     1      49.726   8.599  17.474  0.00  0.00    +0.000 A 
ATOM     24  S   UNL     1      49.416   8.826  19.137  0.00  0.00    +0.000 S 
ATOM     25  C   UNL     1      48.508   7.390  19.224  0.00  0.00    +0.000 A 
ATOM     26  N   UNL     1      47.885   7.021  20.374  0.00  0.00    +0.000 NA
ATOM     27  C   UNL     1      47.185   5.935  20.279  0.00  0.00    +0.000 A 
ATOM     28  N   UNL     1      47.076   5.176  19.141  0.00  0.00    +0.000 N 
ATOM     29  C   UNL     1      47.773   5.454  17.989  0.00  0.00    +0.000 A 
ATOM     30  O   UNL     1      47.800   4.652  17.057  0.00  0.00    +0.000 OA
ATOM     31  C   UNL     1      48.499   6.712  18.021  0.00  0.00    +0.000 A 
ATOM     32  H   UNL     1      46.559   4.310  19.155  0.00  0.00    +0.000 HD
ENDBRANCH  19  22
ENDBRANCH   1  20
BRANCH   1  33
ATOM     33  C   UNL     1      48.072   8.160  12.655  0.00  0.00    +0.000 C 
BRANCH  33  34
ATOM     34  O   UNL     1      49.122   8.204  11.689  0.00  0.00    +0.000 OA
ATOM     35  H   UNL     1      49.850   7.653  12.019  0.00  0.00    +0.000 HD
ENDBRANCH  33  34
ENDBRANCH   1  33
TORSDOF 9
ENDMDL
MODEL 4
REMARK VINA RESULT:    -7.626      3.102      4.166
REMARK INTER + INTRA:         -12.489
REMARK INTER:                 -11.414
REMARK INTRA:                  -1.076
REMARK UNBOUND:                -1.074
REMARK  Name = 
REMARK  9 active torsions:
REMARK  status: ('A' for Active; 'I' for Inactive)
REMARK    1  A    between atoms: C_2  and  C_22
REMARK    2  A    between atoms: N_3  and  CA_4
REMARK    3  A    between atoms: CA_4  and  C_5
REMARK    4  A    between atoms: CA_4  and  C_7
REMARK    5  A    between atoms: C_5  and  O_6
REMARK    6  A    between atoms: C_10  and  C_11
REMARK    7  A    between atoms: C_11  and  N_12
REMARK    8  A    between atoms: N_12  and  C_13
REMARK    9  A    between atoms: C_13  and  C_14
REMARK                            x       y       z     vdW  Elec       q    Type
REMARK                         _______ _______ _______ _____ _____    ______ ____
ROOT
ATOM      1  CA  UNL     1      47.925   5.200  16.492  0.00  0.00    +0.000 C 
ENDROOT
BRANCH   1   2
ATOM      2  C   UNL     1      47.544   5.207  15.025  0.00  0.00    +0.000 A 
ATOM      3  C   UNL     1      46.748   4.167  14.525  0.00  0.00    +0.000 A 
ATOM      4  C   UNL     1      46.193   4.249  13.252  0.00  0.00    +0.000 A 
ATOM      5  C   UNL     1      46.455   5.375  12.480  0.00  0.00    +0.000 A 
ATOM      6  N   UNL     1      47.295   6.352  12.902  0.00  0.00    +0.000 NA
ATOM      7  C   UNL     1      47.823   6.244  14.145  0.00  0.00    +0.000 A 
BRANCH   5   8
ATOM      8  C   UNL     1      45.732   5.589  11.161  0.00  0.00    +0.000 C 
BRANCH   8   9
ATOM      9  N   UNL     1      45.090   4.366  10.674  0.00  0.00    +0.000 NA
ATOM     10  H   UNL     1      44.237   4.205  11.205  0.00  0.00    +0.000 HD
BRANCH   9  11
ATOM     11  C   UNL     1      44.760   4.463   9.251  0.00  0.00    +0.000 C 
BRANCH  11  12
ATOM     12  C   UNL     1      45.579   3.492   8.420  0.00  0.00    +0.000 A 
ATOM     13  C   UNL     1      45.624   2.139   8.758  0.00  0.00    +0.000 A 
ATOM     14  C   UNL     1      46.367   1.269   7.965  0.00  0.00    +0.000 A 
ATOM     15  C   UNL     1      47.049   1.771   6.863  0.00  0.00    +0.000 A 
ATOM     16  C   UNL     1      46.957   3.126   6.599  0.00  0.00    +0.000 A 
ATOM     17  N   UNL     1      46.240   3.995   7.346  0.00  0.00    +0.000 NA
ENDBRANCH  11  12
ENDBRANCH   9  11
ENDBRANCH   8   9
ENDBRANCH   5   8
ENDBRANCH   1   2
BRANCH   1  20
ATOM     18  O   UNL     1      49.634   5.536  18.760  0.00  0.00    +0.000 OA
ATOM     19  C   UNL     1      50.067   4.958  17.767  0.00  0.00    +0.000 C 
ATOM     20  N   UNL     1      49.324   4.795  16.626  0.00  0.00    +0.000 N 
ATOM     21  H   UNL     1      49.767   4.398  15.803  0.00  0.00    +0.000 HD
BRANCH  19  22
ATOM     22  C   UNL     1      51.421   4.401  17.738  0.00  0.00    +0.000 A 
ATOM     23  C   UNL     1      52.532   5.201  17.951  0.00  0.00    +0.000 A 
ATOM     24  S   UNL     1      54.002   4.334  17.976  0.00  0.00    +0.000 S 
ATOM     25  C   UNL     1      53.199   2.852  17.743  0.00  0.00    +0.000 A 
ATOM     26  N   UNL     1      53.881   1.677  17.738  0.00  0.00    +0.000 NA
ATOM     27  C   UNL     1      53.135   0.626  17.604  0.00  0.00    +0.000 A 
ATOM     28  N   UNL     1      51.772   0.653  17.452  0.00  0.00    +0.000 N 
ATOM     29  C   UNL     1      51.056   1.821  17.344  0.00  0.00    +0.000 A 
ATOM     30  O   UNL     1      49.871   1.810  17.018  0.00  0.00    +0.000 OA
ATOM     31  C   UNL     1      51.839   3.023  17.578  0.00  0.00    +0.000 A 
ATOM     32  H   UNL     1      51.261  -0.203  17.295  0.00  0.00    +0.000 HD
ENDBRANCH  19  22
ENDBRANCH   1  20
BRANCH   1  33
ATOM     33  C   UNL     1      47.029   4.383  17.455  0.00  0.00    +0.000 C 
BRANCH  33  34
ATOM     34  O   UNL     1      46.498   5.144  18.540  0.00  0.00    +0.000 OA
ATOM     35  H   UNL     1      46.003   4.536  19.113  0.00  0.00    +0.000 HD
ENDBRANCH  33  34
ENDBRANCH   1  33
TORSDOF 9
ENDMDL
MODEL 5
REMARK VINA RESULT:    -7.245      2.650      3.848
REMARK INTER + INTRA:         -11.919
REMARK INTER:                 -10.533
REMARK INTRA:                  -1.386
REMARK UNBOUND:                -1.074
REMARK  Name = 
REMARK  9 active torsions:
REMARK  status: ('A' for Active; 'I' for Inactive)
REMARK    1  A    between atoms: C_2  and  C_22
REMARK    2  A    between atoms: N_3  and  CA_4
REMARK    3  A    between atoms: CA_4  and  C_5
REMARK    4  A    between atoms: CA_4  and  C_7
REMARK    5  A    between atoms: C_5  and  O_6
REMARK    6  A    between atoms: C_10  and  C_11
REMARK    7  A    between atoms: C_11  and  N_12
REMARK    8  A    between atoms: N_12  and  C_13
REMARK    9  A    between atoms: C_13  and  C_14
REMARK                            x       y       z     vdW  Elec       q    Type
REMARK                         _______ _______ _______ _____ _____    ______ ____
ROOT
ATOM      1  CA  UNL     1      47.395   4.706  15.757  0.00  0.00    +0.000 C 
ENDROOT
BRANCH   1   2
ATOM      2  C   UNL     1      46.961   4.893  14.317  0.00  0.00    +0.000 A 
ATOM      3  C   UNL     1      46.150   3.918  13.720  0.00  0.00    +0.000 A 
ATOM      4  C   UNL     1      45.549   4.154  12.487  0.00  0.00    +0.000 A 
ATOM      5  C   UNL     1      45.780   5.368  11.853  0.00  0.00    +0.000 A 
ATOM      6  N   UNL     1      46.632   6.292  12.363  0.00  0.00    +0.000 NA
ATOM      7  C   UNL     1      47.205   6.033  13.563  0.00  0.00    +0.000 A 
BRANCH   5   8
ATOM      8  C   UNL     1      45.010   5.740  10.597  0.00  0.00    +0.000 C 
BRANCH   8   9
ATOM      9  N   UNL     1      45.666   5.260   9.379  0.00  0.00    +0.000 NA
ATOM     10  H   UNL     1      46.574   4.871   9.622  0.00  0.00    +0.000 HD
BRANCH   9  11
ATOM     11  C   UNL     1      44.868   4.232   8.708  0.00  0.00    +0.000 C 
BRANCH  11  12
ATOM     12  C   UNL     1      45.746   3.208   8.012  0.00  0.00    +0.000 A 
ATOM     13  C   UNL     1      46.503   3.570   6.897  0.00  0.00    +0.000 A 
ATOM     14  C   UNL     1      47.316   2.615   6.293  0.00  0.00    +0.000 A 
ATOM     15  C   UNL     1      47.347   1.326   6.811  0.00  0.00    +0.000 A 
ATOM     16  C   UNL     1      46.563   1.046   7.917  0.00  0.00    +0.000 A 
ATOM     17  N   UNL     1      45.768   1.953   8.528  0.00  0.00    +0.000 NA
ENDBRANCH  11  12
ENDBRANCH   9  11
ENDBRANCH   8   9
ENDBRANCH   5   8
ENDBRANCH   1   2
BRANCH   1  20
ATOM     18  O   UNL     1      48.039   6.339  18.015  0.00  0.00    +0.000 OA
ATOM     19  C   UNL     1      48.873   6.194  17.125  0.00  0.00    +0.000 C 
ATOM     20  N   UNL     1      48.625   5.462  15.992  0.00  0.00    +0.000 N 
ATOM     21  H   UNL     1      49.314   5.460  15.247  0.00  0.00    +0.000 HD
BRANCH  19  22
ATOM     22  C   UNL     1      50.201   6.803  17.219  0.00  0.00    +0.000 A 
ATOM     23  C   UNL     1      50.363   8.179  17.221  0.00  0.00    +0.000 A 
ATOM     24  S   UNL     1      51.981   8.675  17.441  0.00  0.00    +0.000 S 
ATOM     25  C   UNL     1      52.517   7.067  17.580  0.00  0.00    +0.000 A 
ATOM     26  N   UNL     1      53.817   6.780  17.852  0.00  0.00    +0.000 NA
ATOM     27  C   UNL     1      54.071   5.516  17.984  0.00  0.00    +0.000 A 
ATOM     28  N   UNL     1      53.141   4.517  17.842  0.00  0.00    +0.000 N 
ATOM     29  C   UNL     1      51.842   4.755  17.462  0.00  0.00    +0.000 A 
ATOM     30  O   UNL     1      51.091   3.829  17.160  0.00  0.00    +0.000 OA
ATOM     31  C   UNL     1      51.490   6.163  17.392  0.00  0.00    +0.000 A 
ATOM     32  H   UNL     1      53.422   3.549  17.902  0.00  0.00    +0.000 HD
ENDBRANCH  19  22
ENDBRANCH   1  20
BRANCH   1  33
ATOM     33  C   UNL     1      47.544   3.253  16.271  0.00  0.00    +0.000 C 
BRANCH  33  34
ATOM     34  O   UNL     1      48.716   2.588  15.801  0.00  0.00    +0.000 OA
ATOM     35  H   UNL     1      48.981   1.944  16.478  0.00  0.00    +0.000 HD
ENDBRANCH  33  34
ENDBRANCH   1  33
TORSDOF 9
ENDMDL
MODEL 6
REMARK VINA RESULT:    -7.133      3.856      5.040
REMARK INTER + INTRA:         -11.751
REMARK INTER:                 -10.319
REMARK INTRA:                  -1.432
REMARK UNBOUND:                -1.074
REMARK  Name = 
REMARK  9 active torsions:
REMARK  status: ('A' for Active; 'I' for Inactive)
REMARK    1  A    between atoms: C_2  and  C_22
REMARK    2  A    between atoms: N_3  and  CA_4
REMARK    3  A    between atoms: CA_4  and  C_5
REMARK    4  A    between atoms: CA_4  and  C_7
REMARK    5  A    between atoms: C_5  and  O_6
REMARK    6  A    between atoms: C_10  and  C_11
REMARK    7  A    between atoms: C_11  and  N_12
REMARK    8  A    between atoms: N_12  and  C_13
REMARK    9  A    between atoms: C_13  and  C_14
REMARK                            x       y       z     vdW  Elec       q    Type
REMARK                         _______ _______ _______ _____ _____    ______ ____
ROOT
ATOM      1  CA  UNL     1      48.411   7.152  13.895  0.00  0.00    +0.000 C 
ENDROOT
BRANCH   1   2
ATOM      2  C   UNL     1      47.438   6.393  13.016  0.00  0.00    +0.000 A 
ATOM      3  C   UNL     1      46.782   5.271  13.539  0.00  0.00    +0.000 A 
ATOM      4  C   UNL     1      45.725   4.683  12.851  0.00  0.00    +0.000 A 
ATOM      5  C   UNL     1      45.342   5.221  11.628  0.00  0.00    +0.000 A 
ATOM      6  N   UNL     1      46.017   6.248  11.055  0.00  0.00    +0.000 NA
ATOM      7  C   UNL     1      47.045   6.798  11.747  0.00  0.00    +0.000 A 
BRANCH   5   8
ATOM      8  C   UNL     1      44.088   4.727  10.929  0.00  0.00    +0.000 C 
BRANCH   8   9
ATOM      9  N   UNL     1      44.341   4.344   9.538  0.00  0.00    +0.000 NA
ATOM     10  H   UNL     1      45.210   4.773   9.228  0.00  0.00    +0.000 HD
BRANCH   9  11
ATOM     11  C   UNL     1      44.444   2.890   9.391  0.00  0.00    +0.000 C 
BRANCH  11  12
ATOM     12  C   UNL     1      45.492   2.505   8.362  0.00  0.00    +0.000 A 
ATOM     13  C   UNL     1      45.906   3.427   7.400  0.00  0.00    +0.000 A 
ATOM     14  C   UNL     1      46.885   3.053   6.484  0.00  0.00    +0.000 A 
ATOM     15  C   UNL     1      47.418   1.771   6.546  0.00  0.00    +0.000 A 
ATOM     16  C   UNL     1      46.949   0.915   7.528  0.00  0.00    +0.000 A 
ATOM     17  N   UNL     1      46.004   1.251   8.435  0.00  0.00    +0.000 NA
ENDBRANCH  11  12
ENDBRANCH   9  11
ENDBRANCH   8   9
ENDBRANCH   5   8
ENDBRANCH   1   2
BRANCH   1  20
ATOM     18  O   UNL     1      49.438   9.447  12.533  0.00  0.00    +0.000 OA
ATOM     19  C   UNL     1      50.129   8.435  12.601  0.00  0.00    +0.000 C 
ATOM     20  N   UNL     1      49.691   7.281  13.200  0.00  0.00    +0.000 N 
ATOM     21  H   UNL     1      50.267   6.447  13.139  0.00  0.00    +0.000 HD
BRANCH  19  22
ATOM     22  C   UNL     1      51.481   8.395  12.039  0.00  0.00    +0.000 A 
ATOM     23  C   UNL     1      51.694   8.482  10.673  0.00  0.00    +0.000 A 
ATOM     24  S   UNL     1      53.344   8.518  10.241  0.00  0.00    +0.000 S 
ATOM     25  C   UNL     1      53.832   8.459  11.870  0.00  0.00    +0.000 A 
ATOM     26  N   UNL     1      55.145   8.530  12.213  0.00  0.00    +0.000 NA
ATOM     27  C   UNL     1      55.365   8.529  13.490  0.00  0.00    +0.000 A 
ATOM     28  N   UNL     1      54.387   8.437  14.449  0.00  0.00    +0.000 N 
ATOM     29  C   UNL     1      53.059   8.256  14.145  0.00  0.00    +0.000 A 
ATOM     30  O   UNL     1      52.240   7.987  15.022  0.00  0.00    +0.000 OA
ATOM     31  C   UNL     1      52.755   8.342  12.726  0.00  0.00    +0.000 A 
ATOM     32  H   UNL     1      54.636   8.383  15.425  0.00  0.00    +0.000 HD
ENDBRANCH  19  22
ENDBRANCH   1  20
BRANCH   1  33
ATOM     33  C   UNL     1      48.627   6.625  15.335  0.00  0.00    +0.000 C 
BRANCH  33  34
ATOM     34  O   UNL     1      49.987   6.321  15.645  0.00  0.00    +0.000 OA
ATOM     35  H   UNL     1      50.531   6.604  14.893  0.00  0.00    +0.000 HD
ENDBRANCH  33  34
ENDBRANCH   1  33
TORSDOF 9
ENDMDL
MODEL 7
REMARK VINA RESULT:    -7.007      2.445      4.203
REMARK INTER + INTRA:         -11.563
REMARK INTER:                 -10.551
REMARK INTRA:                  -1.012
REMARK UNBOUND:                -1.074
REMARK  Name = 
REMARK  9 active torsions:
REMARK  status: ('A' for Active; 'I' for Inactive)
REMARK    1  A    between atoms: C_2  and  C_22
REMARK    2  A    between atoms: N_3  and  CA_4
REMARK    3  A    between atoms: CA_4  and  C_5
REMARK    4  A    between atoms: CA_4  and  C_7
REMARK    5  A    between atoms: C_5  and  O_6
REMARK    6  A    between atoms: C_10  and  C_11
REMARK    7  A    between atoms: C_11  and  N_12
REMARK    8  A    between atoms: N_12  and  C_13
REMARK    9  A    between atoms: C_13  and  C_14
REMARK                            x       y       z     vdW  Elec       q    Type
REMARK                         _______ _______ _______ _____ _____    ______ ____
ROOT
ATOM      1  CA  UNL     1      47.134   5.144  15.153  0.00  0.00    +0.000 C 
ENDROOT
BRANCH   1   2
ATOM      2  C   UNL     1      46.430   4.997  13.818  0.00  0.00    +0.000 A 
ATOM      3  C   UNL     1      45.593   3.892  13.609  0.00  0.00    +0.000 A 
ATOM      4  C   UNL     1      44.762   3.835  12.495  0.00  0.00    +0.000 A 
ATOM      5  C   UNL     1      44.787   4.886  11.587  0.00  0.00    +0.000 A 
ATOM      6  N   UNL     1      45.652   5.923  11.716  0.00  0.00    +0.000 NA
ATOM      7  C   UNL     1      46.453   5.950  12.809  0.00  0.00    +0.000 A 
BRANCH   5   8
ATOM      8  C   UNL     1      43.776   4.950  10.456  0.00  0.00    +0.000 C 
BRANCH   8   9
ATOM      9  N   UNL     1      44.332   4.480   9.185  0.00  0.00    +0.000 NA
ATOM     10  H   UNL     1      45.239   4.916   9.037  0.00  0.00    +0.000 HD
BRANCH   9  11
ATOM     11  C   UNL     1      44.489   3.024   9.173  0.00  0.00    +0.000 C 
BRANCH  11  12
ATOM     12  C   UNL     1      45.568   2.586   8.199  0.00  0.00    +0.000 A 
ATOM     13  C   UNL     1      46.000   3.451   7.192  0.00  0.00    +0.000 A 
ATOM     14  C   UNL     1      47.006   3.030   6.327  0.00  0.00    +0.000 A 
ATOM     15  C   UNL     1      47.548   1.760   6.483  0.00  0.00    +0.000 A 
ATOM     16  C   UNL     1      47.060   0.962   7.504  0.00  0.00    +0.000 A 
ATOM     17  N   UNL     1      46.089   1.344   8.363  0.00  0.00    +0.000 NA
ENDBRANCH  11  12
ENDBRANCH   9  11
ENDBRANCH   8   9
ENDBRANCH   5   8
ENDBRANCH   1   2
BRANCH   1  20
ATOM     18  O   UNL     1      48.474   6.915  16.954  0.00  0.00    +0.000 OA
ATOM     19  C   UNL     1      49.009   6.632  15.887  0.00  0.00    +0.000 C 
ATOM     20  N   UNL     1      48.413   5.824  14.952  0.00  0.00    +0.000 N 
ATOM     21  H   UNL     1      48.859   5.706  14.048  0.00  0.00    +0.000 HD
BRANCH  19  22
ATOM     22  C   UNL     1      50.335   7.147  15.539  0.00  0.00    +0.000 A 
ATOM     23  C   UNL     1      51.455   6.811  16.284  0.00  0.00    +0.000 A 
ATOM     24  S   UNL     1      52.910   7.434  15.646  0.00  0.00    +0.000 S 
ATOM     25  C   UNL     1      52.098   8.141  14.328  0.00  0.00    +0.000 A 
ATOM     26  N   UNL     1      52.782   8.782  13.344  0.00  0.00    +0.000 NA
ATOM     27  C   UNL     1      52.040   9.223  12.377  0.00  0.00    +0.000 A 
ATOM     28  N   UNL     1      50.674   9.099  12.325  0.00  0.00    +0.000 N 
ATOM     29  C   UNL     1      49.934   8.554  13.347  0.00  0.00    +0.000 A 
ATOM     30  O   UNL     1      48.707   8.631  13.352  0.00  0.00    +0.000 OA
ATOM     31  C   UNL     1      50.731   7.965  14.410  0.00  0.00    +0.000 A 
ATOM     32  H   UNL     1      50.154   9.518  11.568  0.00  0.00    +0.000 HD
ENDBRANCH  19  22
ENDBRANCH   1  20
BRANCH   1  33
ATOM     33  C   UNL     1      47.328   3.862  15.999  0.00  0.00    +0.000 C 
BRANCH  33  34
ATOM     34  O   UNL     1      48.239   2.922  15.429  0.00  0.00    +0.000 OA
ATOM     35  H   UNL     1      47.791   2.494  14.681  0.00  0.00    +0.000 HD
ENDBRANCH  33  34
ENDBRANCH   1  33
TORSDOF 9
ENDMDL
MODEL 8
REMARK VINA RESULT:    -6.977      2.694      8.085
REMARK INTER + INTRA:         -11.518
REMARK INTER:                 -10.003
REMARK INTRA:                  -1.514
REMARK UNBOUND:                -1.074
REMARK  Name = 
REMARK  9 active torsions:
REMARK  status: ('A' for Active; 'I' for Inactive)
REMARK    1  A    between atoms: C_2  and  C_22
REMARK    2  A    between atoms: N_3  and  CA_4
REMARK    3  A    between atoms: CA_4  and  C_5
REMARK    4  A    between atoms: CA_4  and  C_7
REMARK    5  A    between atoms: C_5  and  O_6
REMARK    6  A    between atoms: C_10  and  C_11
REMARK    7  A    between atoms: C_11  and  N_12
REMARK    8  A    between atoms: N_12  and  C_13
REMARK    9  A    between atoms: C_13  and  C_14
REMARK                            x       y       z     vdW  Elec       q    Type
REMARK                         _______ _______ _______ _____ _____    ______ ____
ROOT
ATOM      1  CA  UNL     1      47.993   7.829  12.426  0.00  0.00    +0.000 C 
ENDROOT
BRANCH   1   2
ATOM      2  C   UNL     1      48.370   7.943  13.889  0.00  0.00    +0.000 A 
ATOM      3  C   UNL     1      48.126   9.148  14.562  0.00  0.00    +0.000 A 
ATOM      4  C   UNL     1      48.247   9.224  15.946  0.00  0.00    +0.000 A 
ATOM      5  C   UNL     1      48.628   8.086  16.647  0.00  0.00    +0.000 A 
ATOM      6  N   UNL     1      48.958   6.933  16.014  0.00  0.00    +0.000 NA
ATOM      7  C   UNL     1      48.835   6.890  14.666  0.00  0.00    +0.000 A 
BRANCH   5   8
ATOM      8  C   UNL     1      48.602   8.073  18.166  0.00  0.00    +0.000 C 
BRANCH   8   9
ATOM      9  N   UNL     1      47.386   7.451  18.695  0.00  0.00    +0.000 NA
ATOM     10  H   UNL     1      46.789   7.173  17.920  0.00  0.00    +0.000 HD
BRANCH   9  11
ATOM     11  C   UNL     1      47.696   6.272  19.509  0.00  0.00    +0.000 C 
BRANCH  11  12
ATOM     12  C   UNL     1      47.929   5.044  18.647  0.00  0.00    +0.000 A 
ATOM     13  C   UNL     1      49.145   4.363  18.705  0.00  0.00    +0.000 A 
ATOM     14  C   UNL     1      49.322   3.228  17.920  0.00  0.00    +0.000 A 
ATOM     15  C   UNL     1      48.287   2.807  17.093  0.00  0.00    +0.000 A 
ATOM     16  C   UNL     1      47.113   3.541  17.090  0.00  0.00    +0.000 A 
ATOM     17  N   UNL     1      46.910   4.644  17.845  0.00  0.00    +0.000 NA
ENDBRANCH  11  12
ENDBRANCH   9  11
ENDBRANCH   8   9
ENDBRANCH   5   8
ENDBRANCH   1   2
BRANCH   1  20
ATOM     18  O   UNL     1      45.153   7.518  12.545  0.00  0.00    +0.000 OA
ATOM     19  C   UNL     1      45.848   6.548  12.257  0.00  0.00    +0.000 C 
ATOM     20  N   UNL     1      47.218   6.606  12.220  0.00  0.00    +0.000 N 
ATOM     21  H   UNL     1      47.743   5.750  12.073  0.00  0.00    +0.000 HD
BRANCH  19  22
ATOM     22  C   UNL     1      45.251   5.251  11.931  0.00  0.00    +0.000 A 
ATOM     23  C   UNL     1      44.603   4.496  12.895  0.00  0.00    +0.000 A 
ATOM     24  S   UNL     1      43.892   3.071  12.281  0.00  0.00    +0.000 S 
ATOM     25  C   UNL     1      44.394   3.434  10.696  0.00  0.00    +0.000 A 
ATOM     26  N   UNL     1      44.046   2.640   9.650  0.00  0.00    +0.000 NA
ATOM     27  C   UNL     1      44.451   3.067   8.496  0.00  0.00    +0.000 A 
ATOM     28  N   UNL     1      45.193   4.206   8.304  0.00  0.00    +0.000 N 
ATOM     29  C   UNL     1      45.656   4.979   9.342  0.00  0.00    +0.000 A 
ATOM     30  O   UNL     1      46.472   5.878   9.147  0.00  0.00    +0.000 OA
ATOM     31  C   UNL     1      45.151   4.588  10.647  0.00  0.00    +0.000 A 
ATOM     32  H   UNL     1      45.523   4.448   7.381  0.00  0.00    +0.000 HD
ENDBRANCH  19  22
ENDBRANCH   1  20
BRANCH   1  33
ATOM     33  C   UNL     1      49.139   7.926  11.388  0.00  0.00    +0.000 C 
BRANCH  33  34
ATOM     34  O   UNL     1      50.283   7.135  11.709  0.00  0.00    +0.000 OA
ATOM     35  H   UNL     1      50.500   7.296  12.642  0.00  0.00    +0.000 HD
ENDBRANCH  33  34
ENDBRANCH   1  33
TORSDOF 9
ENDMDL
MODEL 9
REMARK VINA RESULT:    -6.937      2.505      4.312
REMARK INTER + INTRA:         -11.458
REMARK INTER:                 -10.240
REMARK INTRA:                  -1.218
REMARK UNBOUND:                -1.074
REMARK  Name = 
REMARK  9 active torsions:
REMARK  status: ('A' for Active; 'I' for Inactive)
REMARK    1  A    between atoms: C_2  and  C_22
REMARK    2  A    between atoms: N_3  and  CA_4
REMARK    3  A    between atoms: CA_4  and  C_5
REMARK    4  A    between atoms: CA_4  and  C_7
REMARK    5  A    between atoms: C_5  and  O_6
REMARK    6  A    between atoms: C_10  and  C_11
REMARK    7  A    between atoms: C_11  and  N_12
REMARK    8  A    between atoms: N_12  and  C_13
REMARK    9  A    between atoms: C_13  and  C_14
REMARK                            x       y       z     vdW  Elec       q    Type
REMARK                         _______ _______ _______ _____ _____    ______ ____
ROOT
ATOM      1  CA  UNL     1      47.349   4.788  16.018  0.00  0.00    +0.000 C 
ENDROOT
BRANCH   1   2
ATOM      2  C   UNL     1      47.038   4.875  14.537  0.00  0.00    +0.000 A 
ATOM      3  C   UNL     1      46.338   3.824  13.927  0.00  0.00    +0.000 A 
ATOM      4  C   UNL     1      45.841   3.961  12.635  0.00  0.00    +0.000 A 
ATOM      5  C   UNL     1      46.063   5.153  11.956  0.00  0.00    +0.000 A 
ATOM      6  N   UNL     1      46.814   6.150  12.486  0.00  0.00    +0.000 NA
ATOM      7  C   UNL     1      47.289   5.987  13.745  0.00  0.00    +0.000 A 
BRANCH   5   8
ATOM      8  C   UNL     1      45.391   5.414  10.619  0.00  0.00    +0.000 C 
BRANCH   8   9
ATOM      9  N   UNL     1      44.460   4.346  10.247  0.00  0.00    +0.000 NA
ATOM     10  H   UNL     1      43.550   4.541  10.656  0.00  0.00    +0.000 HD
BRANCH   9  11
ATOM     11  C   UNL     1      44.319   4.238   8.792  0.00  0.00    +0.000 C 
BRANCH  11  12
ATOM     12  C   UNL     1      45.413   3.376   8.188  0.00  0.00    +0.000 A 
ATOM     13  C   UNL     1      45.532   2.033   8.551  0.00  0.00    +0.000 A 
ATOM     14  C   UNL     1      46.531   1.262   7.964  0.00  0.00    +0.000 A 
ATOM     15  C   UNL     1      47.386   1.849   7.038  0.00  0.00    +0.000 A 
ATOM     16  C   UNL     1      47.204   3.187   6.737  0.00  0.00    +0.000 A 
ATOM     17  N   UNL     1      46.240   3.961   7.286  0.00  0.00    +0.000 NA
ENDBRANCH  11  12
ENDBRANCH   9  11
ENDBRANCH   8   9
ENDBRANCH   5   8
ENDBRANCH   1   2
BRANCH   1  20
ATOM     18  O   UNL     1      47.755   6.188  18.479  0.00  0.00    +0.000 OA
ATOM     19  C   UNL     1      48.563   6.336  17.567  0.00  0.00    +0.000 C 
ATOM     20  N   UNL     1      48.416   5.734  16.343  0.00  0.00    +0.000 N 
ATOM     21  H   UNL     1      49.062   5.972  15.597  0.00  0.00    +0.000 HD
BRANCH  19  22
ATOM     22  C   UNL     1      49.750   7.179  17.730  0.00  0.00    +0.000 A 
ATOM     23  C   UNL     1      50.721   6.879  18.672  0.00  0.00    +0.000 A 
ATOM     24  S   UNL     1      52.065   7.929  18.624  0.00  0.00    +0.000 S 
ATOM     25  C   UNL     1      51.414   8.798  17.314  0.00  0.00    +0.000 A 
ATOM     26  N   UNL     1      52.107   9.809  16.727  0.00  0.00    +0.000 NA
ATOM     27  C   UNL     1      51.512  10.345  15.708  0.00  0.00    +0.000 A 
ATOM     28  N   UNL     1      50.276   9.972  15.244  0.00  0.00    +0.000 N 
ATOM     29  C   UNL     1      49.495   9.030  15.871  0.00  0.00    +0.000 A 
ATOM     30  O   UNL     1      48.323   8.859  15.544  0.00  0.00    +0.000 OA
ATOM     31  C   UNL     1      50.159   8.339  16.964  0.00  0.00    +0.000 A 
ATOM     32  H   UNL     1      49.848  10.473  14.480  0.00  0.00    +0.000 HD
ENDBRANCH  19  22
ENDBRANCH   1  20
BRANCH   1  33
ATOM     33  C   UNL     1      47.670   3.388  16.596  0.00  0.00    +0.000 C 
BRANCH  33  34
ATOM     34  O   UNL     1      46.688   2.897  17.508  0.00  0.00    +0.000 OA
ATOM     35  H   UNL     1      46.116   3.642  17.754  0.00  0.00    +0.000 HD
ENDBRANCH  33  34
ENDBRANCH   1  33
TORSDOF 9
ENDMDL
