MODEL 1
REMARK VINA RESULT:    -9.247      0.000      0.000
REMARK INTER + INTRA:         -12.304
REMARK INTER:                 -11.409
REMARK INTRA:                  -0.895
REMARK UNBOUND:                -0.895
REMARK  Name = 
REMARK  4 active torsions:
REMARK  status: ('A' for Active; 'I' for Inactive)
REMARK    1  A    between atoms: C_2  and  C_4
REMARK    2  A    between atoms: N_8  and  C_9
REMARK    3  A    between atoms: C_9  and  C_10
REMARK    4  A    between atoms: C_14  and  C_15
REMARK                            x       y       z     vdW  Elec       q    Type
REMARK                         _______ _______ _______ _____ _____    ______ ____
ROOT
ATOM      1  C   UNL     1      43.413   4.852  10.961  0.00  0.00    +0.000 C 
ENDROOT
BRANCH   1   6
ATOM      2  C   UNL     1      46.373   2.220   7.689  0.00  0.00    +0.000 A 
ATOM      3  C   UNL     1      45.623   1.748   8.761  0.00  0.00    +0.000 A 
ATOM      4  C   UNL     1      44.766   2.622   9.428  0.00  0.00    +0.000 A 
ATOM      5  C   UNL     1      44.689   3.955   9.034  0.00  0.00    +0.000 A 
ATOM      6  N   UNL     1      43.795   4.857   9.563  0.00  0.00    +0.000 N 
ATOM      7  N   UNL     1      45.433   4.425   8.009  0.00  0.00    +0.000 NA
ATOM      8  C   UNL     1      46.262   3.563   7.368  0.00  0.00    +0.000 A 
ATOM      9  H   UNL     1      44.012   5.770   9.172  0.00  0.00    +0.000 HD
BRANCH   2  11
ATOM     10  N   UNL     1      48.339   1.951   6.295  0.00  0.00    +0.000 N 
ATOM     11  C   UNL     1      47.262   1.353   6.891  0.00  0.00    +0.000 C 
ATOM     12  O   UNL     1      47.071   0.149   6.798  0.00  0.00    +0.000 OA
ATOM     13  H   UNL     1      49.000   1.331   5.845  0.00  0.00    +0.000 HD
ATOM     14  H   UNL     1      48.668   2.868   6.561  0.00  0.00    +0.000 HD
ENDBRANCH   2  11
ENDBRANCH   1   6
BRANCH   1  15
ATOM     15  C   UNL     1      44.571   5.133  11.889  0.00  0.00    +0.000 A 
ATOM     16  C   UNL     1      44.944   4.206  12.871  0.00  0.00    +0.000 A 
ATOM     17  C   UNL     1      46.066   4.438  13.664  0.00  0.00    +0.000 A 
ATOM     18  C   UNL     1      46.840   5.584  13.468  0.00  0.00    +0.000 A 
ATOM     19  C   UNL     1      46.524   6.521  12.467  0.00  0.00    +0.000 A 
ATOM     20  C   UNL     1      45.357   6.284  11.711  0.00  0.00    +0.000 A 
BRANCH  19  21
ATOM     21  C   UNL     1      47.429   7.652  12.144  0.00  0.00    +0.000 A 
ATOM     22  C   UNL     1      46.982   8.987  12.238  0.00  0.00    +0.000 A 
ATOM     23  C   UNL     1      47.846  10.071  12.047  0.00  0.00    +0.000 A 
ATOM     24  C   UNL     1      49.187   9.844  11.761  0.00  0.00    +0.000 A 
ATOM     25  C   UNL     1      49.641   8.538  11.644  0.00  0.00    +0.000 A 
ATOM     26  F   UNL     1      50.936   8.314  11.382  0.00  0.00    +0.000 F 
ATOM     27  C   UNL     1      48.782   7.453  11.818  0.00  0.00    +0.000 A 
ENDBRANCH  19  21
ENDBRANCH   1  15
TORSDOF 4
ENDMDL
MODEL 2
REMARK VINA RESULT:    -8.460      2.548      3.810
REMARK INTER + INTRA:         -11.333
REMARK INTER:                 -10.508
REMARK INTRA:                  -0.825
REMARK UNBOUND:                -0.895
REMARK  Name = 
REMARK  4 active torsions:
REMARK  status: ('A' for Active; 'I' for Inactive)
REMARK    1  A    between atoms: C_2  and  C_4
REMARK    2  A    between atoms: N_8  and  C_9
REMARK    3  A    between atoms: C_9  and  C_10
REMARK    4  A    between atoms: C_14  and  C_15
REMARK                            x       y       z     vdW  Elec       q    Type
REMARK                         _______ _______ _______ _____ _____    ______ ____
ROOT
ATOM      1  C   UNL     1      44.128   5.059  11.276  0.00  0.00    +0.000 C 
ENDROOT
BRANCH   1   6
ATOM      2  C   UNL     1      46.494   2.360   7.601  0.00  0.00    +0.000 A 
ATOM      3  C   UNL     1      45.966   1.915   8.808  0.00  0.00    +0.000 A 
ATOM      4  C   UNL     1      45.227   2.797   9.593  0.00  0.00    +0.000 A 
ATOM      5  C   UNL     1      45.047   4.113   9.177  0.00  0.00    +0.000 A 
ATOM      6  N   UNL     1      44.245   5.019   9.833  0.00  0.00    +0.000 N 
ATOM      7  N   UNL     1      45.577   4.559   8.017  0.00  0.00    +0.000 NA
ATOM      8  C   UNL     1      46.294   3.688   7.261  0.00  0.00    +0.000 A 
ATOM      9  H   UNL     1      44.364   5.921   9.378  0.00  0.00    +0.000 HD
BRANCH   2  11
ATOM     10  N   UNL     1      48.293   2.037   6.007  0.00  0.00    +0.000 N 
ATOM     11  C   UNL     1      47.241   1.479   6.681  0.00  0.00    +0.000 C 
ATOM     12  O   UNL     1      46.960   0.296   6.555  0.00  0.00    +0.000 OA
ATOM     13  H   UNL     1      48.864   1.400   5.466  0.00  0.00    +0.000 HD
ATOM     14  H   UNL     1      48.707   2.917   6.278  0.00  0.00    +0.000 HD
ENDBRANCH   2  11
ENDBRANCH   1   6
BRANCH   1  15
ATOM     15  C   UNL     1      45.272   5.788  11.940  0.00  0.00    +0.000 A 
ATOM     16  C   UNL     1      45.604   7.096  11.565  0.00  0.00    +0.000 A 
ATOM     17  C   UNL     1      46.606   7.787  12.243  0.00  0.00    +0.000 A 
ATOM     18  C   UNL     1      47.267   7.190  13.319  0.00  0.00    +0.000 A 
ATOM     19  C   UNL     1      46.937   5.893  13.755  0.00  0.00    +0.000 A 
ATOM     20  C   UNL     1      45.953   5.200  13.021  0.00  0.00    +0.000 A 
BRANCH  19  21
ATOM     21  C   UNL     1      47.516   5.317  14.994  0.00  0.00    +0.000 A 
ATOM     22  C   UNL     1      48.555   5.979  15.683  0.00  0.00    +0.000 A 
ATOM     23  C   UNL     1      49.041   5.514  16.910  0.00  0.00    +0.000 A 
ATOM     24  C   UNL     1      48.493   4.372  17.484  0.00  0.00    +0.000 A 
ATOM     25  C   UNL     1      47.485   3.696  16.810  0.00  0.00    +0.000 A 
ATOM     26  F   UNL     1      46.945   2.603  17.365  0.00  0.00    +0.000 F 
ATOM     27  C   UNL     1      47.007   4.145  15.580  0.00  0.00    +0.000 A 
ENDBRANCH  19  21
ENDBRANCH   1  15
TORSDOF 4
ENDMDL
MODEL 3
REMARK VINA RESULT:    -7.998      4.131      7.247
REMARK INTER + INTRA:         -10.763
REMARK INTER:                 -10.453
REMARK INTRA:                  -0.310
REMARK UNBOUND:                -0.895
REMARK  Name = 
REMARK  4 active torsions:
REMARK  status: ('A' for Active; 'I' for Inactive)
REMARK    1  A    between atoms: C_2  and  C_4
REMARK    2  A    between atoms: N_8  and  C_9
REMARK    3  A    between atoms: C_9  and  C_10
REMARK    4  A    between atoms: C_14  and  C_15
REMARK                            x       y       z     vdW  Elec       q    Type
REMARK                         _______ _______ _______ _____ _____    ______ ____
ROOT
ATOM      1  C   UNL     1      45.609   7.184  11.554  0.00  0.00    +0.000 C 
ENDROOT
BRANCH   1   6
ATOM      2  C   UNL     1      47.725   4.872  15.625  0.00  0.00    +0.000 A 
ATOM      3  C   UNL     1      46.677   4.437  14.821  0.00  0.00    +0.000 A 
ATOM      4  C   UNL     1      46.360   5.155  13.670  0.00  0.00    +0.000 A 
ATOM      5  C   UNL     1      47.076   6.306  13.350  0.00  0.00    +0.000 A 
ATOM      6  N   UNL     1      46.904   7.012  12.181  0.00  0.00    +0.000 N 
ATOM      7  N   UNL     1      48.080   6.747  14.138  0.00  0.00    +0.000 NA
ATOM      8  C   UNL     1      48.378   6.037  15.257  0.00  0.00    +0.000 A 
ATOM      9  H   UNL     1      47.476   7.850  12.242  0.00  0.00    +0.000 HD
BRANCH   2  11
ATOM     10  N   UNL     1      47.387   4.271  17.950  0.00  0.00    +0.000 N 
ATOM     11  C   UNL     1      48.164   4.143  16.831  0.00  0.00    +0.000 C 
ATOM     12  O   UNL     1      49.154   3.425  16.823  0.00  0.00    +0.000 OA
ATOM     13  H   UNL     1      47.634   3.682  18.734  0.00  0.00    +0.000 HD
ATOM     14  H   UNL     1      46.445   4.632  17.919  0.00  0.00    +0.000 HD
ENDBRANCH   2  11
ENDBRANCH   1   6
BRANCH   1  15
ATOM     15  C   UNL     1      44.988   5.879  11.117  0.00  0.00    +0.000 A 
ATOM     16  C   UNL     1      43.707   5.515  11.547  0.00  0.00    +0.000 A 
ATOM     17  C   UNL     1      43.111   4.350  11.069  0.00  0.00    +0.000 A 
ATOM     18  C   UNL     1      43.778   3.551  10.137  0.00  0.00    +0.000 A 
ATOM     19  C   UNL     1      45.050   3.901   9.648  0.00  0.00    +0.000 A 
ATOM     20  C   UNL     1      45.648   5.059  10.184  0.00  0.00    +0.000 A 
BRANCH  19  21
ATOM     21  C   UNL     1      45.692   3.150   8.540  0.00  0.00    +0.000 A 
ATOM     22  C   UNL     1      46.219   3.825   7.419  0.00  0.00    +0.000 A 
ATOM     23  C   UNL     1      46.926   3.151   6.417  0.00  0.00    +0.000 A 
ATOM     24  C   UNL     1      47.129   1.780   6.515  0.00  0.00    +0.000 A 
ATOM     25  C   UNL     1      46.600   1.096   7.601  0.00  0.00    +0.000 A 
ATOM     26  F   UNL     1      46.804  -0.224   7.707  0.00  0.00    +0.000 F 
ATOM     27  C   UNL     1      45.881   1.758   8.595  0.00  0.00    +0.000 A 
ENDBRANCH  19  21
ENDBRANCH   1  15
TORSDOF 4
ENDMDL
MODEL 4
REMARK VINA RESULT:    -7.934      4.071      7.142
REMARK INTER + INTRA:         -10.684
REMARK INTER:                 -10.024
REMARK INTRA:                  -0.660
REMARK UNBOUND:                -0.895
REMARK  Name = 
REMARK  4 active torsions:
REMARK  status: ('A' for Active; 'I' for Inactive)
REMARK    1  A    between atoms: C_2  and  C_4
REMARK    2  A    between atoms: N_8  and  C_9
REMARK    3  A    between atoms: C_9  and  C_10
REMARK    4  A    between atoms: C_14  and  C_15
REMARK                            x       y       z     vdW  Elec       q    Type
REMARK                         _______ _______ _______ _____ _____    ______ ____
ROOT
ATOM      1  C   UNL     1      44.120   6.667  11.480  0.00  0.00    +0.000 C 
ENDROOT
BRANCH   1   6
ATOM      2  C   UNL     1      48.417   7.040  14.269  0.00  0.00    +0.000 A 
ATOM      3  C   UNL     1      47.545   5.964  14.150  0.00  0.00    +0.000 A 
ATOM      4  C   UNL     1      46.515   6.025  13.214  0.00  0.00    +0.000 A 
ATOM      5  C   UNL     1      46.355   7.164  12.430  0.00  0.00    +0.000 A 
ATOM      6  N   UNL     1      45.436   7.267  11.410  0.00  0.00    +0.000 N 
ATOM      7  N   UNL     1      47.184   8.223  12.558  0.00  0.00    +0.000 NA
ATOM      8  C   UNL     1      48.184   8.149  13.473  0.00  0.00    +0.000 A 
ATOM      9  H   UNL     1      45.464   8.224  11.068  0.00  0.00    +0.000 HD
BRANCH   2  11
ATOM     10  N   UNL     1      50.286   8.200  15.291  0.00  0.00    +0.000 N 
ATOM     11  C   UNL     1      49.568   7.039  15.194  0.00  0.00    +0.000 C 
ATOM     12  O   UNL     1      49.845   6.061  15.874  0.00  0.00    +0.000 OA
ATOM     13  H   UNL     1      51.001   8.223  16.007  0.00  0.00    +0.000 HD
ATOM     14  H   UNL     1      49.937   9.085  14.954  0.00  0.00    +0.000 HD
ENDBRANCH   2  11
ENDBRANCH   1   6
BRANCH   1  15
ATOM     15  C   UNL     1      44.134   5.181  11.208  0.00  0.00    +0.000 A 
ATOM     16  C   UNL     1      43.291   4.314  11.914  0.00  0.00    +0.000 A 
ATOM     17  C   UNL     1      43.253   2.959  11.595  0.00  0.00    +0.000 A 
ATOM     18  C   UNL     1      44.037   2.460  10.552  0.00  0.00    +0.000 A 
ATOM     19  C   UNL     1      44.867   3.303   9.791  0.00  0.00    +0.000 A 
ATOM     20  C   UNL     1      44.921   4.660  10.166  0.00  0.00    +0.000 A 
BRANCH  19  21
ATOM     21  C   UNL     1      45.574   2.813   8.580  0.00  0.00    +0.000 A 
ATOM     22  C   UNL     1      45.993   3.711   7.575  0.00  0.00    +0.000 A 
ATOM     23  C   UNL     1      46.757   3.290   6.481  0.00  0.00    +0.000 A 
ATOM     24  C   UNL     1      47.127   1.955   6.368  0.00  0.00    +0.000 A 
ATOM     25  C   UNL     1      46.706   1.054   7.336  0.00  0.00    +0.000 A 
ATOM     26  F   UNL     1      47.071  -0.232   7.239  0.00  0.00    +0.000 F 
ATOM     27  C   UNL     1      45.931   1.464   8.421  0.00  0.00    +0.000 A 
ENDBRANCH  19  21
ENDBRANCH   1  15
TORSDOF 4
ENDMDL
MODEL 5
REMARK VINA RESULT:    -7.903      2.870      3.426
REMARK INTER + INTRA:         -10.646
REMARK INTER:                  -9.872
REMARK INTRA:                  -0.774
REMARK UNBOUND:                -0.895
REMARK  Name = 
REMARK  4 active torsions:
REMARK  status: ('A' for Active; 'I' for Inactive)
REMARK    1  A    between atoms: C_2  and  C_4
REMARK    2  A    between atoms: N_8  and  C_9
REMARK    3  A    between atoms: C_9  and  C_10
REMARK    4  A    between atoms: C_14  and  C_15
REMARK                            x       y       z     vdW  Elec       q    Type
REMARK                         _______ _______ _______ _____ _____    ______ ____
ROOT
ATOM      1  C   UNL     1      43.569   3.990  11.137  0.00  0.00    +0.000 C 
ENDROOT
BRANCH   1   6
ATOM      2  C   UNL     1      46.626   2.541   7.271  0.00  0.00    +0.000 A 
ATOM      3  C   UNL     1      46.372   3.821   7.749  0.00  0.00    +0.000 A 
ATOM      4  C   UNL     1      45.622   3.975   8.914  0.00  0.00    +0.000 A 
ATOM      5  C   UNL     1      45.117   2.855   9.568  0.00  0.00    +0.000 A 
ATOM      6  N   UNL     1      44.461   2.906  10.776  0.00  0.00    +0.000 N 
ATOM      7  N   UNL     1      45.340   1.609   9.095  0.00  0.00    +0.000 NA
ATOM      8  C   UNL     1      46.073   1.474   7.960  0.00  0.00    +0.000 A 
ATOM      9  H   UNL     1      44.119   1.971  10.980  0.00  0.00    +0.000 HD
BRANCH   2  11
ATOM     10  N   UNL     1      47.284   3.120   5.009  0.00  0.00    +0.000 N 
ATOM     11  C   UNL     1      47.457   2.283   6.078  0.00  0.00    +0.000 C 
ATOM     12  O   UNL     1      48.290   1.388   6.057  0.00  0.00    +0.000 OA
ATOM     13  H   UNL     1      47.934   3.004   4.243  0.00  0.00    +0.000 HD
ATOM     14  H   UNL     1      46.809   4.007   5.085  0.00  0.00    +0.000 HD
ENDBRANCH   2  11
ENDBRANCH   1   6
BRANCH   1  15
ATOM     15  C   UNL     1      44.283   5.147  11.793  0.00  0.00    +0.000 A 
ATOM     16  C   UNL     1      45.349   4.927  12.674  0.00  0.00    +0.000 A 
ATOM     17  C   UNL     1      46.053   6.004  13.206  0.00  0.00    +0.000 A 
ATOM     18  C   UNL     1      45.717   7.311  12.844  0.00  0.00    +0.000 A 
ATOM     19  C   UNL     1      44.680   7.576  11.932  0.00  0.00    +0.000 A 
ATOM     20  C   UNL     1      43.954   6.470  11.446  0.00  0.00    +0.000 A 
BRANCH  19  21
ATOM     21  C   UNL     1      44.425   8.945  11.418  0.00  0.00    +0.000 A 
ATOM     22  C   UNL     1      45.337   9.993  11.667  0.00  0.00    +0.000 A 
ATOM     23  C   UNL     1      45.176  11.262  11.101  0.00  0.00    +0.000 A 
ATOM     24  C   UNL     1      44.097  11.514  10.262  0.00  0.00    +0.000 A 
ATOM     25  C   UNL     1      43.179  10.502  10.022  0.00  0.00    +0.000 A 
ATOM     26  F   UNL     1      42.143  10.737   9.205  0.00  0.00    +0.000 F 
ATOM     27  C   UNL     1      43.324   9.240  10.596  0.00  0.00    +0.000 A 
ENDBRANCH  19  21
ENDBRANCH   1  15
TORSDOF 4
ENDMDL
MODEL 6
REMARK VINA RESULT:    -7.894      5.026      7.932
REMARK INTER + INTRA:         -10.634
REMARK INTER:                 -10.089
REMARK INTRA:                  -0.546
REMARK UNBOUND:                -0.895
REMARK  Name = 
REMARK  4 active torsions:
REMARK  status: ('A' for Active; 'I' for Inactive)
REMARK    1  A    between atoms: C_2  and  C_4
REMARK    2  A    between atoms: N_8  and  C_9
REMARK    3  A    between atoms: C_9  and  C_10
REMARK    4  A    between atoms: C_14  and  C_15
REMARK                            x       y       z     vdW  Elec       q    Type
REMARK                         _______ _______ _______ _____ _____    ______ ____
ROOT
ATOM      1  C   UNL     1      46.055   5.543  13.319  0.00  0.00    +0.000 C 
ENDROOT
BRANCH   1   6
ATOM      2  C   UNL     1      49.081   4.118  17.218  0.00  0.00    +0.000 A 
ATOM      3  C   UNL     1      48.896   5.385  16.675  0.00  0.00    +0.000 A 
ATOM      4  C   UNL     1      47.906   5.573  15.712  0.00  0.00    +0.000 A 
ATOM      5  C   UNL     1      47.134   4.495  15.289  0.00  0.00    +0.000 A 
ATOM      6  N   UNL     1      46.068   4.609  14.427  0.00  0.00    +0.000 N 
ATOM      7  N   UNL     1      47.325   3.257  15.796  0.00  0.00    +0.000 NA
ATOM      8  C   UNL     1      48.292   3.088  16.733  0.00  0.00    +0.000 A 
ATOM      9  H   UNL     1      45.744   3.670  14.213  0.00  0.00    +0.000 HD
BRANCH   2  11
ATOM     10  N   UNL     1      50.860   2.737  18.117  0.00  0.00    +0.000 N 
ATOM     11  C   UNL     1      50.068   3.840  18.281  0.00  0.00    +0.000 C 
ATOM     12  O   UNL     1      50.200   4.582  19.244  0.00  0.00    +0.000 OA
ATOM     13  H   UNL     1      51.604   2.618  18.792  0.00  0.00    +0.000 HD
ATOM     14  H   UNL     1      50.958   2.264  17.231  0.00  0.00    +0.000 HD
ENDBRANCH   2  11
ENDBRANCH   1   6
BRANCH   1  15
ATOM     15  C   UNL     1      45.152   5.104  12.190  0.00  0.00    +0.000 A 
ATOM     16  C   UNL     1      43.839   5.580  12.095  0.00  0.00    +0.000 A 
ATOM     17  C   UNL     1      43.045   5.235  11.004  0.00  0.00    +0.000 A 
ATOM     18  C   UNL     1      43.563   4.433   9.984  0.00  0.00    +0.000 A 
ATOM     19  C   UNL     1      44.890   3.967  10.019  0.00  0.00    +0.000 A 
ATOM     20  C   UNL     1      45.654   4.292  11.158  0.00  0.00    +0.000 A 
BRANCH  19  21
ATOM     21  C   UNL     1      45.496   3.255   8.867  0.00  0.00    +0.000 A 
ATOM     22  C   UNL     1      46.012   3.971   7.765  0.00  0.00    +0.000 A 
ATOM     23  C   UNL     1      46.687   3.331   6.720  0.00  0.00    +0.000 A 
ATOM     24  C   UNL     1      46.869   1.953   6.753  0.00  0.00    +0.000 A 
ATOM     25  C   UNL     1      46.350   1.231   7.819  0.00  0.00    +0.000 A 
ATOM     26  F   UNL     1      46.534  -0.096   7.862  0.00  0.00    +0.000 F 
ATOM     27  C   UNL     1      45.662   1.860   8.856  0.00  0.00    +0.000 A 
ENDBRANCH  19  21
ENDBRANCH   1  15
TORSDOF 4
ENDMDL
MODEL 7
REMARK VINA RESULT:    -7.856      4.217      7.249
REMARK INTER + INTRA:         -10.588
REMARK INTER:                  -9.861
REMARK INTRA:                  -0.727
REMARK UNBOUND:                -0.895
REMARK  Name = 
REMARK  4 active torsions:
REMARK  status: ('A' for Active; 'I' for Inactive)
REMARK    1  A    between atoms: C_2  and  C_4
REMARK    2  A    between atoms: N_8  and  C_9
REMARK    3  A    between atoms: C_9  and  C_10
REMARK    4  A    between atoms: C_14  and  C_15
REMARK                            x       y       z     vdW  Elec       q    Type
REMARK                         _______ _______ _______ _____ _____    ______ ____
ROOT
ATOM      1  C   UNL     1      44.866   7.057  11.949  0.00  0.00    +0.000 C 
ENDROOT
BRANCH   1   6
ATOM      2  C   UNL     1      49.742   8.162  13.133  0.00  0.00    +0.000 A 
ATOM      3  C   UNL     1      48.931   8.729  12.155  0.00  0.00    +0.000 A 
ATOM      4  C   UNL     1      47.582   8.382  12.106  0.00  0.00    +0.000 A 
ATOM      5  C   UNL     1      47.069   7.460  13.014  0.00  0.00    +0.000 A 
ATOM      6  N   UNL     1      45.733   7.142  13.107  0.00  0.00    +0.000 N 
ATOM      7  N   UNL     1      47.856   6.889  13.951  0.00  0.00    +0.000 NA
ATOM      8  C   UNL     1      49.167   7.236  13.988  0.00  0.00    +0.000 A 
ATOM      9  H   UNL     1      45.644   6.384  13.778  0.00  0.00    +0.000 HD
BRANCH   2  11
ATOM     10  N   UNL     1      52.041   7.991  12.379  0.00  0.00    +0.000 N 
ATOM     11  C   UNL     1      51.167   8.514  13.293  0.00  0.00    +0.000 C 
ATOM     12  O   UNL     1      51.546   9.269  14.177  0.00  0.00    +0.000 OA
ATOM     13  H   UNL     1      52.994   8.327  12.432  0.00  0.00    +0.000 HD
ATOM     14  H   UNL     1      51.737   7.590  11.504  0.00  0.00    +0.000 HD
ENDBRANCH   2  11
ENDBRANCH   1   6
BRANCH   1  15
ATOM     15  C   UNL     1      44.528   5.635  11.570  0.00  0.00    +0.000 A 
ATOM     16  C   UNL     1      43.445   4.973  12.162  0.00  0.00    +0.000 A 
ATOM     17  C   UNL     1      43.092   3.692  11.742  0.00  0.00    +0.000 A 
ATOM     18  C   UNL     1      43.799   3.071  10.710  0.00  0.00    +0.000 A 
ATOM     19  C   UNL     1      44.868   3.716  10.061  0.00  0.00    +0.000 A 
ATOM     20  C   UNL     1      45.233   4.991  10.538  0.00  0.00    +0.000 A 
BRANCH  19  21
ATOM     21  C   UNL     1      45.516   3.133   8.859  0.00  0.00    +0.000 A 
ATOM     22  C   UNL     1      45.984   3.961   7.817  0.00  0.00    +0.000 A 
ATOM     23  C   UNL     1      46.696   3.445   6.728  0.00  0.00    +0.000 A 
ATOM     24  C   UNL     1      46.963   2.083   6.657  0.00  0.00    +0.000 A 
ATOM     25  C   UNL     1      46.491   1.251   7.663  0.00  0.00    +0.000 A 
ATOM     26  F   UNL     1      46.756  -0.062   7.606  0.00  0.00    +0.000 F 
ATOM     27  C   UNL     1      45.767   1.755   8.743  0.00  0.00    +0.000 A 
ENDBRANCH  19  21
ENDBRANCH   1  15
TORSDOF 4
ENDMDL
MODEL 8
REMARK VINA RESULT:    -7.739      1.876      2.553
REMARK INTER + INTRA:         -10.444
REMARK INTER:                 -10.313
REMARK INTRA:                  -0.131
REMARK UNBOUND:                -0.895
REMARK  Name = 
REMARK  4 active torsions:
REMARK  status: ('A' for Active; 'I' for Inactive)
REMARK    1  A    between atoms: C_2  and  C_4
REMARK    2  A    between atoms: N_8  and  C_9
REMARK    3  A    between atoms: C_9  and  C_10
REMARK    4  A    between atoms: C_14  and  C_15
REMARK                            x       y       z     vdW  Elec       q    Type
REMARK                         _______ _______ _______ _____ _____    ______ ____
ROOT
ATOM      1  C   UNL     1      43.497   3.414  11.041  0.00  0.00    +0.000 C 
ENDROOT
BRANCH   1   6
ATOM      2  C   UNL     1      46.683   2.508   7.115  0.00  0.00    +0.000 A 
ATOM      3  C   UNL     1      46.173   3.721   7.562  0.00  0.00    +0.000 A 
ATOM      4  C   UNL     1      45.440   3.755   8.747  0.00  0.00    +0.000 A 
ATOM      5  C   UNL     1      45.207   2.579   9.453  0.00  0.00    +0.000 A 
ATOM      6  N   UNL     1      44.590   2.534  10.683  0.00  0.00    +0.000 N 
ATOM      7  N   UNL     1      45.680   1.392   9.012  0.00  0.00    +0.000 NA
ATOM      8  C   UNL     1      46.392   1.374   7.856  0.00  0.00    +0.000 A 
ATOM      9  H   UNL     1      44.464   1.556  10.928  0.00  0.00    +0.000 HD
BRANCH   2  11
ATOM     10  N   UNL     1      47.368   3.361   4.950  0.00  0.00    +0.000 N 
ATOM     11  C   UNL     1      47.516   2.388   5.901  0.00  0.00    +0.000 C 
ATOM     12  O   UNL     1      48.329   1.485   5.767  0.00  0.00    +0.000 OA
ATOM     13  H   UNL     1      48.021   3.331   4.177  0.00  0.00    +0.000 HD
ATOM     14  H   UNL     1      46.913   4.241   5.139  0.00  0.00    +0.000 HD
ENDBRANCH   2  11
ENDBRANCH   1   6
BRANCH   1  15
ATOM     15  C   UNL     1      43.932   4.848  11.233  0.00  0.00    +0.000 A 
ATOM     16  C   UNL     1      43.009   5.896  11.142  0.00  0.00    +0.000 A 
ATOM     17  C   UNL     1      43.406   7.206  11.404  0.00  0.00    +0.000 A 
ATOM     18  C   UNL     1      44.723   7.477  11.786  0.00  0.00    +0.000 A 
ATOM     19  C   UNL     1      45.672   6.449  11.928  0.00  0.00    +0.000 A 
ATOM     20  C   UNL     1      45.255   5.141  11.611  0.00  0.00    +0.000 A 
BRANCH  19  21
ATOM     21  C   UNL     1      47.022   6.707  12.489  0.00  0.00    +0.000 A 
ATOM     22  C   UNL     1      47.978   7.448  11.762  0.00  0.00    +0.000 A 
ATOM     23  C   UNL     1      49.215   7.799  12.314  0.00  0.00    +0.000 A 
ATOM     24  C   UNL     1      49.526   7.421  13.615  0.00  0.00    +0.000 A 
ATOM     25  C   UNL     1      48.606   6.674  14.337  0.00  0.00    +0.000 A 
ATOM     26  F   UNL     1      48.895   6.318  15.597  0.00  0.00    +0.000 F 
ATOM     27  C   UNL     1      47.378   6.307  13.788  0.00  0.00    +0.000 A 
ENDBRANCH  19  21
ENDBRANCH   1  15
TORSDOF 4
ENDMDL
MODEL 9
REMARK VINA RESULT:    -7.586      3.973      7.173
REMARK INTER + INTRA:         -10.255
REMARK INTER:                  -9.367
REMARK INTRA:                  -0.888
REMARK UNBOUND:                -0.895
REMARK  Name = 
REMARK  4 active torsions:
REMARK  status: ('A' for Active; 'I' for Inactive)
REMARK    1  A    between atoms: C_2  and  C_4
REMARK    2  A    between atoms: N_8  and  C_9
REMARK    3  A    between atoms: C_9  and  C_10
REMARK    4  A    between atoms: C_14  and  C_15
REMARK                            x       y       z     vdW  Elec       q    Type
REMARK                         _______ _______ _______ _____ _____    ______ ____
ROOT
ATOM      1  C   UNL     1      45.825   4.698  13.646  0.00  0.00    +0.000 C 
ENDROOT
BRANCH   1   6
ATOM      2  C   UNL     1      47.941   9.102  12.059  0.00  0.00    +0.000 A 
ATOM      3  C   UNL     1      46.782   8.910  12.803  0.00  0.00    +0.000 A 
ATOM      4  C   UNL     1      46.471   7.629  13.256  0.00  0.00    +0.000 A 
ATOM      5  C   UNL     1      47.303   6.559  12.941  0.00  0.00    +0.000 A 
ATOM      6  N   UNL     1      47.132   5.286  13.434  0.00  0.00    +0.000 N 
ATOM      7  N   UNL     1      48.418   6.735  12.198  0.00  0.00    +0.000 NA
ATOM      8  C   UNL     1      48.710   7.988  11.764  0.00  0.00    +0.000 A 
ATOM      9  H   UNL     1      47.813   4.685  12.977  0.00  0.00    +0.000 HD
BRANCH   2  11
ATOM     10  N   UNL     1      47.405  11.271  11.114  0.00  0.00    +0.000 N 
ATOM     11  C   UNL     1      48.377  10.432  11.587  0.00  0.00    +0.000 C 
ATOM     12  O   UNL     1      49.546  10.784  11.652  0.00  0.00    +0.000 OA
ATOM     13  H   UNL     1      47.698  12.215  10.899  0.00  0.00    +0.000 HD
ATOM     14  H   UNL     1      46.423  11.117  11.288  0.00  0.00    +0.000 HD
ENDBRANCH   2  11
ENDBRANCH   1   6
BRANCH   1  15
ATOM     15  C   UNL     1      45.021   4.573  12.374  0.00  0.00    +0.000 A 
ATOM     16  C   UNL     1      43.824   5.281  12.209  0.00  0.00    +0.000 A 
ATOM     17  C   UNL     1      43.136   5.223  10.999  0.00  0.00    +0.000 A 
ATOM     18  C   UNL     1      43.650   4.480   9.933  0.00  0.00    +0.000 A 
ATOM     19  C   UNL     1      44.869   3.786  10.043  0.00  0.00    +0.000 A 
ATOM     20  C   UNL     1      45.519   3.824  11.293  0.00  0.00    +0.000 A 
BRANCH  19  21
ATOM     21  C   UNL     1      45.502   3.133   8.870  0.00  0.00    +0.000 A 
ATOM     22  C   UNL     1      46.011   3.901   7.802  0.00  0.00    +0.000 A 
ATOM     23  C   UNL     1      46.710   3.316   6.739  0.00  0.00    +0.000 A 
ATOM     24  C   UNL     1      46.922   1.943   6.723  0.00  0.00    +0.000 A 
ATOM     25  C   UNL     1      46.410   1.169   7.754  0.00  0.00    +0.000 A 
ATOM     26  F   UNL     1      46.622  -0.154   7.750  0.00  0.00    +0.000 F 
ATOM     27  C   UNL     1      45.699   1.743   8.808  0.00  0.00    +0.000 A 
ENDBRANCH  19  21
ENDBRANCH   1  15
TORSDOF 4
ENDMDL
