MODEL 1
REMARK VINA RESULT:    -7.559      0.000      0.000
REMARK INTER + INTRA:         -10.535
REMARK INTER:                  -9.769
REMARK INTRA:                  -0.766
REMARK UNBOUND:                -0.766
REMARK  Name = 
REMARK  6 active torsions:
REMARK  status: ('A' for Active; 'I' for Inactive)
REMARK    1  A    between atoms: C_1  and  C_2
REMARK    2  A    between atoms: C_2  and  C_3
REMARK    3  A    between atoms: C_2  and  C_14
REMARK    4  A    between atoms: C_3  and  N_4
REMARK    5  A    between atoms: N_4  and  C_5
REMARK    6  A    between atoms: C_8  and  C_9
REMARK                            x       y       z     vdW  Elec       q    Type
REMARK                         _______ _______ _______ _____ _____    ______ ____
ROOT
ATOM      1  N   UNL     1      43.722   3.354  10.519  0.00  0.00    +0.000 N 
ATOM      2  H   UNL     1      43.283   4.268  10.412  0.00  0.00    +0.000 HD
ENDROOT
BRANCH   1   3
ATOM      3  C   UNL     1      44.681   3.133   9.521  0.00  0.00    +0.000 A 
ATOM      4  C   UNL     1      45.110   4.198   8.717  0.00  0.00    +0.000 A 
ATOM      5  C   UNL     1      46.051   3.987   7.704  0.00  0.00    +0.000 A 
ATOM      6  C   UNL     1      46.516   2.695   7.502  0.00  0.00    +0.000 A 
ATOM      7  N   UNL     1      46.085   1.617   8.207  0.00  0.00    +0.000 NA
ATOM      8  C   UNL     1      45.171   1.868   9.172  0.00  0.00    +0.000 A 
BRANCH   6   9
ATOM      9  C   UNL     1      47.563   2.425   6.463  0.00  0.00    +0.000 C 
ATOM     10  N   UNL     1      47.457   3.180   5.324  0.00  0.00    +0.000 N 
ATOM     11  O   UNL     1      48.442   1.588   6.607  0.00  0.00    +0.000 OA
ATOM     12  H   UNL     1      46.704   3.853   5.243  0.00  0.00    +0.000 HD
ATOM     13  H   UNL     1      48.111   3.043   4.568  0.00  0.00    +0.000 HD
ENDBRANCH   6   9
ENDBRANCH   1   3
BRANCH   1  14
ATOM     14  C   UNL     1      44.154   3.139  11.901  0.00  0.00    +0.000 C 
BRANCH  14  16
ATOM     15  C   UNL     1      42.949   5.249  12.743  0.00  0.00    +0.000 C 
ATOM     16  C   UNL     1      44.218   4.473  12.582  0.00  0.00    +0.000 C 
BRANCH  16  17
ATOM     17  C   UNL     1      45.514   5.162  12.637  0.00  0.00    +0.000 A 
ATOM     18  C   UNL     1      45.890   6.076  11.645  0.00  0.00    +0.000 A 
ATOM     19  C   UNL     1      47.066   6.821  11.780  0.00  0.00    +0.000 A 
ATOM     20  C   UNL     1      47.871   6.655  12.905  0.00  0.00    +0.000 A 
ATOM     21  C   UNL     1      47.524   5.716  13.875  0.00  0.00    +0.000 A 
ATOM     22  C   UNL     1      46.358   4.965  13.733  0.00  0.00    +0.000 A 
ENDBRANCH  16  17
ENDBRANCH  14  16
ENDBRANCH   1  14
TORSDOF 5
ENDMDL
MODEL 2
REMARK VINA RESULT:    -7.256      3.178      6.508
REMARK INTER + INTRA:         -10.143
REMARK INTER:                  -9.905
REMARK INTRA:                  -0.237
REMARK UNBOUND:                -0.766
REMARK  Name = 
REMARK  6 active torsions:
REMARK  status: ('A' for Active; 'I' for Inactive)
REMARK    1  A    between atoms: C_1  and  C_2
REMARK    2  A    between atoms: C_2  and  C_3
REMARK    3  A    between atoms: C_2  and  C_14
REMARK    4  A    between atoms: C_3  and  N_4
REMARK    5  A    between atoms: N_4  and  C_5
REMARK    6  A    between atoms: C_8  and  C_9
REMARK                            x       y       z     vdW  Elec       q    Type
REMARK                         _______ _______ _______ _____ _____    ______ ____
ROOT
ATOM      1  N   UNL     1      44.980   5.743  10.588  0.00  0.00    +0.000 N 
ATOM      2  H   UNL     1      44.014   5.416  10.605  0.00  0.00    +0.000 HD
ENDROOT
BRANCH   1   3
ATOM      3  C   UNL     1      45.619   5.501  11.811  0.00  0.00    +0.000 A 
ATOM      4  C   UNL     1      46.865   6.089  12.075  0.00  0.00    +0.000 A 
ATOM      5  C   UNL     1      47.524   5.840  13.284  0.00  0.00    +0.000 A 
ATOM      6  C   UNL     1      46.926   4.974  14.189  0.00  0.00    +0.000 A 
ATOM      7  N   UNL     1      45.754   4.328  13.957  0.00  0.00    +0.000 NA
ATOM      8  C   UNL     1      45.156   4.595  12.773  0.00  0.00    +0.000 A 
BRANCH   6   9
ATOM      9  C   UNL     1      47.566   4.715  15.519  0.00  0.00    +0.000 C 
ATOM     10  N   UNL     1      47.072   3.633  16.200  0.00  0.00    +0.000 N 
ATOM     11  O   UNL     1      48.456   5.419  15.978  0.00  0.00    +0.000 OA
ATOM     12  H   UNL     1      46.325   3.087  15.788  0.00  0.00    +0.000 HD
ATOM     13  H   UNL     1      47.436   3.405  17.113  0.00  0.00    +0.000 HD
ENDBRANCH   6   9
ENDBRANCH   1   3
BRANCH   1  14
ATOM     14  C   UNL     1      45.670   5.276   9.385  0.00  0.00    +0.000 C 
BRANCH  14  16
ATOM     15  C   UNL     1      43.945   3.415   9.807  0.00  0.00    +0.000 C 
ATOM     16  C   UNL     1      45.046   3.980   8.964  0.00  0.00    +0.000 C 
BRANCH  16  17
ATOM     17  C   UNL     1      45.806   3.104   8.063  0.00  0.00    +0.000 A 
ATOM     18  C   UNL     1      46.427   3.611   6.914  0.00  0.00    +0.000 A 
ATOM     19  C   UNL     1      47.255   2.792   6.140  0.00  0.00    +0.000 A 
ATOM     20  C   UNL     1      47.464   1.465   6.508  0.00  0.00    +0.000 A 
ATOM     21  C   UNL     1      46.815   0.943   7.625  0.00  0.00    +0.000 A 
ATOM     22  C   UNL     1      45.980   1.757   8.390  0.00  0.00    +0.000 A 
ENDBRANCH  16  17
ENDBRANCH  14  16
ENDBRANCH   1  14
TORSDOF 5
ENDMDL
MODEL 3
REMARK VINA RESULT:    -7.016      3.400      5.649
REMARK INTER + INTRA:          -9.833
REMARK INTER:                  -9.003
REMARK INTRA:                  -0.830
REMARK UNBOUND:                -0.766
REMARK  Name = 
REMARK  6 active torsions:
REMARK  status: ('A' for Active; 'I' for Inactive)
REMARK    1  A    between atoms: C_1  and  C_2
REMARK    2  A    between atoms: C_2  and  C_3
REMARK    3  A    between atoms: C_2  and  C_14
REMARK    4  A    between atoms: C_3  and  N_4
REMARK    5  A    between atoms: N_4  and  C_5
REMARK    6  A    between atoms: C_8  and  C_9
REMARK                            x       y       z     vdW  Elec       q    Type
REMARK                         _______ _______ _______ _____ _____    ______ ____
ROOT
ATOM      1  N   UNL     1      43.552   5.588  12.379  0.00  0.00    +0.000 N 
ATOM      2  H   UNL     1      43.211   4.889  13.038  0.00  0.00    +0.000 HD
ENDROOT
BRANCH   1   3
ATOM      3  C   UNL     1      44.898   5.895  12.615  0.00  0.00    +0.000 A 
ATOM      4  C   UNL     1      45.556   6.823  11.794  0.00  0.00    +0.000 A 
ATOM      5  C   UNL     1      46.906   7.123  12.007  0.00  0.00    +0.000 A 
ATOM      6  C   UNL     1      47.574   6.455  13.023  0.00  0.00    +0.000 A 
ATOM      7  N   UNL     1      47.003   5.501  13.803  0.00  0.00    +0.000 NA
ATOM      8  C   UNL     1      45.698   5.239  13.559  0.00  0.00    +0.000 A 
BRANCH   6   9
ATOM      9  C   UNL     1      49.006   6.779  13.324  0.00  0.00    +0.000 C 
ATOM     10  N   UNL     1      49.763   7.125  12.235  0.00  0.00    +0.000 N 
ATOM     11  O   UNL     1      49.477   6.729  14.451  0.00  0.00    +0.000 OA
ATOM     12  H   UNL     1      49.334   7.139  11.317  0.00  0.00    +0.000 HD
ATOM     13  H   UNL     1      50.743   7.336  12.351  0.00  0.00    +0.000 HD
ENDBRANCH   6   9
ENDBRANCH   1   3
BRANCH   1  14
ATOM     14  C   UNL     1      43.193   5.233  11.005  0.00  0.00    +0.000 C 
BRANCH  14  16
ATOM     15  C   UNL     1      43.404   2.844  11.934  0.00  0.00    +0.000 C 
ATOM     16  C   UNL     1      43.553   3.794  10.788  0.00  0.00    +0.000 C 
BRANCH  16  17
ATOM     17  C   UNL     1      44.448   3.464   9.670  0.00  0.00    +0.000 A 
ATOM     18  C   UNL     1      45.076   4.470   8.925  0.00  0.00    +0.000 A 
ATOM     19  C   UNL     1      46.025   4.140   7.953  0.00  0.00    +0.000 A 
ATOM     20  C   UNL     1      46.349   2.805   7.719  0.00  0.00    +0.000 A 
ATOM     21  C   UNL     1      45.697   1.798   8.428  0.00  0.00    +0.000 A 
ATOM     22  C   UNL     1      44.742   2.128   9.388  0.00  0.00    +0.000 A 
ENDBRANCH  16  17
ENDBRANCH  14  16
ENDBRANCH   1  14
TORSDOF 5
ENDMDL
MODEL 4
REMARK VINA RESULT:    -6.599      3.233      5.787
REMARK INTER + INTRA:          -9.294
REMARK INTER:                  -8.427
REMARK INTRA:                  -0.866
REMARK UNBOUND:                -0.766
REMARK  Name = 
REMARK  6 active torsions:
REMARK  status: ('A' for Active; 'I' for Inactive)
REMARK    1  A    between atoms: C_1  and  C_2
REMARK    2  A    between atoms: C_2  and  C_3
REMARK    3  A    between atoms: C_2  and  C_14
REMARK    4  A    between atoms: C_3  and  N_4
REMARK    5  A    between atoms: N_4  and  C_5
REMARK    6  A    between atoms: C_8  and  C_9
REMARK                            x       y       z     vdW  Elec       q    Type
REMARK                         _______ _______ _______ _____ _____    ______ ____
ROOT
ATOM      1  N   UNL     1      43.846   5.804  12.438  0.00  0.00    +0.000 N 
ATOM      2  H   UNL     1      43.649   5.106  13.155  0.00  0.00    +0.000 HD
ENDROOT
BRANCH   1   3
ATOM      3  C   UNL     1      45.192   6.192  12.464  0.00  0.00    +0.000 A 
ATOM      4  C   UNL     1      46.134   5.398  13.134  0.00  0.00    +0.000 A 
ATOM      5  C   UNL     1      47.477   5.784  13.185  0.00  0.00    +0.000 A 
ATOM      6  C   UNL     1      47.837   6.983  12.586  0.00  0.00    +0.000 A 
ATOM      7  N   UNL     1      46.955   7.822  11.982  0.00  0.00    +0.000 NA
ATOM      8  C   UNL     1      45.667   7.410  11.962  0.00  0.00    +0.000 A 
BRANCH   6   9
ATOM      9  C   UNL     1      49.272   7.416  12.568  0.00  0.00    +0.000 C 
ATOM     10  N   UNL     1      49.942   7.250  13.752  0.00  0.00    +0.000 N 
ATOM     11  O   UNL     1      49.811   7.893  11.580  0.00  0.00    +0.000 OA
ATOM     12  H   UNL     1      49.451   6.864  14.550  0.00  0.00    +0.000 HD
ATOM     13  H   UNL     1      50.906   7.538  13.829  0.00  0.00    +0.000 HD
ENDBRANCH   6   9
ENDBRANCH   1   3
BRANCH   1  14
ATOM     14  C   UNL     1      43.309   5.390  11.141  0.00  0.00    +0.000 C 
BRANCH  14  16
ATOM     15  C   UNL     1      43.406   2.991  12.065  0.00  0.00    +0.000 C 
ATOM     16  C   UNL     1      43.649   3.945  10.937  0.00  0.00    +0.000 C 
BRANCH  16  17
ATOM     17  C   UNL     1      44.605   3.600   9.876  0.00  0.00    +0.000 A 
ATOM     18  C   UNL     1      44.865   2.265   9.541  0.00  0.00    +0.000 A 
ATOM     19  C   UNL     1      45.675   1.958   8.444  0.00  0.00    +0.000 A 
ATOM     20  C   UNL     1      46.230   2.981   7.678  0.00  0.00    +0.000 A 
ATOM     21  C   UNL     1      46.011   4.311   8.032  0.00  0.00    +0.000 A 
ATOM     22  C   UNL     1      45.213   4.616   9.133  0.00  0.00    +0.000 A 
ENDBRANCH  16  17
ENDBRANCH  14  16
ENDBRANCH   1  14
TORSDOF 5
ENDMDL
MODEL 5
REMARK VINA RESULT:    -6.161      3.665      5.851
REMARK INTER + INTRA:          -8.728
REMARK INTER:                  -8.041
REMARK INTRA:                  -0.686
REMARK UNBOUND:                -0.766
REMARK  Name = 
REMARK  6 active torsions:
REMARK  status: ('A' for Active; 'I' for Inactive)
REMARK    1  A    between atoms: C_1  and  C_2
REMARK    2  A    between atoms: C_2  and  C_3
REMARK    3  A    between atoms: C_2  and  C_14
REMARK    4  A    between atoms: C_3  and  N_4
REMARK    5  A    between atoms: N_4  and  C_5
REMARK    6  A    between atoms: C_8  and  C_9
REMARK                            x       y       z     vdW  Elec       q    Type
REMARK                         _______ _______ _______ _____ _____    ______ ____
ROOT
ATOM      1  N   UNL     1      45.419   5.859  13.507  0.00  0.00    +0.000 N 
ATOM      2  H   UNL     1      45.252   5.880  14.512  0.00  0.00    +0.000 HD
ENDROOT
BRANCH   1   3
ATOM      3  C   UNL     1      46.677   6.388  13.190  0.00  0.00    +0.000 A 
ATOM      4  C   UNL     1      46.841   7.143  12.019  0.00  0.00    +0.000 A 
ATOM      5  C   UNL     1      48.096   7.659  11.681  0.00  0.00    +0.000 A 
ATOM      6  C   UNL     1      49.169   7.374  12.514  0.00  0.00    +0.000 A 
ATOM      7  N   UNL     1      49.079   6.593  13.622  0.00  0.00    +0.000 NA
ATOM      8  C   UNL     1      47.847   6.111  13.908  0.00  0.00    +0.000 A 
BRANCH   6   9
ATOM      9  C   UNL     1      50.523   7.946  12.222  0.00  0.00    +0.000 C 
ATOM     10  N   UNL     1      51.224   7.303  11.236  0.00  0.00    +0.000 N 
ATOM     11  O   UNL     1      50.982   8.908  12.823  0.00  0.00    +0.000 OA
ATOM     12  H   UNL     1      50.810   6.501  10.775  0.00  0.00    +0.000 HD
ATOM     13  H   UNL     1      52.153   7.614  10.995  0.00  0.00    +0.000 HD
ENDBRANCH   6   9
ENDBRANCH   1   3
BRANCH   1  14
ATOM     14  C   UNL     1      45.103   4.543  12.950  0.00  0.00    +0.000 C 
BRANCH  14  16
ATOM     15  C   UNL     1      42.763   5.129  12.057  0.00  0.00    +0.000 C 
ATOM     16  C   UNL     1      44.182   4.740  11.784  0.00  0.00    +0.000 C 
BRANCH  16  17
ATOM     17  C   UNL     1      44.540   4.114  10.504  0.00  0.00    +0.000 A 
ATOM     18  C   UNL     1      45.244   4.823   9.523  0.00  0.00    +0.000 A 
ATOM     19  C   UNL     1      45.692   4.175   8.368  0.00  0.00    +0.000 A 
ATOM     20  C   UNL     1      45.437   2.817   8.187  0.00  0.00    +0.000 A 
ATOM     21  C   UNL     1      44.700   2.116   9.139  0.00  0.00    +0.000 A 
ATOM     22  C   UNL     1      44.244   2.766  10.285  0.00  0.00    +0.000 A 
ENDBRANCH  16  17
ENDBRANCH  14  16
ENDBRANCH   1  14
TORSDOF 5
ENDMDL
MODEL 6
REMARK VINA RESULT:    -5.758      4.151      6.114
REMARK INTER + INTRA:          -8.207
REMARK INTER:                  -7.793
REMARK INTRA:                  -0.414
REMARK UNBOUND:                -0.766
REMARK  Name = 
REMARK  6 active torsions:
REMARK  status: ('A' for Active; 'I' for Inactive)
REMARK    1  A    between atoms: C_1  and  C_2
REMARK    2  A    between atoms: C_2  and  C_3
REMARK    3  A    between atoms: C_2  and  C_14
REMARK    4  A    between atoms: C_3  and  N_4
REMARK    5  A    between atoms: N_4  and  C_5
REMARK    6  A    between atoms: C_8  and  C_9
REMARK                            x       y       z     vdW  Elec       q    Type
REMARK                         _______ _______ _______ _____ _____    ______ ____
ROOT
ATOM      1  N   UNL     1      47.375   5.200  15.061  0.00  0.00    +0.000 N 
ATOM      2  H   UNL     1      48.291   5.546  14.779  0.00  0.00    +0.000 HD
ENDROOT
BRANCH   1   3
ATOM      3  C   UNL     1      46.595   4.862  13.947  0.00  0.00    +0.000 A 
ATOM      4  C   UNL     1      45.944   5.868  13.219  0.00  0.00    +0.000 A 
ATOM      5  C   UNL     1      45.147   5.542  12.117  0.00  0.00    +0.000 A 
ATOM      6  C   UNL     1      44.994   4.201  11.793  0.00  0.00    +0.000 A 
ATOM      7  N   UNL     1      45.547   3.184  12.504  0.00  0.00    +0.000 NA
ATOM      8  C   UNL     1      46.306   3.546  13.563  0.00  0.00    +0.000 A 
BRANCH   6   9
ATOM      9  C   UNL     1      44.192   3.803  10.592  0.00  0.00    +0.000 C 
ATOM     10  N   UNL     1      43.957   4.810   9.692  0.00  0.00    +0.000 N 
ATOM     11  O   UNL     1      43.763   2.670  10.423  0.00  0.00    +0.000 OA
ATOM     12  H   UNL     1      44.319   5.737   9.880  0.00  0.00    +0.000 HD
ATOM     13  H   UNL     1      43.405   4.628   8.867  0.00  0.00    +0.000 HD
ENDBRANCH   6   9
ENDBRANCH   1   3
BRANCH   1  14
ATOM     14  C   UNL     1      47.497   4.185  16.108  0.00  0.00    +0.000 C 
BRANCH  14  16
ATOM     15  C   UNL     1      48.543   6.137  17.415  0.00  0.00    +0.000 C 
ATOM     16  C   UNL     1      48.496   4.672  17.114  0.00  0.00    +0.000 C 
BRANCH  16  17
ATOM     17  C   UNL     1      49.659   3.823  17.403  0.00  0.00    +0.000 A 
ATOM     18  C   UNL     1      49.653   2.457  17.095  0.00  0.00    +0.000 A 
ATOM     19  C   UNL     1      50.812   1.692  17.254  0.00  0.00    +0.000 A 
ATOM     20  C   UNL     1      51.982   2.287  17.723  0.00  0.00    +0.000 A 
ATOM     21  C   UNL     1      51.983   3.636  18.072  0.00  0.00    +0.000 A 
ATOM     22  C   UNL     1      50.823   4.395  17.924  0.00  0.00    +0.000 A 
ENDBRANCH  16  17
ENDBRANCH  14  16
ENDBRANCH   1  14
TORSDOF 5
ENDMDL
MODEL 7
REMARK VINA RESULT:    -5.735      3.289      5.428
REMARK INTER + INTRA:          -8.177
REMARK INTER:                  -7.553
REMARK INTRA:                  -0.624
REMARK UNBOUND:                -0.766
REMARK  Name = 
REMARK  6 active torsions:
REMARK  status: ('A' for Active; 'I' for Inactive)
REMARK    1  A    between atoms: C_1  and  C_2
REMARK    2  A    between atoms: C_2  and  C_3
REMARK    3  A    between atoms: C_2  and  C_14
REMARK    4  A    between atoms: C_3  and  N_4
REMARK    5  A    between atoms: N_4  and  C_5
REMARK    6  A    between atoms: C_8  and  C_9
REMARK                            x       y       z     vdW  Elec       q    Type
REMARK                         _______ _______ _______ _____ _____    ______ ____
ROOT
ATOM      1  N   UNL     1      46.930   6.958  13.875  0.00  0.00    +0.000 N 
ATOM      2  H   UNL     1      46.862   7.950  13.648  0.00  0.00    +0.000 HD
ENDROOT
BRANCH   1   3
ATOM      3  C   UNL     1      46.251   6.174  12.933  0.00  0.00    +0.000 A 
ATOM      4  C   UNL     1      45.629   4.983  13.335  0.00  0.00    +0.000 A 
ATOM      5  C   UNL     1      44.965   4.181  12.401  0.00  0.00    +0.000 A 
ATOM      6  C   UNL     1      44.972   4.581  11.072  0.00  0.00    +0.000 A 
ATOM      7  N   UNL     1      45.615   5.688  10.619  0.00  0.00    +0.000 NA
ATOM      8  C   UNL     1      46.247   6.430  11.556  0.00  0.00    +0.000 A 
BRANCH   6   9
ATOM      9  C   UNL     1      44.232   3.783  10.042  0.00  0.00    +0.000 C 
ATOM     10  N   UNL     1      44.121   4.381   8.814  0.00  0.00    +0.000 N 
ATOM     11  O   UNL     1      43.747   2.684  10.273  0.00  0.00    +0.000 OA
ATOM     12  H   UNL     1      44.526   5.300   8.672  0.00  0.00    +0.000 HD
ATOM     13  H   UNL     1      43.618   3.918   8.073  0.00  0.00    +0.000 HD
ENDBRANCH   6   9
ENDBRANCH   1   3
BRANCH   1  14
ATOM     14  C   UNL     1      48.315   6.581  14.164  0.00  0.00    +0.000 C 
BRANCH  14  16
ATOM     15  C   UNL     1      49.076   7.917  16.226  0.00  0.00    +0.000 C 
ATOM     16  C   UNL     1      48.517   6.655  15.648  0.00  0.00    +0.000 C 
BRANCH  16  17
ATOM     17  C   UNL     1      48.612   5.397  16.399  0.00  0.00    +0.000 A 
ATOM     18  C   UNL     1      47.609   4.423  16.310  0.00  0.00    +0.000 A 
ATOM     19  C   UNL     1      47.776   3.179  16.925  0.00  0.00    +0.000 A 
ATOM     20  C   UNL     1      48.944   2.902  17.632  0.00  0.00    +0.000 A 
ATOM     21  C   UNL     1      49.927   3.881  17.761  0.00  0.00    +0.000 A 
ATOM     22  C   UNL     1      49.754   5.126  17.158  0.00  0.00    +0.000 A 
ENDBRANCH  16  17
ENDBRANCH  14  16
ENDBRANCH   1  14
TORSDOF 5
ENDMDL
MODEL 8
REMARK VINA RESULT:    -5.653      3.933      6.787
REMARK INTER + INTRA:          -8.071
REMARK INTER:                  -7.672
REMARK INTRA:                  -0.399
REMARK UNBOUND:                -0.766
REMARK  Name = 
REMARK  6 active torsions:
REMARK  status: ('A' for Active; 'I' for Inactive)
REMARK    1  A    between atoms: C_1  and  C_2
REMARK    2  A    between atoms: C_2  and  C_3
REMARK    3  A    between atoms: C_2  and  C_14
REMARK    4  A    between atoms: C_3  and  N_4
REMARK    5  A    between atoms: N_4  and  C_5
REMARK    6  A    between atoms: C_8  and  C_9
REMARK                            x       y       z     vdW  Elec       q    Type
REMARK                         _______ _______ _______ _____ _____    ______ ____
ROOT
ATOM      1  N   UNL     1      46.738   5.912  11.758  0.00  0.00    +0.000 N 
ATOM      2  H   UNL     1      47.495   6.399  11.281  0.00  0.00    +0.000 HD
ENDROOT
BRANCH   1   3
ATOM      3  C   UNL     1      47.102   5.564  13.066  0.00  0.00    +0.000 A 
ATOM      4  C   UNL     1      46.490   4.470  13.693  0.00  0.00    +0.000 A 
ATOM      5  C   UNL     1      46.830   4.125  15.005  0.00  0.00    +0.000 A 
ATOM      6  C   UNL     1      47.759   4.913  15.670  0.00  0.00    +0.000 A 
ATOM      7  N   UNL     1      48.332   6.022  15.134  0.00  0.00    +0.000 NA
ATOM      8  C   UNL     1      47.969   6.320  13.865  0.00  0.00    +0.000 A 
BRANCH   6   9
ATOM      9  C   UNL     1      48.195   4.555  17.059  0.00  0.00    +0.000 C 
ATOM     10  N   UNL     1      47.322   3.758  17.753  0.00  0.00    +0.000 N 
ATOM     11  O   UNL     1      49.243   4.949  17.550  0.00  0.00    +0.000 OA
ATOM     12  H   UNL     1      46.457   3.467  17.311  0.00  0.00    +0.000 HD
ATOM     13  H   UNL     1      47.532   3.491  18.703  0.00  0.00    +0.000 HD
ENDBRANCH   6   9
ENDBRANCH   1   3
BRANCH   1  14
ATOM     14  C   UNL     1      45.472   6.629  11.601  0.00  0.00    +0.000 C 
BRANCH  14  16
ATOM     15  C   UNL     1      43.314   5.360  12.193  0.00  0.00    +0.000 C 
ATOM     16  C   UNL     1      44.418   5.634  11.220  0.00  0.00    +0.000 C 
BRANCH  16  17
ATOM     17  C   UNL     1      44.735   4.653  10.173  0.00  0.00    +0.000 A 
ATOM     18  C   UNL     1      45.480   5.015   9.044  0.00  0.00    +0.000 A 
ATOM     19  C   UNL     1      45.886   4.043   8.125  0.00  0.00    +0.000 A 
ATOM     20  C   UNL     1      45.549   2.707   8.328  0.00  0.00    +0.000 A 
ATOM     21  C   UNL     1      44.772   2.346   9.427  0.00  0.00    +0.000 A 
ATOM     22  C   UNL     1      44.357   3.317  10.336  0.00  0.00    +0.000 A 
ENDBRANCH  16  17
ENDBRANCH  14  16
ENDBRANCH   1  14
TORSDOF 5
ENDMDL
MODEL 9
REMARK VINA RESULT:    -5.394      3.328      5.424
REMARK INTER + INTRA:          -7.736
REMARK INTER:                  -6.999
REMARK INTRA:                  -0.737
REMARK UNBOUND:                -0.766
REMARK  Name = 
REMARK  6 active torsions:
REMARK  status: ('A' for Active; 'I' for Inactive)
REMARK    1  A    between atoms: C_1  and  C_2
REMARK    2  A    between atoms: C_2  and  C_3
REMARK    3  A    between atoms: C_2  and  C_14
REMARK    4  A    between atoms: C_3  and  N_4
REMARK    5  A    between atoms: N_4  and  C_5
REMARK    6  A    between atoms: C_8  and  C_9
REMARK                            x       y       z     vdW  Elec       q    Type
REMARK                         _______ _______ _______ _____ _____    ______ ____
ROOT
ATOM      1  N   UNL     1      47.534   6.395  13.853  0.00  0.00    +0.000 N 
ATOM      2  H   UNL     1      47.035   6.882  14.597  0.00  0.00    +0.000 HD
ENDROOT
BRANCH   1   3
ATOM      3  C   UNL     1      46.674   5.557  13.130  0.00  0.00    +0.000 A 
ATOM      4  C   UNL     1      46.219   5.950  11.863  0.00  0.00    +0.000 A 
ATOM      5  C   UNL     1      45.345   5.132  11.140  0.00  0.00    +0.000 A 
ATOM      6  C   UNL     1      44.921   3.947  11.726  0.00  0.00    +0.000 A 
ATOM      7  N   UNL     1      45.278   3.551  12.975  0.00  0.00    +0.000 NA
ATOM      8  C   UNL     1      46.120   4.376  13.639  0.00  0.00    +0.000 A 
BRANCH   6   9
ATOM      9  C   UNL     1      44.025   3.012  10.971  0.00  0.00    +0.000 C 
ATOM     10  N   UNL     1      43.343   2.111  11.746  0.00  0.00    +0.000 N 
ATOM     11  O   UNL     1      43.915   3.035   9.753  0.00  0.00    +0.000 OA
ATOM     12  H   UNL     1      43.476   2.119  12.751  0.00  0.00    +0.000 HD
ATOM     13  H   UNL     1      42.736   1.432  11.311  0.00  0.00    +0.000 HD
ENDBRANCH   6   9
ENDBRANCH   1   3
BRANCH   1  14
ATOM     14  C   UNL     1      48.349   7.327  13.072  0.00  0.00    +0.000 C 
BRANCH  14  16
ATOM     15  C   UNL     1      48.131   9.063  14.957  0.00  0.00    +0.000 C 
ATOM     16  C   UNL     1      48.007   8.720  13.505  0.00  0.00    +0.000 C 
BRANCH  16  17
ATOM     17  C   UNL     1      47.147   9.528  12.630  0.00  0.00    +0.000 A 
ATOM     18  C   UNL     1      45.758   9.348  12.612  0.00  0.00    +0.000 A 
ATOM     19  C   UNL     1      44.944  10.211  11.874  0.00  0.00    +0.000 A 
ATOM     20  C   UNL     1      45.512  11.257  11.149  0.00  0.00    +0.000 A 
ATOM     21  C   UNL     1      46.896  11.415  11.128  0.00  0.00    +0.000 A 
ATOM     22  C   UNL     1      47.708  10.547  11.854  0.00  0.00    +0.000 A 
ENDBRANCH  16  17
ENDBRANCH  14  16
ENDBRANCH   1  14
TORSDOF 5
ENDMDL
