MODEL 1
REMARK VINA RESULT:    -6.650      0.000      0.000
REMARK INTER + INTRA:          -8.655
REMARK INTER:                  -8.399
REMARK INTRA:                  -0.256
REMARK UNBOUND:                -0.256
REMARK  Name = 
REMARK  5 active torsions:
REMARK  status: ('A' for Active; 'I' for Inactive)
REMARK    1  A    between atoms: N_1  and  C_2
REMARK    2  A    between atoms: C_2  and  C_3
REMARK    3  A    between atoms: C_3  and  C_4
REMARK    4  A    between atoms: C_4  and  N_5
REMARK    5  A    between atoms: C_11  and  C_12
REMARK                            x       y       z     vdW  Elec       q    Type
REMARK                         _______ _______ _______ _____ _____    ______ ____
ROOT
ATOM      1  N   UNL     1      45.466   3.739   9.126  0.00  0.00    +0.000 NA
ATOM      2  C   UNL     1      44.150   3.309   9.643  0.00  0.00    +0.000 C 
ATOM      3  C   UNL     1      43.741   3.645  11.089  0.00  0.00    +0.000 C 
ATOM      4  C   UNL     1      44.824   4.056  12.028  0.00  0.00    +0.000 A 
ATOM      5  N   UNL     1      44.954   3.621  13.264  0.00  0.00    +0.000 NA
ATOM      6  C   UNL     1      45.933   4.390  13.823  0.00  0.00    +0.000 A 
ATOM      7  C   UNL     1      46.443   5.318  12.930  0.00  0.00    +0.000 A 
ATOM      8  N   UNL     1      45.713   5.078  11.775  0.00  0.00    +0.000 N 
ATOM      9  C   UNL     1      45.684   5.895  10.583  0.00  0.00    +0.000 C 
ATOM     10  C   UNL     1      45.650   5.194   9.215  0.00  0.00    +0.000 C 
ENDROOT
BRANCH   7  11
ATOM     11  C   UNL     1      47.449   6.336  13.128  0.00  0.00    +0.000 C 
ATOM     12  N   UNL     1      47.017   7.528  13.639  0.00  0.00    +0.000 N 
ATOM     13  O   UNL     1      48.645   6.223  12.877  0.00  0.00    +0.000 OA
ATOM     14  H   UNL     1      46.066   7.711  13.910  0.00  0.00    +0.000 HD
ATOM     15  H   UNL     1      47.719   8.235  13.804  0.00  0.00    +0.000 HD
ENDBRANCH   7  11
BRANCH   1  16
ATOM     16  C   UNL     1      45.593   3.280   7.710  0.00  0.00    +0.000 C 
BRANCH  16  17
ATOM     17  C   UNL     1      47.042   3.210   7.192  0.00  0.00    +0.000 C 
BRANCH  17  18
ATOM     18  C   UNL     1      47.524   1.791   6.887  0.00  0.00    +0.000 C 
BRANCH  18  19
ATOM     19  N   UNL     1      48.477   1.767   5.780  0.00  0.00    +0.000 NA
ATOM     20  H   UNL     1      48.430   0.860   5.315  0.00  0.00    +0.000 HD
ATOM     21  H   UNL     1      49.428   1.845   6.142  0.00  0.00    +0.000 HD
ENDBRANCH  18  19
ENDBRANCH  17  18
ENDBRANCH  16  17
ENDBRANCH   1  16
TORSDOF 5
ENDMDL
MODEL 2
REMARK VINA RESULT:    -5.886      1.704      2.088
REMARK INTER + INTRA:          -7.691
REMARK INTER:                  -7.211
REMARK INTRA:                  -0.479
REMARK UNBOUND:                -0.256
REMARK  Name = 
REMARK  5 active torsions:
REMARK  status: ('A' for Active; 'I' for Inactive)
REMARK    1  A    between atoms: N_1  and  C_2
REMARK    2  A    between atoms: C_2  and  C_3
REMARK    3  A    between atoms: C_3  and  C_4
REMARK    4  A    between atoms: C_4  and  N_5
REMARK    5  A    between atoms: C_11  and  C_12
REMARK                            x       y       z     vdW  Elec       q    Type
REMARK                         _______ _______ _______ _____ _____    ______ ____
ROOT
ATOM      1  N   UNL     1      45.087   4.321  10.216  0.00  0.00    +0.000 NA
ATOM      2  C   UNL     1      44.937   3.246  11.220  0.00  0.00    +0.000 C 
ATOM      3  C   UNL     1      45.358   3.490  12.681  0.00  0.00    +0.000 C 
ATOM      4  C   UNL     1      46.246   4.657  12.950  0.00  0.00    +0.000 A 
ATOM      5  N   UNL     1      47.302   4.635  13.736  0.00  0.00    +0.000 NA
ATOM      6  C   UNL     1      47.694   5.936  13.863  0.00  0.00    +0.000 A 
ATOM      7  C   UNL     1      46.887   6.798  13.139  0.00  0.00    +0.000 A 
ATOM      8  N   UNL     1      45.961   5.946  12.554  0.00  0.00    +0.000 N 
ATOM      9  C   UNL     1      44.755   6.327  11.855  0.00  0.00    +0.000 C 
ATOM     10  C   UNL     1      44.359   5.541  10.595  0.00  0.00    +0.000 C 
ENDROOT
BRANCH   7  11
ATOM     11  C   UNL     1      46.933   8.238  13.035  0.00  0.00    +0.000 C 
ATOM     12  N   UNL     1      46.726   8.939  14.190  0.00  0.00    +0.000 N 
ATOM     13  O   UNL     1      47.135   8.878  12.008  0.00  0.00    +0.000 OA
ATOM     14  H   UNL     1      46.587   8.511  15.089  0.00  0.00    +0.000 HD
ATOM     15  H   UNL     1      46.783   9.945  14.129  0.00  0.00    +0.000 HD
ENDBRANCH   7  11
BRANCH   1  16
ATOM     16  C   UNL     1      44.604   3.810   8.898  0.00  0.00    +0.000 C 
BRANCH  16  17
ATOM     17  C   UNL     1      45.424   2.634   8.334  0.00  0.00    +0.000 C 
BRANCH  17  18
ATOM     18  C   UNL     1      46.399   3.032   7.225  0.00  0.00    +0.000 C 
BRANCH  18  19
ATOM     19  N   UNL     1      46.810   4.429   7.338  0.00  0.00    +0.000 NA
ATOM     20  H   UNL     1      46.414   4.960   6.562  0.00  0.00    +0.000 HD
ATOM     21  H   UNL     1      47.822   4.500   7.235  0.00  0.00    +0.000 HD
ENDBRANCH  18  19
ENDBRANCH  17  18
ENDBRANCH  16  17
ENDBRANCH   1  16
TORSDOF 5
ENDMDL
MODEL 3
REMARK VINA RESULT:    -5.777      2.403      3.439
REMARK INTER + INTRA:          -7.553
REMARK INTER:                  -7.210
REMARK INTRA:                  -0.343
REMARK UNBOUND:                -0.256
REMARK  Name = 
REMARK  5 active torsions:
REMARK  status: ('A' for Active; 'I' for Inactive)
REMARK    1  A    between atoms: N_1  and  C_2
REMARK    2  A    between atoms: C_2  and  C_3
REMARK    3  A    between atoms: C_3  and  C_4
REMARK    4  A    between atoms: C_4  and  N_5
REMARK    5  A    between atoms: C_11  and  C_12
REMARK                            x       y       z     vdW  Elec       q    Type
REMARK                         _______ _______ _______ _____ _____    ______ ____
ROOT
ATOM      1  N   UNL     1      44.623   3.919  11.059  0.00  0.00    +0.000 NA
ATOM      2  C   UNL     1      45.289   3.413  12.278  0.00  0.00    +0.000 C 
ATOM      3  C   UNL     1      45.818   4.400  13.335  0.00  0.00    +0.000 C 
ATOM      4  C   UNL     1      45.980   5.823  12.920  0.00  0.00    +0.000 A 
ATOM      5  N   UNL     1      47.025   6.574  13.198  0.00  0.00    +0.000 NA
ATOM      6  C   UNL     1      46.680   7.839  12.821  0.00  0.00    +0.000 A 
ATOM      7  C   UNL     1      45.404   7.895  12.284  0.00  0.00    +0.000 A 
ATOM      8  N   UNL     1      44.975   6.577  12.355  0.00  0.00    +0.000 N 
ATOM      9  C   UNL     1      43.634   6.089  12.122  0.00  0.00    +0.000 C 
ATOM     10  C   UNL     1      43.459   4.760  11.370  0.00  0.00    +0.000 C 
ENDROOT
BRANCH   7  11
ATOM     11  C   UNL     1      44.652   9.031  11.806  0.00  0.00    +0.000 C 
ATOM     12  N   UNL     1      44.069   8.903  10.576  0.00  0.00    +0.000 N 
ATOM     13  O   UNL     1      44.496  10.092  12.402  0.00  0.00    +0.000 OA
ATOM     14  H   UNL     1      44.106   8.065  10.021  0.00  0.00    +0.000 HD
ATOM     15  H   UNL     1      43.520   9.684  10.247  0.00  0.00    +0.000 HD
ENDBRANCH   7  11
BRANCH   1  16
ATOM     16  C   UNL     1      44.218   2.751  10.221  0.00  0.00    +0.000 C 
BRANCH  16  17
ATOM     17  C   UNL     1      45.182   2.435   9.062  0.00  0.00    +0.000 C 
BRANCH  17  18
ATOM     18  C   UNL     1      45.134   3.452   7.920  0.00  0.00    +0.000 C 
BRANCH  18  19
ATOM     19  N   UNL     1      45.546   4.782   8.359  0.00  0.00    +0.000 NA
ATOM     20  H   UNL     1      45.244   5.473   7.672  0.00  0.00    +0.000 HD
ATOM     21  H   UNL     1      46.565   4.839   8.380  0.00  0.00    +0.000 HD
ENDBRANCH  18  19
ENDBRANCH  17  18
ENDBRANCH  16  17
ENDBRANCH   1  16
TORSDOF 5
ENDMDL
MODEL 4
REMARK VINA RESULT:    -5.629      3.921      5.528
REMARK INTER + INTRA:          -7.366
REMARK INTER:                  -6.921
REMARK INTRA:                  -0.445
REMARK UNBOUND:                -0.256
REMARK  Name = 
REMARK  5 active torsions:
REMARK  status: ('A' for Active; 'I' for Inactive)
REMARK    1  A    between atoms: N_1  and  C_2
REMARK    2  A    between atoms: C_2  and  C_3
REMARK    3  A    between atoms: C_3  and  C_4
REMARK    4  A    between atoms: C_4  and  N_5
REMARK    5  A    between atoms: C_11  and  C_12
REMARK                            x       y       z     vdW  Elec       q    Type
REMARK                         _______ _______ _______ _____ _____    ______ ____
ROOT
ATOM      1  N   UNL     1      45.755   6.267  12.762  0.00  0.00    +0.000 NA
ATOM      2  C   UNL     1      46.947   7.048  12.368  0.00  0.00    +0.000 C 
ATOM      3  C   UNL     1      48.254   6.918  13.172  0.00  0.00    +0.000 C 
ATOM      4  C   UNL     1      48.164   6.308  14.529  0.00  0.00    +0.000 A 
ATOM      5  N   UNL     1      48.764   6.774  15.605  0.00  0.00    +0.000 NA
ATOM      6  C   UNL     1      48.589   5.820  16.564  0.00  0.00    +0.000 A 
ATOM      7  C   UNL     1      47.859   4.738  16.101  0.00  0.00    +0.000 A 
ATOM      8  N   UNL     1      47.592   5.081  14.783  0.00  0.00    +0.000 N 
ATOM      9  C   UNL     1      47.035   4.223  13.761  0.00  0.00    +0.000 C 
ATOM     10  C   UNL     1      46.017   4.821  12.778  0.00  0.00    +0.000 C 
ENDROOT
BRANCH   7  11
ATOM     11  C   UNL     1      47.491   3.515  16.774  0.00  0.00    +0.000 C 
ATOM     12  N   UNL     1      48.458   2.553  16.863  0.00  0.00    +0.000 N 
ATOM     13  O   UNL     1      46.394   3.267  17.265  0.00  0.00    +0.000 OA
ATOM     14  H   UNL     1      49.398   2.669  16.525  0.00  0.00    +0.000 HD
ATOM     15  H   UNL     1      48.214   1.706  17.355  0.00  0.00    +0.000 HD
ENDBRANCH   7  11
BRANCH   1  16
ATOM     16  C   UNL     1      44.644   6.589  11.816  0.00  0.00    +0.000 C 
BRANCH  16  17
ATOM     17  C   UNL     1      43.960   5.356  11.196  0.00  0.00    +0.000 C 
BRANCH  17  18
ATOM     18  C   UNL     1      42.635   4.980  11.861  0.00  0.00    +0.000 C 
BRANCH  18  19
ATOM     19  N   UNL     1      42.562   5.463  13.237  0.00  0.00    +0.000 NA
ATOM     20  H   UNL     1      42.787   4.699  13.875  0.00  0.00    +0.000 HD
ATOM     21  H   UNL     1      41.604   5.735  13.457  0.00  0.00    +0.000 HD
ENDBRANCH  18  19
ENDBRANCH  17  18
ENDBRANCH  16  17
ENDBRANCH   1  16
TORSDOF 5
ENDMDL
MODEL 5
REMARK VINA RESULT:    -5.324      3.290      4.670
REMARK INTER + INTRA:          -6.981
REMARK INTER:                  -6.724
REMARK INTRA:                  -0.257
REMARK UNBOUND:                -0.256
REMARK  Name = 
REMARK  5 active torsions:
REMARK  status: ('A' for Active; 'I' for Inactive)
REMARK    1  A    between atoms: N_1  and  C_2
REMARK    2  A    between atoms: C_2  and  C_3
REMARK    3  A    between atoms: C_3  and  C_4
REMARK    4  A    between atoms: C_4  and  N_5
REMARK    5  A    between atoms: C_11  and  C_12
REMARK                            x       y       z     vdW  Elec       q    Type
REMARK                         _______ _______ _______ _____ _____    ______ ____
ROOT
ATOM      1  N   UNL     1      44.925   5.491  12.821  0.00  0.00    +0.000 NA
ATOM      2  C   UNL     1      45.598   6.146  11.680  0.00  0.00    +0.000 C 
ATOM      3  C   UNL     1      47.036   6.677  11.832  0.00  0.00    +0.000 C 
ATOM      4  C   UNL     1      47.556   6.853  13.218  0.00  0.00    +0.000 A 
ATOM      5  N   UNL     1      48.227   7.903  13.643  0.00  0.00    +0.000 NA
ATOM      6  C   UNL     1      48.682   7.570  14.885  0.00  0.00    +0.000 A 
ATOM      7  C   UNL     1      48.286   6.298  15.264  0.00  0.00    +0.000 A 
ATOM      8  N   UNL     1      47.555   5.858  14.171  0.00  0.00    +0.000 N 
ATOM      9  C   UNL     1      47.076   4.515  13.933  0.00  0.00    +0.000 C 
ATOM     10  C   UNL     1      45.678   4.333  13.321  0.00  0.00    +0.000 C 
ENDROOT
BRANCH   7  11
ATOM     11  C   UNL     1      48.584   5.558  16.468  0.00  0.00    +0.000 C 
ATOM     12  N   UNL     1      47.614   5.546  17.432  0.00  0.00    +0.000 N 
ATOM     13  O   UNL     1      49.624   4.949  16.699  0.00  0.00    +0.000 OA
ATOM     14  H   UNL     1      46.714   5.983  17.329  0.00  0.00    +0.000 HD
ATOM     15  H   UNL     1      47.806   5.009  18.265  0.00  0.00    +0.000 HD
ENDBRANCH   7  11
BRANCH   1  16
ATOM     16  C   UNL     1      43.555   5.081  12.392  0.00  0.00    +0.000 C 
BRANCH  16  17
ATOM     17  C   UNL     1      43.460   4.619  10.925  0.00  0.00    +0.000 C 
BRANCH  17  18
ATOM     18  C   UNL     1      43.774   3.136  10.720  0.00  0.00    +0.000 C 
BRANCH  18  19
ATOM     19  N   UNL     1      43.041   2.291  11.659  0.00  0.00    +0.000 NA
ATOM     20  H   UNL     1      42.316   2.845  12.115  0.00  0.00    +0.000 HD
ATOM     21  H   UNL     1      43.666   1.984  12.406  0.00  0.00    +0.000 HD
ENDBRANCH  18  19
ENDBRANCH  17  18
ENDBRANCH  16  17
ENDBRANCH   1  16
TORSDOF 5
ENDMDL
MODEL 6
REMARK VINA RESULT:    -5.256      4.549      7.659
REMARK INTER + INTRA:          -6.894
REMARK INTER:                  -6.670
REMARK INTRA:                  -0.224
REMARK UNBOUND:                -0.256
REMARK  Name = 
REMARK  5 active torsions:
REMARK  status: ('A' for Active; 'I' for Inactive)
REMARK    1  A    between atoms: N_1  and  C_2
REMARK    2  A    between atoms: C_2  and  C_3
REMARK    3  A    between atoms: C_3  and  C_4
REMARK    4  A    between atoms: C_4  and  N_5
REMARK    5  A    between atoms: C_11  and  C_12
REMARK                            x       y       z     vdW  Elec       q    Type
REMARK                         _______ _______ _______ _____ _____    ______ ____
ROOT
ATOM      1  N   UNL     1      49.717   4.142  16.792  0.00  0.00    +0.000 NA
ATOM      2  C   UNL     1      49.891   5.573  17.119  0.00  0.00    +0.000 C 
ATOM      3  C   UNL     1      49.050   6.639  16.391  0.00  0.00    +0.000 C 
ATOM      4  C   UNL     1      48.371   6.229  15.129  0.00  0.00    +0.000 A 
ATOM      5  N   UNL     1      48.344   6.943  14.023  0.00  0.00    +0.000 NA
ATOM      6  C   UNL     1      47.461   6.309  13.199  0.00  0.00    +0.000 A 
ATOM      7  C   UNL     1      46.927   5.170  13.780  0.00  0.00    +0.000 A 
ATOM      8  N   UNL     1      47.535   5.138  15.026  0.00  0.00    +0.000 N 
ATOM      9  C   UNL     1      47.194   4.276  16.135  0.00  0.00    +0.000 C 
ATOM     10  C   UNL     1      48.332   3.692  16.986  0.00  0.00    +0.000 C 
ENDROOT
BRANCH   7  11
ATOM     11  C   UNL     1      45.940   4.248  13.268  0.00  0.00    +0.000 C 
ATOM     12  N   UNL     1      44.699   4.762  13.016  0.00  0.00    +0.000 N 
ATOM     13  O   UNL     1      46.119   3.054  13.048  0.00  0.00    +0.000 OA
ATOM     14  H   UNL     1      44.459   5.732  13.129  0.00  0.00    +0.000 HD
ATOM     15  H   UNL     1      44.012   4.128  12.634  0.00  0.00    +0.000 HD
ENDBRANCH   7  11
BRANCH   1  16
ATOM     16  C   UNL     1      50.652   3.345  17.641  0.00  0.00    +0.000 C 
BRANCH  16  17
ATOM     17  C   UNL     1      50.757   1.859  17.248  0.00  0.00    +0.000 C 
BRANCH  17  18
ATOM     18  C   UNL     1      52.137   1.247  17.496  0.00  0.00    +0.000 C 
BRANCH  18  19
ATOM     19  N   UNL     1      52.055   0.033  18.303  0.00  0.00    +0.000 NA
ATOM     20  H   UNL     1      52.468  -0.744  17.786  0.00  0.00    +0.000 HD
ATOM     21  H   UNL     1      51.077  -0.220  18.449  0.00  0.00    +0.000 HD
ENDBRANCH  18  19
ENDBRANCH  17  18
ENDBRANCH  16  17
ENDBRANCH   1  16
TORSDOF 5
ENDMDL
MODEL 7
REMARK VINA RESULT:    -4.903      2.934      4.966
REMARK INTER + INTRA:          -6.449
REMARK INTER:                  -6.086
REMARK INTRA:                  -0.363
REMARK UNBOUND:                -0.256
REMARK  Name = 
REMARK  5 active torsions:
REMARK  status: ('A' for Active; 'I' for Inactive)
REMARK    1  A    between atoms: N_1  and  C_2
REMARK    2  A    between atoms: C_2  and  C_3
REMARK    3  A    between atoms: C_3  and  C_4
REMARK    4  A    between atoms: C_4  and  N_5
REMARK    5  A    between atoms: C_11  and  C_12
REMARK                            x       y       z     vdW  Elec       q    Type
REMARK                         _______ _______ _______ _____ _____    ______ ____
ROOT
ATOM      1  N   UNL     1      45.757   5.791  12.986  0.00  0.00    +0.000 NA
ATOM      2  C   UNL     1      46.896   6.320  12.207  0.00  0.00    +0.000 C 
ATOM      3  C   UNL     1      48.277   6.481  12.871  0.00  0.00    +0.000 C 
ATOM      4  C   UNL     1      48.326   6.456  14.361  0.00  0.00    +0.000 A 
ATOM      5  N   UNL     1      49.022   7.290  15.105  0.00  0.00    +0.000 NA
ATOM      6  C   UNL     1      48.953   6.795  16.374  0.00  0.00    +0.000 A 
ATOM      7  C   UNL     1      48.193   5.639  16.444  0.00  0.00    +0.000 A 
ATOM      8  N   UNL     1      47.795   5.443  15.130  0.00  0.00    +0.000 N 
ATOM      9  C   UNL     1      47.152   4.269  14.585  0.00  0.00    +0.000 C 
ATOM     10  C   UNL     1      46.036   4.461  13.546  0.00  0.00    +0.000 C 
ENDROOT
BRANCH   7  11
ATOM     11  C   UNL     1      47.906   4.789  17.576  0.00  0.00    +0.000 C 
ATOM     12  N   UNL     1      46.817   5.125  18.331  0.00  0.00    +0.000 N 
ATOM     13  O   UNL     1      48.553   3.803  17.916  0.00  0.00    +0.000 OA
ATOM     14  H   UNL     1      46.202   5.892  18.119  0.00  0.00    +0.000 HD
ATOM     15  H   UNL     1      46.597   4.520  19.109  0.00  0.00    +0.000 HD
ENDBRANCH   7  11
BRANCH   1  16
ATOM     16  C   UNL     1      44.556   5.745  12.099  0.00  0.00    +0.000 C 
BRANCH  16  17
ATOM     17  C   UNL     1      44.384   4.422  11.329  0.00  0.00    +0.000 C 
BRANCH  17  18
ATOM     18  C   UNL     1      44.099   4.604   9.837  0.00  0.00    +0.000 C 
BRANCH  18  19
ATOM     19  N   UNL     1      45.235   5.193   9.134  0.00  0.00    +0.000 NA
ATOM     20  H   UNL     1      46.080   5.061   9.691  0.00  0.00    +0.000 HD
ATOM     21  H   UNL     1      45.108   6.202   9.058  0.00  0.00    +0.000 HD
ENDBRANCH  18  19
ENDBRANCH  17  18
ENDBRANCH  16  17
ENDBRANCH   1  16
TORSDOF 5
ENDMDL
MODEL 8
REMARK VINA RESULT:    -4.814      3.044      4.309
REMARK INTER + INTRA:          -6.336
REMARK INTER:                  -6.197
REMARK INTRA:                  -0.140
REMARK UNBOUND:                -0.256
REMARK  Name = 
REMARK  5 active torsions:
REMARK  status: ('A' for Active; 'I' for Inactive)
REMARK    1  A    between atoms: N_1  and  C_2
REMARK    2  A    between atoms: C_2  and  C_3
REMARK    3  A    between atoms: C_3  and  C_4
REMARK    4  A    between atoms: C_4  and  N_5
REMARK    5  A    between atoms: C_11  and  C_12
REMARK                            x       y       z     vdW  Elec       q    Type
REMARK                         _______ _______ _______ _____ _____    ______ ____
ROOT
ATOM      1  N   UNL     1      45.757   5.729  11.443  0.00  0.00    +0.000 NA
ATOM      2  C   UNL     1      45.836   4.763  12.560  0.00  0.00    +0.000 C 
ATOM      3  C   UNL     1      46.594   5.134  13.849  0.00  0.00    +0.000 C 
ATOM      4  C   UNL     1      47.533   6.290  13.781  0.00  0.00    +0.000 A 
ATOM      5  N   UNL     1      48.744   6.306  14.296  0.00  0.00    +0.000 NA
ATOM      6  C   UNL     1      49.170   7.599  14.192  0.00  0.00    +0.000 A 
ATOM      7  C   UNL     1      48.225   8.414  13.592  0.00  0.00    +0.000 A 
ATOM      8  N   UNL     1      47.177   7.543  13.331  0.00  0.00    +0.000 N 
ATOM      9  C   UNL     1      45.844   7.896  12.897  0.00  0.00    +0.000 C 
ATOM     10  C   UNL     1      45.154   7.005  11.853  0.00  0.00    +0.000 C 
ENDROOT
BRANCH   7  11
ATOM     11  C   UNL     1      48.261   9.834  13.332  0.00  0.00    +0.000 C 
ATOM     12  N   UNL     1      48.422  10.649  14.418  0.00  0.00    +0.000 N 
ATOM     13  O   UNL     1      48.158  10.366  12.230  0.00  0.00    +0.000 OA
ATOM     14  H   UNL     1      48.550  10.314  15.357  0.00  0.00    +0.000 HD
ATOM     15  H   UNL     1      48.474  11.642  14.239  0.00  0.00    +0.000 HD
ENDBRANCH   7  11
BRANCH   1  16
ATOM     16  C   UNL     1      44.972   5.108  10.335  0.00  0.00    +0.000 C 
BRANCH  16  17
ATOM     17  C   UNL     1      43.718   4.340  10.796  0.00  0.00    +0.000 C 
BRANCH  17  18
ATOM     18  C   UNL     1      43.832   2.822  10.654  0.00  0.00    +0.000 C 
BRANCH  18  19
ATOM     19  N   UNL     1      43.065   2.121  11.679  0.00  0.00    +0.000 NA
ATOM     20  H   UNL     1      43.549   1.259  11.932  0.00  0.00    +0.000 HD
ATOM     21  H   UNL     1      42.164   1.831  11.297  0.00  0.00    +0.000 HD
ENDBRANCH  18  19
ENDBRANCH  17  18
ENDBRANCH  16  17
ENDBRANCH   1  16
TORSDOF 5
ENDMDL
MODEL 9
REMARK VINA RESULT:    -4.642      3.499      5.771
REMARK INTER + INTRA:          -6.119
REMARK INTER:                  -5.807
REMARK INTRA:                  -0.312
REMARK UNBOUND:                -0.256
REMARK  Name = 
REMARK  5 active torsions:
REMARK  status: ('A' for Active; 'I' for Inactive)
REMARK    1  A    between atoms: N_1  and  C_2
REMARK    2  A    between atoms: C_2  and  C_3
REMARK    3  A    between atoms: C_3  and  C_4
REMARK    4  A    between atoms: C_4  and  N_5
REMARK    5  A    between atoms: C_11  and  C_12
REMARK                            x       y       z     vdW  Elec       q    Type
REMARK                         _______ _______ _______ _____ _____    ______ ____
ROOT
ATOM      1  N   UNL     1      47.706   6.914  12.288  0.00  0.00    +0.000 NA
ATOM      2  C   UNL     1      46.849   8.002  12.804  0.00  0.00    +0.000 C 
ATOM      3  C   UNL     1      45.323   7.812  12.883  0.00  0.00    +0.000 C 
ATOM      4  C   UNL     1      44.732   6.695  12.090  0.00  0.00    +0.000 A 
ATOM      5  N   UNL     1      43.642   6.787  11.357  0.00  0.00    +0.000 NA
ATOM      6  C   UNL     1      43.345   5.510  10.979  0.00  0.00    +0.000 A 
ATOM      7  C   UNL     1      44.262   4.594  11.466  0.00  0.00    +0.000 A 
ATOM      8  N   UNL     1      45.152   5.386  12.177  0.00  0.00    +0.000 N 
ATOM      9  C   UNL     1      46.196   4.931  13.067  0.00  0.00    +0.000 C 
ATOM     10  C   UNL     1      47.544   5.669  13.051  0.00  0.00    +0.000 C 
ENDROOT
BRANCH   7  11
ATOM     11  C   UNL     1      44.292   3.156  11.332  0.00  0.00    +0.000 C 
ATOM     12  N   UNL     1      43.803   2.436  12.387  0.00  0.00    +0.000 N 
ATOM     13  O   UNL     1      44.716   2.533  10.364  0.00  0.00    +0.000 OA
ATOM     14  H   UNL     1      43.401   2.849  13.211  0.00  0.00    +0.000 HD
ATOM     15  H   UNL     1      43.798   1.431  12.289  0.00  0.00    +0.000 HD
ENDBRANCH   7  11
BRANCH   1  16
ATOM     16  C   UNL     1      49.127   7.372  12.324  0.00  0.00    +0.000 C 
BRANCH  16  17
ATOM     17  C   UNL     1      49.303   8.880  12.584  0.00  0.00    +0.000 C 
BRANCH  17  18
ATOM     18  C   UNL     1      49.798   9.666  11.369  0.00  0.00    +0.000 C 
BRANCH  18  19
ATOM     19  N   UNL     1      48.823  10.661  10.932  0.00  0.00    +0.000 NA
ATOM     20  H   UNL     1      47.887  10.257  10.972  0.00  0.00    +0.000 HD
ATOM     21  H   UNL     1      48.983  10.893   9.951  0.00  0.00    +0.000 HD
ENDBRANCH  18  19
ENDBRANCH  17  18
ENDBRANCH  16  17
ENDBRANCH   1  16
TORSDOF 5
ENDMDL
