MODEL 1
REMARK VINA RESULT:    -8.036      0.000      0.000
REMARK INTER + INTRA:         -10.492
REMARK INTER:                  -9.915
REMARK INTRA:                  -0.577
REMARK UNBOUND:                -0.577
REMARK  Name = 
REMARK  4 active torsions:
REMARK  status: ('A' for Active; 'I' for Inactive)
REMARK    1  A    between atoms: C_2  and  C_4
REMARK    2  A    between atoms: C_7  and  O_8
REMARK    3  A    between atoms: O_8  and  C_9
REMARK    4  A    between atoms: C_9  and  C_10
REMARK                            x       y       z     vdW  Elec       q    Type
REMARK                         _______ _______ _______ _____ _____    ______ ____
ROOT
ATOM      1  C   UNL     1      46.551   2.749   7.556  0.00  0.00    +0.000 A 
ATOM      2  C   UNL     1      46.195   4.093   7.743  0.00  0.00    +0.000 A 
ATOM      3  C   UNL     1      45.269   4.444   8.732  0.00  0.00    +0.000 A 
ATOM      4  C   UNL     1      44.674   3.452   9.506  0.00  0.00    +0.000 A 
ATOM      5  C   UNL     1      45.061   2.119   9.356  0.00  0.00    +0.000 A 
ATOM      6  C   UNL     1      45.989   1.766   8.376  0.00  0.00    +0.000 A 
ENDROOT
BRANCH   1   8
ATOM      7  N   UNL     1      47.442   3.019   5.299  0.00  0.00    +0.000 N 
ATOM      8  C   UNL     1      47.473   2.316   6.472  0.00  0.00    +0.000 C 
ATOM      9  O   UNL     1      48.246   1.381   6.620  0.00  0.00    +0.000 OA
ATOM     10  H   UNL     1      48.126   2.761   4.602  0.00  0.00    +0.000 HD
ATOM     11  H   UNL     1      47.006   3.928   5.219  0.00  0.00    +0.000 HD
ENDBRANCH   1   8
BRANCH   4  12
ATOM     12  O   UNL     1      43.692   3.682  10.431  0.00  0.00    +0.000 OA
BRANCH  12  13
ATOM     13  C   UNL     1      43.836   4.835  11.309  0.00  0.00    +0.000 C 
ATOM     14  C   UNL     1      42.523   5.174  12.013  0.00  0.00    +0.000 C 
ATOM     15  C   UNL     1      43.086   6.125  11.014  0.00  0.00    +0.000 C 
BRANCH  13  16
ATOM     16  C   UNL     1      45.101   4.868  12.160  0.00  0.00    +0.000 A 
ATOM     17  C   UNL     1      45.937   5.991  12.125  0.00  0.00    +0.000 A 
ATOM     18  C   UNL     1      47.116   6.008  12.867  0.00  0.00    +0.000 A 
ATOM     19  C   UNL     1      47.444   4.906  13.638  0.00  0.00    +0.000 A 
ATOM     20  C   UNL     1      46.572   3.832  13.638  0.00  0.00    +0.000 A 
ATOM     21  N   UNL     1      45.419   3.791  12.927  0.00  0.00    +0.000 NA
ENDBRANCH  13  16
ENDBRANCH  12  13
ENDBRANCH   4  12
TORSDOF 4
ENDMDL
MODEL 2
REMARK VINA RESULT:    -7.235      1.132      1.857
REMARK INTER + INTRA:          -9.504
REMARK INTER:                 -10.052
REMARK INTRA:                   0.548
REMARK UNBOUND:                -0.577
REMARK  Name = 
REMARK  4 active torsions:
REMARK  status: ('A' for Active; 'I' for Inactive)
REMARK    1  A    between atoms: C_2  and  C_4
REMARK    2  A    between atoms: C_7  and  O_8
REMARK    3  A    between atoms: O_8  and  C_9
REMARK    4  A    between atoms: C_9  and  C_10
REMARK                            x       y       z     vdW  Elec       q    Type
REMARK                         _______ _______ _______ _____ _____    ______ ____
ROOT
ATOM      1  C   UNL     1      46.398   2.419   7.838  0.00  0.00    +0.000 A 
ATOM      2  C   UNL     1      45.516   1.772   8.715  0.00  0.00    +0.000 A 
ATOM      3  C   UNL     1      44.573   2.513   9.437  0.00  0.00    +0.000 A 
ATOM      4  C   UNL     1      44.540   3.900   9.311  0.00  0.00    +0.000 A 
ATOM      5  C   UNL     1      45.384   4.542   8.403  0.00  0.00    +0.000 A 
ATOM      6  C   UNL     1      46.318   3.805   7.676  0.00  0.00    +0.000 A 
ENDROOT
BRANCH   1   8
ATOM      7  N   UNL     1      48.433   2.432   6.487  0.00  0.00    +0.000 N 
ATOM      8  C   UNL     1      47.466   1.687   7.103  0.00  0.00    +0.000 C 
ATOM      9  O   UNL     1      47.498   0.465   7.064  0.00  0.00    +0.000 OA
ATOM     10  H   UNL     1      49.190   1.920   6.059  0.00  0.00    +0.000 HD
ATOM     11  H   UNL     1      48.581   3.412   6.692  0.00  0.00    +0.000 HD
ENDBRANCH   1   8
BRANCH   4  12
ATOM     12  O   UNL     1      43.722   4.720  10.041  0.00  0.00    +0.000 OA
BRANCH  12  13
ATOM     13  C   UNL     1      43.938   4.796  11.479  0.00  0.00    +0.000 C 
ATOM     14  C   UNL     1      43.377   3.570  12.199  0.00  0.00    +0.000 C 
ATOM     15  C   UNL     1      42.756   4.905  12.430  0.00  0.00    +0.000 C 
BRANCH  13  16
ATOM     16  C   UNL     1      45.316   5.280  11.919  0.00  0.00    +0.000 A 
ATOM     17  C   UNL     1      45.997   4.611  12.944  0.00  0.00    +0.000 A 
ATOM     18  C   UNL     1      47.236   5.075  13.379  0.00  0.00    +0.000 A 
ATOM     19  C   UNL     1      47.783   6.199  12.782  0.00  0.00    +0.000 A 
ATOM     20  C   UNL     1      47.066   6.808  11.768  0.00  0.00    +0.000 A 
ATOM     21  N   UNL     1      45.860   6.377  11.326  0.00  0.00    +0.000 NA
ENDBRANCH  13  16
ENDBRANCH  12  13
ENDBRANCH   4  12
TORSDOF 4
ENDMDL
MODEL 3
REMARK VINA RESULT:    -5.920      3.015      6.118
REMARK INTER + INTRA:          -7.882
REMARK INTER:                  -7.569
REMARK INTRA:                  -0.313
REMARK UNBOUND:                -0.577
REMARK  Name = 
REMARK  4 active torsions:
REMARK  status: ('A' for Active; 'I' for Inactive)
REMARK    1  A    between atoms: C_2  and  C_4
REMARK    2  A    between atoms: C_7  and  O_8
REMARK    3  A    between atoms: O_8  and  C_9
REMARK    4  A    between atoms: C_9  and  C_10
REMARK                            x       y       z     vdW  Elec       q    Type
REMARK                         _______ _______ _______ _____ _____    ______ ____
ROOT
ATOM      1  C   UNL     1      47.927   7.668  13.672  0.00  0.00    +0.000 A 
ATOM      2  C   UNL     1      46.819   8.526  13.613  0.00  0.00    +0.000 A 
ATOM      3  C   UNL     1      45.725   8.207  12.800  0.00  0.00    +0.000 A 
ATOM      4  C   UNL     1      45.757   7.054  12.019  0.00  0.00    +0.000 A 
ATOM      5  C   UNL     1      46.836   6.175  12.111  0.00  0.00    +0.000 A 
ATOM      6  C   UNL     1      47.924   6.485  12.927  0.00  0.00    +0.000 A 
ENDROOT
BRANCH   1   8
ATOM      7  N   UNL     1      50.317   7.397  14.095  0.00  0.00    +0.000 N 
ATOM      8  C   UNL     1      49.144   7.997  14.462  0.00  0.00    +0.000 C 
ATOM      9  O   UNL     1      49.111   8.789  15.394  0.00  0.00    +0.000 OA
ATOM     10  H   UNL     1      51.145   7.689  14.592  0.00  0.00    +0.000 HD
ATOM     11  H   UNL     1      50.438   6.937  13.202  0.00  0.00    +0.000 HD
ENDBRANCH   1   8
BRANCH   4  12
ATOM     12  O   UNL     1      44.782   6.705  11.124  0.00  0.00    +0.000 OA
BRANCH  12  13
ATOM     13  C   UNL     1      44.179   5.385  11.249  0.00  0.00    +0.000 C 
ATOM     14  C   UNL     1      42.681   5.476  11.537  0.00  0.00    +0.000 C 
ATOM     15  C   UNL     1      43.596   4.929  12.578  0.00  0.00    +0.000 C 
BRANCH  13  16
ATOM     16  C   UNL     1      44.620   4.353  10.216  0.00  0.00    +0.000 A 
ATOM     17  C   UNL     1      45.330   4.762   9.080  0.00  0.00    +0.000 A 
ATOM     18  C   UNL     1      45.696   3.829   8.113  0.00  0.00    +0.000 A 
ATOM     19  C   UNL     1      45.353   2.500   8.293  0.00  0.00    +0.000 A 
ATOM     20  C   UNL     1      44.661   2.158   9.441  0.00  0.00    +0.000 A 
ATOM     21  N   UNL     1      44.294   3.045  10.397  0.00  0.00    +0.000 NA
ENDBRANCH  13  16
ENDBRANCH  12  13
ENDBRANCH   4  12
TORSDOF 4
ENDMDL
MODEL 4
REMARK VINA RESULT:    -5.632      3.065      6.639
REMARK INTER + INTRA:          -7.527
REMARK INTER:                  -7.339
REMARK INTRA:                  -0.188
REMARK UNBOUND:                -0.577
REMARK  Name = 
REMARK  4 active torsions:
REMARK  status: ('A' for Active; 'I' for Inactive)
REMARK    1  A    between atoms: C_2  and  C_4
REMARK    2  A    between atoms: C_7  and  O_8
REMARK    3  A    between atoms: O_8  and  C_9
REMARK    4  A    between atoms: C_9  and  C_10
REMARK                            x       y       z     vdW  Elec       q    Type
REMARK                         _______ _______ _______ _____ _____    ______ ____
ROOT
ATOM      1  C   UNL     1      47.796   4.594  15.943  0.00  0.00    +0.000 A 
ATOM      2  C   UNL     1      48.259   5.862  15.566  0.00  0.00    +0.000 A 
ATOM      3  C   UNL     1      47.957   6.373  14.297  0.00  0.00    +0.000 A 
ATOM      4  C   UNL     1      47.227   5.602  13.397  0.00  0.00    +0.000 A 
ATOM      5  C   UNL     1      46.724   4.359  13.786  0.00  0.00    +0.000 A 
ATOM      6  C   UNL     1      47.016   3.851  15.052  0.00  0.00    +0.000 A 
ENDROOT
BRANCH   1   8
ATOM      7  N   UNL     1      47.238   3.129  17.815  0.00  0.00    +0.000 N 
ATOM      8  C   UNL     1      48.151   3.976  17.249  0.00  0.00    +0.000 C 
ATOM      9  O   UNL     1      49.223   4.194  17.793  0.00  0.00    +0.000 OA
ATOM     10  H   UNL     1      47.525   2.660  18.661  0.00  0.00    +0.000 HD
ATOM     11  H   UNL     1      46.462   2.738  17.297  0.00  0.00    +0.000 HD
ENDBRANCH   1   8
BRANCH   4  12
ATOM     12  O   UNL     1      46.961   5.971  12.106  0.00  0.00    +0.000 OA
BRANCH  12  13
ATOM     13  C   UNL     1      45.579   5.922  11.651  0.00  0.00    +0.000 C 
ATOM     14  C   UNL     1      45.018   7.321  11.402  0.00  0.00    +0.000 C 
ATOM     15  C   UNL     1      44.464   6.496  12.512  0.00  0.00    +0.000 C 
BRANCH  13  16
ATOM     16  C   UNL     1      45.262   4.857  10.605  0.00  0.00    +0.000 A 
ATOM     17  C   UNL     1      45.709   5.019   9.288  0.00  0.00    +0.000 A 
ATOM     18  C   UNL     1      45.385   4.072   8.319  0.00  0.00    +0.000 A 
ATOM     19  C   UNL     1      44.622   2.973   8.678  0.00  0.00    +0.000 A 
ATOM     20  C   UNL     1      44.220   2.866   9.998  0.00  0.00    +0.000 A 
ATOM     21  N   UNL     1      44.523   3.772  10.959  0.00  0.00    +0.000 NA
ENDBRANCH  13  16
ENDBRANCH  12  13
ENDBRANCH   4  12
TORSDOF 4
ENDMDL
MODEL 5
REMARK VINA RESULT:    -5.441      3.260      5.353
REMARK INTER + INTRA:          -7.290
REMARK INTER:                  -6.824
REMARK INTRA:                  -0.467
REMARK UNBOUND:                -0.577
REMARK  Name = 
REMARK  4 active torsions:
REMARK  status: ('A' for Active; 'I' for Inactive)
REMARK    1  A    between atoms: C_2  and  C_4
REMARK    2  A    between atoms: C_7  and  O_8
REMARK    3  A    between atoms: O_8  and  C_9
REMARK    4  A    between atoms: C_9  and  C_10
REMARK                            x       y       z     vdW  Elec       q    Type
REMARK                         _______ _______ _______ _____ _____    ______ ____
ROOT
ATOM      1  C   UNL     1      44.664   4.265  11.646  0.00  0.00    +0.000 A 
ATOM      2  C   UNL     1      45.393   4.233  12.843  0.00  0.00    +0.000 A 
ATOM      3  C   UNL     1      45.951   5.409  13.359  0.00  0.00    +0.000 A 
ATOM      4  C   UNL     1      45.812   6.605  12.660  0.00  0.00    +0.000 A 
ATOM      5  C   UNL     1      45.046   6.650  11.493  0.00  0.00    +0.000 A 
ATOM      6  C   UNL     1      44.482   5.481  10.981  0.00  0.00    +0.000 A 
ENDROOT
BRANCH   1   8
ATOM      7  N   UNL     1      44.868   2.429  10.050  0.00  0.00    +0.000 N 
ATOM      8  C   UNL     1      44.115   3.033  11.018  0.00  0.00    +0.000 C 
ATOM      9  O   UNL     1      43.042   2.559  11.363  0.00  0.00    +0.000 OA
ATOM     10  H   UNL     1      44.518   1.554   9.689  0.00  0.00    +0.000 HD
ATOM     11  H   UNL     1      45.847   2.640   9.908  0.00  0.00    +0.000 HD
ENDBRANCH   1   8
BRANCH   4  12
ATOM     12  O   UNL     1      46.397   7.786  13.030  0.00  0.00    +0.000 OA
BRANCH  12  13
ATOM     13  C   UNL     1      47.849   7.829  13.128  0.00  0.00    +0.000 C 
ATOM     14  C   UNL     1      48.444   8.892  12.205  0.00  0.00    +0.000 C 
ATOM     15  C   UNL     1      48.712   7.451  11.934  0.00  0.00    +0.000 C 
BRANCH  13  16
ATOM     16  C   UNL     1      48.422   7.744  14.539  0.00  0.00    +0.000 A 
ATOM     17  C   UNL     1      48.194   8.785  15.448  0.00  0.00    +0.000 A 
ATOM     18  C   UNL     1      48.752   8.734  16.723  0.00  0.00    +0.000 A 
ATOM     19  C   UNL     1      49.526   7.641  17.077  0.00  0.00    +0.000 A 
ATOM     20  C   UNL     1      49.705   6.642  16.138  0.00  0.00    +0.000 A 
ATOM     21  N   UNL     1      49.173   6.667  14.892  0.00  0.00    +0.000 NA
ENDBRANCH  13  16
ENDBRANCH  12  13
ENDBRANCH   4  12
TORSDOF 4
ENDMDL
MODEL 6
REMARK VINA RESULT:    -5.294      4.024      6.369
REMARK INTER + INTRA:          -7.110
REMARK INTER:                  -6.636
REMARK INTRA:                  -0.474
REMARK UNBOUND:                -0.577
REMARK  Name = 
REMARK  4 active torsions:
REMARK  status: ('A' for Active; 'I' for Inactive)
REMARK    1  A    between atoms: C_2  and  C_4
REMARK    2  A    between atoms: C_7  and  O_8
REMARK    3  A    between atoms: O_8  and  C_9
REMARK    4  A    between atoms: C_9  and  C_10
REMARK                            x       y       z     vdW  Elec       q    Type
REMARK                         _______ _______ _______ _____ _____    ______ ____
ROOT
ATOM      1  C   UNL     1      44.627   5.400  12.059  0.00  0.00    +0.000 A 
ATOM      2  C   UNL     1      45.159   4.845  13.232  0.00  0.00    +0.000 A 
ATOM      3  C   UNL     1      46.486   5.107  13.594  0.00  0.00    +0.000 A 
ATOM      4  C   UNL     1      47.287   5.890  12.767  0.00  0.00    +0.000 A 
ATOM      5  C   UNL     1      46.747   6.483  11.625  0.00  0.00    +0.000 A 
ATOM      6  C   UNL     1      45.423   6.231  11.265  0.00  0.00    +0.000 A 
ENDROOT
BRANCH   1   8
ATOM      7  N   UNL     1      42.317   6.092  11.673  0.00  0.00    +0.000 N 
ATOM      8  C   UNL     1      43.248   5.093  11.592  0.00  0.00    +0.000 C 
ATOM      9  O   UNL     1      42.953   4.000  11.132  0.00  0.00    +0.000 OA
ATOM     10  H   UNL     1      41.408   5.892  11.282  0.00  0.00    +0.000 HD
ATOM     11  H   UNL     1      42.568   7.062  11.814  0.00  0.00    +0.000 HD
ENDBRANCH   1   8
BRANCH   4  12
ATOM     12  O   UNL     1      48.618   6.126  12.984  0.00  0.00    +0.000 OA
BRANCH  12  13
ATOM     13  C   UNL     1      48.999   7.403  13.572  0.00  0.00    +0.000 C 
ATOM     14  C   UNL     1      49.696   7.216  14.919  0.00  0.00    +0.000 C 
ATOM     15  C   UNL     1      48.360   7.875  14.868  0.00  0.00    +0.000 C 
BRANCH  13  16
ATOM     16  C   UNL     1      49.616   8.417  12.613  0.00  0.00    +0.000 A 
ATOM     17  C   UNL     1      48.881   9.543  12.222  0.00  0.00    +0.000 A 
ATOM     18  C   UNL     1      49.423  10.450  11.314  0.00  0.00    +0.000 A 
ATOM     19  C   UNL     1      50.693  10.223  10.810  0.00  0.00    +0.000 A 
ATOM     20  C   UNL     1      51.371   9.098  11.244  0.00  0.00    +0.000 A 
ATOM     21  N   UNL     1      50.867   8.202  12.127  0.00  0.00    +0.000 NA
ENDBRANCH  13  16
ENDBRANCH  12  13
ENDBRANCH   4  12
TORSDOF 4
ENDMDL
