MODEL 1
REMARK VINA RESULT:    -7.797      0.000      0.000
REMARK INTER + INTRA:         -13.139
REMARK INTER:                 -11.671
REMARK INTRA:                  -1.468
REMARK UNBOUND:                -1.468
REMARK  Name = 
REMARK  9 active torsions:
REMARK  status: ('A' for Active; 'I' for Inactive)
REMARK    1  A    between atoms: C_2  and  C_22
REMARK    2  A    between atoms: N_3  and  C_4
REMARK    3  A    between atoms: C_4  and  C_5
REMARK    4  A    between atoms: C_8  and  C_9
REMARK    5  A    between atoms: C_9  and  N_10
REMARK    6  A    between atoms: N_10  and  CA_11
REMARK    7  A    between atoms: CA_11  and  C_12
REMARK    8  A    between atoms: CA_11  and  C_14
REMARK    9  A    between atoms: C_12  and  O_13
REMARK                            x       y       z     vdW  Elec       q    Type
REMARK                         _______ _______ _______ _____ _____    ______ ____
ROOT
ATOM      1  C   UNL     1      46.901   7.791  12.916  0.00  0.00    +0.000 A 
ATOM      2  N   UNL     1      45.606   7.484  13.214  0.00  0.00    +0.000 NA
ATOM      3  C   UNL     1      44.912   6.743  12.325  0.00  0.00    +0.000 A 
ATOM      4  C   UNL     1      45.437   6.258  11.134  0.00  0.00    +0.000 A 
ATOM      5  C   UNL     1      46.777   6.547  10.860  0.00  0.00    +0.000 A 
ATOM      6  C   UNL     1      47.523   7.316  11.758  0.00  0.00    +0.000 A 
ATOM      7 CL   UNL     1      49.169   7.648  11.371  0.00  0.00    +0.000 Cl
ENDROOT
BRANCH   1   8
ATOM      8  C   UNL     1      47.622   8.619  13.953  0.00  0.00    +0.000 C 
BRANCH   8  11
ATOM      9  O   UNL     1      50.103   7.410  14.476  0.00  0.00    +0.000 OA
ATOM     10  C   UNL     1      49.170   7.212  15.248  0.00  0.00    +0.000 C 
ATOM     11  N   UNL     1      47.957   7.827  15.112  0.00  0.00    +0.000 N 
ATOM     12  H   UNL     1      47.184   7.544  15.701  0.00  0.00    +0.000 HD
BRANCH  10  13
ATOM     13  C   UNL     1      49.301   6.334  16.415  0.00  0.00    +0.000 A 
ATOM     14  C   UNL     1      50.235   6.609  17.401  0.00  0.00    +0.000 A 
ATOM     15  S   UNL     1      50.186   5.505  18.703  0.00  0.00    +0.000 S 
ATOM     16  C   UNL     1      48.952   4.595  17.964  0.00  0.00    +0.000 A 
ATOM     17  N   UNL     1      48.436   3.488  18.565  0.00  0.00    +0.000 NA
ATOM     18  C   UNL     1      47.532   2.876  17.870  0.00  0.00    +0.000 A 
ATOM     19  N   UNL     1      47.098   3.271  16.632  0.00  0.00    +0.000 N 
ATOM     20  C   UNL     1      47.563   4.401  16.003  0.00  0.00    +0.000 A 
ATOM     21  O   UNL     1      47.107   4.757  14.921  0.00  0.00    +0.000 OA
ATOM     22  C   UNL     1      48.583   5.123  16.740  0.00  0.00    +0.000 A 
ATOM     23  H   UNL     1      46.382   2.753  16.144  0.00  0.00    +0.000 HD
ENDBRANCH  10  13
ENDBRANCH   8  11
ENDBRANCH   1   8
BRANCH   4  24
ATOM     24  C   UNL     1      44.550   5.558  10.145  0.00  0.00    +0.000 C 
BRANCH  24  25
ATOM     25  N   UNL     1      45.251   5.119   8.936  0.00  0.00    +0.000 NA
ATOM     26  H   UNL     1      46.259   5.167   9.100  0.00  0.00    +0.000 HD
BRANCH  25  27
ATOM     27  CA  UNL     1      44.898   3.707   8.588  0.00  0.00    +0.000 C 
BRANCH  27  28
ATOM     28  C   UNL     1      46.144   2.940   8.060  0.00  0.00    +0.000 C 
ATOM     29  C   UNL     1      46.471   3.108   6.585  0.00  0.00    +0.000 C 
ATOM     30  C   UNL     1      47.561   2.063   6.404  0.00  0.00    +0.000 C 
ATOM     31  C   UNL     1      47.162   0.938   7.355  0.00  0.00    +0.000 C 
ATOM     32  N   UNL     1      46.097   1.477   8.211  0.00  0.00    +0.000 NA
ATOM     33  H   UNL     1      46.245   1.221   9.187  0.00  0.00    +0.000 HD
ENDBRANCH  27  28
BRANCH  27  34
ATOM     34  C   UNL     1      44.198   3.043   9.804  0.00  0.00    +0.000 C 
BRANCH  34  35
ATOM     35  O   UNL     1      45.103   2.469  10.738  0.00  0.00    +0.000 OA
ATOM     36  H   UNL     1      45.609   3.215  11.119  0.00  0.00    +0.000 HD
ENDBRANCH  34  35
ENDBRANCH  27  34
ENDBRANCH  25  27
ENDBRANCH  24  25
ENDBRANCH   4  24
TORSDOF 9
ENDMDL
MODEL 2
REMARK VINA RESULT:    -7.394      1.941      2.404
REMARK INTER + INTRA:         -12.535
REMARK INTER:                 -11.106
REMARK INTRA:                  -1.429
REMARK UNBOUND:                -1.468
REMARK  Name = 
REMARK  9 active torsions:
REMARK  status: ('A' for Active; 'I' for Inactive)
REMARK    1  A    between atoms: C_2  and  C_22
REMARK    2  A    between atoms: N_3  and  C_4
REMARK    3  A    between atoms: C_4  and  C_5
REMARK    4  A    between atoms: C_8  and  C_9
REMARK    5  A    between atoms: C_9  and  N_10
REMARK    6  A    between atoms: N_10  and  CA_11
REMARK    7  A    between atoms: CA_11  and  C_12
REMARK    8  A    between atoms: CA_11  and  C_14
REMARK    9  A    between atoms: C_12  and  O_13
REMARK                            x       y       z     vdW  Elec       q    Type
REMARK                         _______ _______ _______ _____ _____    ______ ____
ROOT
ATOM      1  C   UNL     1      47.951   6.782  13.629  0.00  0.00    +0.000 A 
ATOM      2  N   UNL     1      47.587   5.513  13.971  0.00  0.00    +0.000 NA
ATOM      3  C   UNL     1      46.361   5.086  13.600  0.00  0.00    +0.000 A 
ATOM      4  C   UNL     1      45.453   5.850  12.878  0.00  0.00    +0.000 A 
ATOM      5  C   UNL     1      45.855   7.134  12.500  0.00  0.00    +0.000 A 
ATOM      6  C   UNL     1      47.117   7.609  12.871  0.00  0.00    +0.000 A 
ATOM      7 CL   UNL     1      47.561   9.201  12.384  0.00  0.00    +0.000 Cl
ENDROOT
BRANCH   1   8
ATOM      8  C   UNL     1      49.335   7.197  14.070  0.00  0.00    +0.000 C 
BRANCH   8  11
ATOM      9  O   UNL     1      48.398   8.779  16.194  0.00  0.00    +0.000 OA
ATOM     10  C   UNL     1      49.105   7.807  16.443  0.00  0.00    +0.000 C 
ATOM     11  N   UNL     1      49.533   6.940  15.476  0.00  0.00    +0.000 N 
ATOM     12  H   UNL     1      50.208   6.223  15.711  0.00  0.00    +0.000 HD
BRANCH  10  13
ATOM     13  C   UNL     1      49.505   7.467  17.812  0.00  0.00    +0.000 A 
ATOM     14  C   UNL     1      50.395   8.273  18.504  0.00  0.00    +0.000 A 
ATOM     15  S   UNL     1      50.684   7.742  20.101  0.00  0.00    +0.000 S 
ATOM     16  C   UNL     1      49.670   6.389  19.899  0.00  0.00    +0.000 A 
ATOM     17  N   UNL     1      49.470   5.500  20.910  0.00  0.00    +0.000 NA
ATOM     18  C   UNL     1      48.706   4.503  20.600  0.00  0.00    +0.000 A 
ATOM     19  N   UNL     1      48.125   4.315  19.374  0.00  0.00    +0.000 N 
ATOM     20  C   UNL     1      48.268   5.204  18.336  0.00  0.00    +0.000 A 
ATOM     21  O   UNL     1      47.684   5.034  17.271  0.00  0.00    +0.000 OA
ATOM     22  C   UNL     1      49.120   6.341  18.631  0.00  0.00    +0.000 A 
ATOM     23  H   UNL     1      47.531   3.518  19.198  0.00  0.00    +0.000 HD
ENDBRANCH  10  13
ENDBRANCH   8  11
ENDBRANCH   1   8
BRANCH   4  24
ATOM     24  C   UNL     1      44.064   5.339  12.629  0.00  0.00    +0.000 C 
BRANCH  24  25
ATOM     25  N   UNL     1      43.717   5.251  11.209  0.00  0.00    +0.000 NA
ATOM     26  H   UNL     1      44.450   5.703  10.659  0.00  0.00    +0.000 HD
BRANCH  25  27
ATOM     27  CA  UNL     1      43.607   3.826  10.765  0.00  0.00    +0.000 C 
BRANCH  27  28
ATOM     28  C   UNL     1      44.795   3.443   9.836  0.00  0.00    +0.000 C 
ATOM     29  C   UNL     1      44.782   4.037   8.437  0.00  0.00    +0.000 C 
ATOM     30  C   UNL     1      45.923   3.275   7.782  0.00  0.00    +0.000 C 
ATOM     31  C   UNL     1      45.866   1.892   8.427  0.00  0.00    +0.000 C 
ATOM     32  N   UNL     1      44.950   2.004   9.569  0.00  0.00    +0.000 NA
ATOM     33  H   UNL     1      45.329   1.534  10.392  0.00  0.00    +0.000 HD
ENDBRANCH  27  28
BRANCH  27  34
ATOM     34  C   UNL     1      43.443   2.916  12.012  0.00  0.00    +0.000 C 
BRANCH  34  35
ATOM     35  O   UNL     1      42.990   1.604  11.704  0.00  0.00    +0.000 OA
ATOM     36  H   UNL     1      42.698   1.211  12.551  0.00  0.00    +0.000 HD
ENDBRANCH  34  35
ENDBRANCH  27  34
ENDBRANCH  25  27
ENDBRANCH  24  25
ENDBRANCH   4  24
TORSDOF 9
ENDMDL
MODEL 3
REMARK VINA RESULT:    -7.334      3.364      4.074
REMARK INTER + INTRA:         -12.447
REMARK INTER:                 -11.107
REMARK INTRA:                  -1.340
REMARK UNBOUND:                -1.468
REMARK  Name = 
REMARK  9 active torsions:
REMARK  status: ('A' for Active; 'I' for Inactive)
REMARK    1  A    between atoms: C_2  and  C_22
REMARK    2  A    between atoms: N_3  and  C_4
REMARK    3  A    between atoms: C_4  and  C_5
REMARK    4  A    between atoms: C_8  and  C_9
REMARK    5  A    between atoms: C_9  and  N_10
REMARK    6  A    between atoms: N_10  and  CA_11
REMARK    7  A    between atoms: CA_11  and  C_12
REMARK    8  A    between atoms: CA_11  and  C_14
REMARK    9  A    between atoms: C_12  and  O_13
REMARK                            x       y       z     vdW  Elec       q    Type
REMARK                         _______ _______ _______ _____ _____    ______ ____
ROOT
ATOM      1  C   UNL     1      48.070   5.863  15.653  0.00  0.00    +0.000 A 
ATOM      2  N   UNL     1      48.143   6.816  14.680  0.00  0.00    +0.000 NA
ATOM      3  C   UNL     1      47.498   6.583  13.517  0.00  0.00    +0.000 A 
ATOM      4  C   UNL     1      46.752   5.441  13.254  0.00  0.00    +0.000 A 
ATOM      5  C   UNL     1      46.654   4.491  14.274  0.00  0.00    +0.000 A 
ATOM      6  C   UNL     1      47.313   4.700  15.489  0.00  0.00    +0.000 A 
ATOM      7 CL   UNL     1      47.163   3.495  16.712  0.00  0.00    +0.000 Cl
ENDROOT
BRANCH   1   8
ATOM      8  C   UNL     1      48.810   6.187  16.929  0.00  0.00    +0.000 C 
BRANCH   8  11
ATOM      9  O   UNL     1      49.568   4.385  18.946  0.00  0.00    +0.000 OA
ATOM     10  C   UNL     1      50.375   4.667  18.066  0.00  0.00    +0.000 C 
ATOM     11  N   UNL     1      50.060   5.469  17.005  0.00  0.00    +0.000 N 
ATOM     12  H   UNL     1      50.788   5.768  16.370  0.00  0.00    +0.000 HD
BRANCH  10  13
ATOM     13  C   UNL     1      51.736   4.121  18.056  0.00  0.00    +0.000 A 
ATOM     14  C   UNL     1      52.822   4.933  18.340  0.00  0.00    +0.000 A 
ATOM     15  S   UNL     1      54.310   4.096  18.338  0.00  0.00    +0.000 S 
ATOM     16  C   UNL     1      53.555   2.633  17.905  0.00  0.00    +0.000 A 
ATOM     17  N   UNL     1      54.275   1.490  17.737  0.00  0.00    +0.000 NA
ATOM     18  C   UNL     1      53.574   0.466  17.372  0.00  0.00    +0.000 A 
ATOM     19  N   UNL     1      52.220   0.481  17.162  0.00  0.00    +0.000 N 
ATOM     20  C   UNL     1      51.447   1.600  17.355  0.00  0.00    +0.000 A 
ATOM     21  O   UNL     1      50.229   1.561  17.215  0.00  0.00    +0.000 OA
ATOM     22  C   UNL     1      52.188   2.780  17.762  0.00  0.00    +0.000 A 
ATOM     23  H   UNL     1      51.729  -0.357  16.884  0.00  0.00    +0.000 HD
ENDBRANCH  10  13
ENDBRANCH   8  11
ENDBRANCH   1   8
BRANCH   4  24
ATOM     24  C   UNL     1      46.184   5.208  11.884  0.00  0.00    +0.000 C 
BRANCH  24  25
ATOM     25  N   UNL     1      44.726   5.333  11.825  0.00  0.00    +0.000 NA
ATOM     26  H   UNL     1      44.484   6.174  11.297  0.00  0.00    +0.000 HD
BRANCH  25  27
ATOM     27  CA  UNL     1      44.109   4.155  11.139  0.00  0.00    +0.000 C 
BRANCH  27  28
ATOM     28  C   UNL     1      45.017   3.650   9.981  0.00  0.00    +0.000 C 
ATOM     29  C   UNL     1      44.655   4.118   8.581  0.00  0.00    +0.000 C 
ATOM     30  C   UNL     1      45.584   3.263   7.734  0.00  0.00    +0.000 C 
ATOM     31  C   UNL     1      45.679   1.945   8.500  0.00  0.00    +0.000 C 
ATOM     32  N   UNL     1      45.085   2.189   9.821  0.00  0.00    +0.000 NA
ATOM     33  H   UNL     1      45.655   1.782  10.562  0.00  0.00    +0.000 HD
ENDBRANCH  27  28
BRANCH  27  34
ATOM     34  C   UNL     1      43.755   3.077  12.199  0.00  0.00    +0.000 C 
BRANCH  34  35
ATOM     35  O   UNL     1      42.902   2.051  11.705  0.00  0.00    +0.000 OA
ATOM     36  H   UNL     1      43.478   1.278  11.537  0.00  0.00    +0.000 HD
ENDBRANCH  34  35
ENDBRANCH  27  34
ENDBRANCH  25  27
ENDBRANCH  24  25
ENDBRANCH   4  24
TORSDOF 9
ENDMDL
MODEL 4
REMARK VINA RESULT:    -7.255      2.551      3.139
REMARK INTER + INTRA:         -12.328
REMARK INTER:                 -11.282
REMARK INTRA:                  -1.046
REMARK UNBOUND:                -1.468
REMARK  Name = 
REMARK  9 active torsions:
REMARK  status: ('A' for Active; 'I' for Inactive)
REMARK    1  A    between atoms: C_2  and  C_22
REMARK    2  A    between atoms: N_3  and  C_4
REMARK    3  A    between atoms: C_4  and  C_5
REMARK    4  A    between atoms: C_8  and  C_9
REMARK    5  A    between atoms: C_9  and  N_10
REMARK    6  A    between atoms: N_10  and  CA_11
REMARK    7  A    between atoms: CA_11  and  C_12
REMARK    8  A    between atoms: CA_11  and  C_14
REMARK    9  A    between atoms: C_12  and  O_13
REMARK                            x       y       z     vdW  Elec       q    Type
REMARK                         _______ _______ _______ _____ _____    ______ ____
ROOT
ATOM      1  C   UNL     1      48.340   6.617  14.784  0.00  0.00    +0.000 A 
ATOM      2  N   UNL     1      47.928   5.369  15.147  0.00  0.00    +0.000 NA
ATOM      3  C   UNL     1      46.969   4.779  14.403  0.00  0.00    +0.000 A 
ATOM      4  C   UNL     1      46.386   5.355  13.282  0.00  0.00    +0.000 A 
ATOM      5  C   UNL     1      46.847   6.618  12.898  0.00  0.00    +0.000 A 
ATOM      6  C   UNL     1      47.837   7.258  13.650  0.00  0.00    +0.000 A 
ATOM      7 CL   UNL     1      48.365   8.816  13.137  0.00  0.00    +0.000 Cl
ENDROOT
BRANCH   1   8
ATOM      8  C   UNL     1      49.418   7.219  15.656  0.00  0.00    +0.000 C 
BRANCH   8  11
ATOM      9  O   UNL     1      49.641   6.443  18.346  0.00  0.00    +0.000 OA
ATOM     10  C   UNL     1      50.393   5.940  17.517  0.00  0.00    +0.000 C 
ATOM     11  N   UNL     1      50.295   6.199  16.179  0.00  0.00    +0.000 N 
ATOM     12  H   UNL     1      51.009   5.855  15.549  0.00  0.00    +0.000 HD
BRANCH  10  13
ATOM     13  C   UNL     1      51.429   4.973  17.894  0.00  0.00    +0.000 A 
ATOM     14  C   UNL     1      52.610   5.400  18.480  0.00  0.00    +0.000 A 
ATOM     15  S   UNL     1      53.657   4.118  18.900  0.00  0.00    +0.000 S 
ATOM     16  C   UNL     1      52.588   2.956  18.264  0.00  0.00    +0.000 A 
ATOM     17  N   UNL     1      52.884   1.628  18.304  0.00  0.00    +0.000 NA
ATOM     18  C   UNL     1      51.997   0.867  17.750  0.00  0.00    +0.000 A 
ATOM     19  N   UNL     1      50.843   1.312  17.161  0.00  0.00    +0.000 N 
ATOM     20  C   UNL     1      50.484   2.638  17.130  0.00  0.00    +0.000 A 
ATOM     21  O   UNL     1      49.414   2.994  16.647  0.00  0.00    +0.000 OA
ATOM     22  C   UNL     1      51.449   3.537  17.736  0.00  0.00    +0.000 A 
ATOM     23  H   UNL     1      50.185   0.664  16.751  0.00  0.00    +0.000 HD
ENDBRANCH  10  13
ENDBRANCH   8  11
ENDBRANCH   1   8
BRANCH   4  24
ATOM     24  C   UNL     1      45.232   4.681  12.598  0.00  0.00    +0.000 C 
BRANCH  24  25
ATOM     25  N   UNL     1      45.002   5.155  11.231  0.00  0.00    +0.000 NA
ATOM     26  H   UNL     1      45.903   5.271  10.763  0.00  0.00    +0.000 HD
BRANCH  25  27
ATOM     27  CA  UNL     1      44.188   4.175  10.447  0.00  0.00    +0.000 C 
BRANCH  27  28
ATOM     28  C   UNL     1      44.794   3.959   9.031  0.00  0.00    +0.000 C 
ATOM     29  C   UNL     1      45.454   2.615   8.771  0.00  0.00    +0.000 C 
ATOM     30  C   UNL     1      46.106   2.863   7.420  0.00  0.00    +0.000 C 
ATOM     31  C   UNL     1      46.511   4.334   7.466  0.00  0.00    +0.000 C 
ATOM     32  N   UNL     1      45.846   4.912   8.641  0.00  0.00    +0.000 NA
ATOM     33  H   UNL     1      45.434   5.819   8.422  0.00  0.00    +0.000 HD
ENDBRANCH  27  28
BRANCH  27  34
ATOM     34  C   UNL     1      44.015   2.876  11.280  0.00  0.00    +0.000 C 
BRANCH  34  35
ATOM     35  O   UNL     1      42.657   2.522  11.508  0.00  0.00    +0.000 OA
ATOM     36  H   UNL     1      42.464   2.773  12.435  0.00  0.00    +0.000 HD
ENDBRANCH  34  35
ENDBRANCH  27  34
ENDBRANCH  25  27
ENDBRANCH  24  25
ENDBRANCH   4  24
TORSDOF 9
ENDMDL
MODEL 5
REMARK VINA RESULT:    -6.813      2.099      2.539
REMARK INTER + INTRA:         -11.667
REMARK INTER:                 -10.660
REMARK INTRA:                  -1.006
REMARK UNBOUND:                -1.468
REMARK  Name = 
REMARK  9 active torsions:
REMARK  status: ('A' for Active; 'I' for Inactive)
REMARK    1  A    between atoms: C_2  and  C_22
REMARK    2  A    between atoms: N_3  and  C_4
REMARK    3  A    between atoms: C_4  and  C_5
REMARK    4  A    between atoms: C_8  and  C_9
REMARK    5  A    between atoms: C_9  and  N_10
REMARK    6  A    between atoms: N_10  and  CA_11
REMARK    7  A    between atoms: CA_11  and  C_12
REMARK    8  A    between atoms: CA_11  and  C_14
REMARK    9  A    between atoms: C_12  and  O_13
REMARK                            x       y       z     vdW  Elec       q    Type
REMARK                         _______ _______ _______ _____ _____    ______ ____
ROOT
ATOM      1  C   UNL     1      46.915   7.362  12.817  0.00  0.00    +0.000 A 
ATOM      2  N   UNL     1      46.976   6.009  12.651  0.00  0.00    +0.000 NA
ATOM      3  C   UNL     1      45.989   5.413  11.951  0.00  0.00    +0.000 A 
ATOM      4  C   UNL     1      44.922   6.090  11.374  0.00  0.00    +0.000 A 
ATOM      5  C   UNL     1      44.893   7.480  11.518  0.00  0.00    +0.000 A 
ATOM      6  C   UNL     1      45.899   8.128  12.240  0.00  0.00    +0.000 A 
ATOM      7 CL   UNL     1      45.813   9.843  12.392  0.00  0.00    +0.000 Cl
ENDROOT
BRANCH   1   8
ATOM      8  C   UNL     1      48.052   7.967  13.606  0.00  0.00    +0.000 C 
BRANCH   8  11
ATOM      9  O   UNL     1      50.311   7.657  15.247  0.00  0.00    +0.000 OA
ATOM     10  C   UNL     1      49.217   7.293  15.666  0.00  0.00    +0.000 C 
ATOM     11  N   UNL     1      48.058   7.483  14.966  0.00  0.00    +0.000 N 
ATOM     12  H   UNL     1      47.199   7.062  15.297  0.00  0.00    +0.000 HD
BRANCH  10  13
ATOM     13  C   UNL     1      49.058   6.667  16.982  0.00  0.00    +0.000 A 
ATOM     14  C   UNL     1      49.476   5.363  17.196  0.00  0.00    +0.000 A 
ATOM     15  S   UNL     1      49.262   4.841  18.808  0.00  0.00    +0.000 S 
ATOM     16  C   UNL     1      48.555   6.323  19.258  0.00  0.00    +0.000 A 
ATOM     17  N   UNL     1      48.135   6.547  20.533  0.00  0.00    +0.000 NA
ATOM     18  C   UNL     1      47.584   7.702  20.719  0.00  0.00    +0.000 A 
ATOM     19  N   UNL     1      47.416   8.653  19.747  0.00  0.00    +0.000 N 
ATOM     20  C   UNL     1      47.857   8.487  18.456  0.00  0.00    +0.000 A 
ATOM     21  O   UNL     1      47.743   9.385  17.627  0.00  0.00    +0.000 OA
ATOM     22  C   UNL     1      48.481   7.204  18.193  0.00  0.00    +0.000 A 
ATOM     23  H   UNL     1      46.984   9.541  19.959  0.00  0.00    +0.000 HD
ENDBRANCH  10  13
ENDBRANCH   8  11
ENDBRANCH   1   8
BRANCH   4  24
ATOM     24  C   UNL     1      43.801   5.327  10.730  0.00  0.00    +0.000 C 
BRANCH  24  25
ATOM     25  N   UNL     1      44.155   4.747   9.433  0.00  0.00    +0.000 NA
ATOM     26  H   UNL     1      45.085   5.076   9.163  0.00  0.00    +0.000 HD
BRANCH  25  27
ATOM     27  CA  UNL     1      44.188   3.253   9.498  0.00  0.00    +0.000 C 
BRANCH  27  28
ATOM     28  C   UNL     1      45.479   2.697   8.831  0.00  0.00    +0.000 C 
ATOM     29  C   UNL     1      45.756   3.148   7.406  0.00  0.00    +0.000 C 
ATOM     30  C   UNL     1      46.922   2.247   7.033  0.00  0.00    +0.000 C 
ATOM     31  C   UNL     1      46.639   0.943   7.774  0.00  0.00    +0.000 C 
ATOM     32  N   UNL     1      45.554   1.231   8.722  0.00  0.00    +0.000 NA
ATOM     33  H   UNL     1      45.746   0.822   9.636  0.00  0.00    +0.000 HD
ENDBRANCH  27  28
BRANCH  27  34
ATOM     34  C   UNL     1      43.976   2.803  10.969  0.00  0.00    +0.000 C 
BRANCH  34  35
ATOM     35  O   UNL     1      43.289   1.563  11.092  0.00  0.00    +0.000 OA
ATOM     36  H   UNL     1      43.121   1.440  12.048  0.00  0.00    +0.000 HD
ENDBRANCH  34  35
ENDBRANCH  27  34
ENDBRANCH  25  27
ENDBRANCH  24  25
ENDBRANCH   4  24
TORSDOF 9
ENDMDL
MODEL 6
REMARK VINA RESULT:    -6.796      3.281      8.115
REMARK INTER + INTRA:         -11.641
REMARK INTER:                 -10.380
REMARK INTRA:                  -1.261
REMARK UNBOUND:                -1.468
REMARK  Name = 
REMARK  9 active torsions:
REMARK  status: ('A' for Active; 'I' for Inactive)
REMARK    1  A    between atoms: C_2  and  C_22
REMARK    2  A    between atoms: N_3  and  C_4
REMARK    3  A    between atoms: C_4  and  C_5
REMARK    4  A    between atoms: C_8  and  C_9
REMARK    5  A    between atoms: C_9  and  N_10
REMARK    6  A    between atoms: N_10  and  CA_11
REMARK    7  A    between atoms: CA_11  and  C_12
REMARK    8  A    between atoms: CA_11  and  C_14
REMARK    9  A    between atoms: C_12  and  O_13
REMARK                            x       y       z     vdW  Elec       q    Type
REMARK                         _______ _______ _______ _____ _____    ______ ____
ROOT
ATOM      1  C   UNL     1      48.881   7.446  13.518  0.00  0.00    +0.000 A 
ATOM      2  N   UNL     1      48.040   6.659  14.248  0.00  0.00    +0.000 NA
ATOM      3  C   UNL     1      48.503   6.146  15.408  0.00  0.00    +0.000 A 
ATOM      4  C   UNL     1      49.775   6.382  15.913  0.00  0.00    +0.000 A 
ATOM      5  C   UNL     1      50.612   7.223  15.174  0.00  0.00    +0.000 A 
ATOM      6  C   UNL     1      50.164   7.768  13.966  0.00  0.00    +0.000 A 
ATOM      7 CL   UNL     1      51.237   8.794  13.091  0.00  0.00    +0.000 Cl
ENDROOT
BRANCH   1   8
ATOM      8  C   UNL     1      48.300   7.991  12.234  0.00  0.00    +0.000 C 
BRANCH   8  11
ATOM      9  O   UNL     1      45.513   7.870  11.905  0.00  0.00    +0.000 OA
ATOM     10  C   UNL     1      46.204   6.952  11.474  0.00  0.00    +0.000 C 
ATOM     11  N   UNL     1      47.570   6.973  11.518  0.00  0.00    +0.000 N 
ATOM     12  H   UNL     1      48.091   6.145  11.259  0.00  0.00    +0.000 HD
BRANCH  10  13
ATOM     13  C   UNL     1      45.615   5.777  10.824  0.00  0.00    +0.000 A 
ATOM     14  C   UNL     1      45.788   5.563   9.466  0.00  0.00    +0.000 A 
ATOM     15  S   UNL     1      45.080   4.110   8.916  0.00  0.00    +0.000 S 
ATOM     16  C   UNL     1      44.475   3.747  10.465  0.00  0.00    +0.000 A 
ATOM     17  N   UNL     1      43.758   2.614  10.695  0.00  0.00    +0.000 NA
ATOM     18  C   UNL     1      43.331   2.489  11.910  0.00  0.00    +0.000 A 
ATOM     19  N   UNL     1      43.556   3.393  12.914  0.00  0.00    +0.000 N 
ATOM     20  C   UNL     1      44.305   4.532  12.738  0.00  0.00    +0.000 A 
ATOM     21  O   UNL     1      44.537   5.289  13.676  0.00  0.00    +0.000 OA
ATOM     22  C   UNL     1      44.806   4.721  11.390  0.00  0.00    +0.000 A 
ATOM     23  H   UNL     1      43.201   3.234  13.846  0.00  0.00    +0.000 HD
ENDBRANCH  10  13
ENDBRANCH   8  11
ENDBRANCH   1   8
BRANCH   4  24
ATOM     24  C   UNL     1      50.247   5.660  17.142  0.00  0.00    +0.000 C 
BRANCH  24  25
ATOM     25  N   UNL     1      50.139   4.202  17.043  0.00  0.00    +0.000 NA
ATOM     26  H   UNL     1      51.035   3.784  17.300  0.00  0.00    +0.000 HD
BRANCH  25  27
ATOM     27  CA  UNL     1      49.090   3.673  17.969  0.00  0.00    +0.000 C 
BRANCH  27  28
ATOM     28  C   UNL     1      48.680   4.750  19.014  0.00  0.00    +0.000 C 
ATOM     29  C   UNL     1      48.687   4.320  20.472  0.00  0.00    +0.000 C 
ATOM     30  C   UNL     1      48.029   5.518  21.137  0.00  0.00    +0.000 C 
ATOM     31  C   UNL     1      47.016   6.008  20.105  0.00  0.00    +0.000 C 
ATOM     32  N   UNL     1      47.326   5.305  18.853  0.00  0.00    +0.000 NA
ATOM     33  H   UNL     1      47.302   5.943  18.057  0.00  0.00    +0.000 HD
ENDBRANCH  27  28
BRANCH  27  34
ATOM     34  C   UNL     1      47.912   3.104  17.132  0.00  0.00    +0.000 C 
BRANCH  34  35
ATOM     35  O   UNL     1      46.767   2.778  17.909  0.00  0.00    +0.000 OA
ATOM     36  H   UNL     1      46.170   2.278  17.316  0.00  0.00    +0.000 HD
ENDBRANCH  34  35
ENDBRANCH  27  34
ENDBRANCH  25  27
ENDBRANCH  24  25
ENDBRANCH   4  24
TORSDOF 9
ENDMDL
MODEL 7
REMARK VINA RESULT:    -6.658      3.309      7.730
REMARK INTER + INTRA:         -11.434
REMARK INTER:                 -10.129
REMARK INTRA:                  -1.305
REMARK UNBOUND:                -1.468
REMARK  Name = 
REMARK  9 active torsions:
REMARK  status: ('A' for Active; 'I' for Inactive)
REMARK    1  A    between atoms: C_2  and  C_22
REMARK    2  A    between atoms: N_3  and  C_4
REMARK    3  A    between atoms: C_4  and  C_5
REMARK    4  A    between atoms: C_8  and  C_9
REMARK    5  A    between atoms: C_9  and  N_10
REMARK    6  A    between atoms: N_10  and  CA_11
REMARK    7  A    between atoms: CA_11  and  C_12
REMARK    8  A    between atoms: CA_11  and  C_14
REMARK    9  A    between atoms: C_12  and  O_13
REMARK                            x       y       z     vdW  Elec       q    Type
REMARK                         _______ _______ _______ _____ _____    ______ ____
ROOT
ATOM      1  C   UNL     1      48.778   7.677  13.270  0.00  0.00    +0.000 A 
ATOM      2  N   UNL     1      47.935   6.955  14.062  0.00  0.00    +0.000 NA
ATOM      3  C   UNL     1      48.389   6.555  15.269  0.00  0.00    +0.000 A 
ATOM      4  C   UNL     1      49.654   6.847  15.762  0.00  0.00    +0.000 A 
ATOM      5  C   UNL     1      50.493   7.621  14.956  0.00  0.00    +0.000 A 
ATOM      6  C   UNL     1      50.055   8.048  13.699  0.00  0.00    +0.000 A 
ATOM      7 CL   UNL     1      51.130   8.996  12.742  0.00  0.00    +0.000 Cl
ENDROOT
BRANCH   1   8
ATOM      8  C   UNL     1      48.208   8.096  11.935  0.00  0.00    +0.000 C 
BRANCH   8  11
ATOM      9  O   UNL     1      45.424   7.930  11.597  0.00  0.00    +0.000 OA
ATOM     10  C   UNL     1      46.122   6.980  11.259  0.00  0.00    +0.000 C 
ATOM     11  N   UNL     1      47.488   7.011  11.312  0.00  0.00    +0.000 N 
ATOM     12  H   UNL     1      48.015   6.166  11.135  0.00  0.00    +0.000 HD
BRANCH  10  13
ATOM     13  C   UNL     1      45.544   5.746  10.717  0.00  0.00    +0.000 A 
ATOM     14  C   UNL     1      45.699   5.425   9.378  0.00  0.00    +0.000 A 
ATOM     15  S   UNL     1      45.008   3.920   8.960  0.00  0.00    +0.000 S 
ATOM     16  C   UNL     1      44.435   3.675  10.544  0.00  0.00    +0.000 A 
ATOM     17  N   UNL     1      43.742   2.552  10.878  0.00  0.00    +0.000 NA
ATOM     18  C   UNL     1      43.337   2.520  12.107  0.00  0.00    +0.000 A 
ATOM     19  N   UNL     1      43.563   3.507  13.029  0.00  0.00    +0.000 N 
ATOM     20  C   UNL     1      44.288   4.640  12.749  0.00  0.00    +0.000 A 
ATOM     21  O   UNL     1      44.521   5.474  13.618  0.00  0.00    +0.000 OA
ATOM     22  C   UNL     1      44.763   4.727  11.381  0.00  0.00    +0.000 A 
ATOM     23  H   UNL     1      43.226   3.418  13.977  0.00  0.00    +0.000 HD
ENDBRANCH  10  13
ENDBRANCH   8  11
ENDBRANCH   1   8
BRANCH   4  24
ATOM     24  C   UNL     1      50.119   6.245  17.057  0.00  0.00    +0.000 C 
BRANCH  24  25
ATOM     25  N   UNL     1      49.116   6.305  18.124  0.00  0.00    +0.000 NA
ATOM     26  H   UNL     1      48.294   6.806  17.780  0.00  0.00    +0.000 HD
BRANCH  25  27
ATOM     27  CA  UNL     1      48.690   4.934  18.543  0.00  0.00    +0.000 C 
BRANCH  27  28
ATOM     28  C   UNL     1      49.336   3.850  17.633  0.00  0.00    +0.000 C 
ATOM     29  C   UNL     1      48.396   2.815  17.036  0.00  0.00    +0.000 C 
ATOM     30  C   UNL     1      49.384   1.832  16.432  0.00  0.00    +0.000 C 
ATOM     31  C   UNL     1      50.575   1.864  17.387  0.00  0.00    +0.000 C 
ATOM     32  N   UNL     1      50.363   3.014  18.276  0.00  0.00    +0.000 NA
ATOM     33  H   UNL     1      51.223   3.548  18.398  0.00  0.00    +0.000 HD
ENDBRANCH  27  28
BRANCH  27  34
ATOM     34  C   UNL     1      48.971   4.755  20.060  0.00  0.00    +0.000 C 
BRANCH  34  35
ATOM     35  O   UNL     1      48.428   3.558  20.602  0.00  0.00    +0.000 OA
ATOM     36  H   UNL     1      49.179   3.079  21.007  0.00  0.00    +0.000 HD
ENDBRANCH  34  35
ENDBRANCH  27  34
ENDBRANCH  25  27
ENDBRANCH  24  25
ENDBRANCH   4  24
TORSDOF 9
ENDMDL
MODEL 8
REMARK VINA RESULT:    -6.629      2.937      8.224
REMARK INTER + INTRA:         -11.390
REMARK INTER:                 -10.237
REMARK INTRA:                  -1.153
REMARK UNBOUND:                -1.468
REMARK  Name = 
REMARK  9 active torsions:
REMARK  status: ('A' for Active; 'I' for Inactive)
REMARK    1  A    between atoms: C_2  and  C_22
REMARK    2  A    between atoms: N_3  and  C_4
REMARK    3  A    between atoms: C_4  and  C_5
REMARK    4  A    between atoms: C_8  and  C_9
REMARK    5  A    between atoms: C_9  and  N_10
REMARK    6  A    between atoms: N_10  and  CA_11
REMARK    7  A    between atoms: CA_11  and  C_12
REMARK    8  A    between atoms: CA_11  and  C_14
REMARK    9  A    between atoms: C_12  and  O_13
REMARK                            x       y       z     vdW  Elec       q    Type
REMARK                         _______ _______ _______ _____ _____    ______ ____
ROOT
ATOM      1  C   UNL     1      48.595   7.356  13.389  0.00  0.00    +0.000 A 
ATOM      2  N   UNL     1      47.942   6.633  14.343  0.00  0.00    +0.000 NA
ATOM      3  C   UNL     1      48.587   6.391  15.505  0.00  0.00    +0.000 A 
ATOM      4  C   UNL     1      49.866   6.846  15.796  0.00  0.00    +0.000 A 
ATOM      5  C   UNL     1      50.508   7.619  14.824  0.00  0.00    +0.000 A 
ATOM      6  C   UNL     1      49.869   7.885  13.609  0.00  0.00    +0.000 A 
ATOM      7 CL   UNL     1      50.707   8.838  12.444  0.00  0.00    +0.000 Cl
ENDROOT
BRANCH   1   8
ATOM      8  C   UNL     1      47.817   7.594  12.116  0.00  0.00    +0.000 C 
BRANCH   8  11
ATOM      9  O   UNL     1      45.022   7.488  11.868  0.00  0.00    +0.000 OA
ATOM     10  C   UNL     1      45.670   6.455  11.734  0.00  0.00    +0.000 C 
ATOM     11  N   UNL     1      47.037   6.434  11.757  0.00  0.00    +0.000 N 
ATOM     12  H   UNL     1      47.524   5.547  11.761  0.00  0.00    +0.000 HD
BRANCH  10  13
ATOM     13  C   UNL     1      45.028   5.160  11.485  0.00  0.00    +0.000 A 
ATOM     14  C   UNL     1      44.305   4.530  12.485  0.00  0.00    +0.000 A 
ATOM     15  S   UNL     1      43.585   3.067  11.978  0.00  0.00    +0.000 S 
ATOM     16  C   UNL     1      44.261   3.204  10.422  0.00  0.00    +0.000 A 
ATOM     17  N   UNL     1      44.032   2.260   9.468  0.00  0.00    +0.000 NA
ATOM     18  C   UNL     1      44.640   2.476   8.346  0.00  0.00    +0.000 A 
ATOM     19  N   UNL     1      45.455   3.549   8.093  0.00  0.00    +0.000 N 
ATOM     20  C   UNL     1      45.685   4.544   9.012  0.00  0.00    +0.000 A 
ATOM     21  O   UNL     1      46.372   5.521   8.729  0.00  0.00    +0.000 OA
ATOM     22  C   UNL     1      45.027   4.348  10.290  0.00  0.00    +0.000 A 
ATOM     23  H   UNL     1      45.895   3.664   7.192  0.00  0.00    +0.000 HD
ENDBRANCH  10  13
ENDBRANCH   8  11
ENDBRANCH   1   8
BRANCH   4  24
ATOM     24  C   UNL     1      50.553   6.413  17.059  0.00  0.00    +0.000 C 
BRANCH  24  25
ATOM     25  N   UNL     1      49.675   6.404  18.231  0.00  0.00    +0.000 NA
ATOM     26  H   UNL     1      48.829   6.936  18.017  0.00  0.00    +0.000 HD
BRANCH  25  27
ATOM     27  CA  UNL     1      49.273   5.010  18.597  0.00  0.00    +0.000 C 
BRANCH  27  28
ATOM     28  C   UNL     1      50.150   3.966  17.848  0.00  0.00    +0.000 C 
ATOM     29  C   UNL     1      49.444   2.715  17.354  0.00  0.00    +0.000 C 
ATOM     30  C   UNL     1      50.624   1.867  16.906  0.00  0.00    +0.000 C 
ATOM     31  C   UNL     1      51.736   2.228  17.887  0.00  0.00    +0.000 C 
ATOM     32  N   UNL     1      51.274   3.414  18.620  0.00  0.00    +0.000 NA
ATOM     33  H   UNL     1      52.017   4.108  18.703  0.00  0.00    +0.000 HD
ENDBRANCH  27  28
BRANCH  27  34
ATOM     34  C   UNL     1      49.278   4.868  20.143  0.00  0.00    +0.000 C 
BRANCH  34  35
ATOM     35  O   UNL     1      48.646   3.682  20.607  0.00  0.00    +0.000 OA
ATOM     36  H   UNL     1      48.974   2.958  20.036  0.00  0.00    +0.000 HD
ENDBRANCH  34  35
ENDBRANCH  27  34
ENDBRANCH  25  27
ENDBRANCH  24  25
ENDBRANCH   4  24
TORSDOF 9
ENDMDL
MODEL 9
REMARK VINA RESULT:    -6.401      2.784      8.400
REMARK INTER + INTRA:         -11.050
REMARK INTER:                  -9.604
REMARK INTRA:                  -1.446
REMARK UNBOUND:                -1.468
REMARK  Name = 
REMARK  9 active torsions:
REMARK  status: ('A' for Active; 'I' for Inactive)
REMARK    1  A    between atoms: C_2  and  C_22
REMARK    2  A    between atoms: N_3  and  C_4
REMARK    3  A    between atoms: C_4  and  C_5
REMARK    4  A    between atoms: C_8  and  C_9
REMARK    5  A    between atoms: C_9  and  N_10
REMARK    6  A    between atoms: N_10  and  CA_11
REMARK    7  A    between atoms: CA_11  and  C_12
REMARK    8  A    between atoms: CA_11  and  C_14
REMARK    9  A    between atoms: C_12  and  O_13
REMARK                            x       y       z     vdW  Elec       q    Type
REMARK                         _______ _______ _______ _____ _____    ______ ____
ROOT
ATOM      1  C   UNL     1      48.324   7.705  13.109  0.00  0.00    +0.000 A 
ATOM      2  N   UNL     1      47.878   6.835  14.060  0.00  0.00    +0.000 NA
ATOM      3  C   UNL     1      48.647   6.645  15.153  0.00  0.00    +0.000 A 
ATOM      4  C   UNL     1      49.856   7.290  15.379  0.00  0.00    +0.000 A 
ATOM      5  C   UNL     1      50.281   8.208  14.414  0.00  0.00    +0.000 A 
ATOM      6  C   UNL     1      49.510   8.426  13.269  0.00  0.00    +0.000 A 
ATOM      7 CL   UNL     1      50.082   9.564  12.108  0.00  0.00    +0.000 Cl
ENDROOT
BRANCH   1   8
ATOM      8  C   UNL     1      47.415   7.876  11.914  0.00  0.00    +0.000 C 
BRANCH   8  11
ATOM      9  O   UNL     1      44.630   7.546  11.748  0.00  0.00    +0.000 OA
ATOM     10  C   UNL     1      45.354   6.563  11.624  0.00  0.00    +0.000 C 
ATOM     11  N   UNL     1      46.719   6.649  11.610  0.00  0.00    +0.000 N 
ATOM     12  H   UNL     1      47.273   5.802  11.624  0.00  0.00    +0.000 HD
BRANCH  10  13
ATOM     13  C   UNL     1      44.809   5.216  11.429  0.00  0.00    +0.000 A 
ATOM     14  C   UNL     1      44.097   4.592  12.442  0.00  0.00    +0.000 A 
ATOM     15  S   UNL     1      43.494   3.058  11.996  0.00  0.00    +0.000 S 
ATOM     16  C   UNL     1      44.210   3.157  10.455  0.00  0.00    +0.000 A 
ATOM     17  N   UNL     1      44.077   2.150   9.548  0.00  0.00    +0.000 NA
ATOM     18  C   UNL     1      44.705   2.347   8.435  0.00  0.00    +0.000 A 
ATOM     19  N   UNL     1      45.453   3.458   8.146  0.00  0.00    +0.000 N 
ATOM     20  C   UNL     1      45.586   4.515   9.014  0.00  0.00    +0.000 A 
ATOM     21  O   UNL     1      46.215   5.520   8.698  0.00  0.00    +0.000 OA
ATOM     22  C   UNL     1      44.902   4.342  10.282  0.00  0.00    +0.000 A 
ATOM     23  H   UNL     1      45.915   3.555   7.253  0.00  0.00    +0.000 HD
ENDBRANCH  10  13
ENDBRANCH   8  11
ENDBRANCH   1   8
BRANCH   4  24
ATOM     24  C   UNL     1      50.706   6.913  16.557  0.00  0.00    +0.000 C 
BRANCH  24  25
ATOM     25  N   UNL     1      50.992   5.478  16.639  0.00  0.00    +0.000 NA
ATOM     26  H   UNL     1      52.001   5.335  16.568  0.00  0.00    +0.000 HD
BRANCH  25  27
ATOM     27  CA  UNL     1      50.527   4.907  17.941  0.00  0.00    +0.000 C 
BRANCH  27  28
ATOM     28  C   UNL     1      49.399   5.783  18.559  0.00  0.00    +0.000 C 
ATOM     29  C   UNL     1      49.497   6.065  20.049  0.00  0.00    +0.000 C 
ATOM     30  C   UNL     1      48.151   6.719  20.315  0.00  0.00    +0.000 C 
ATOM     31  C   UNL     1      47.197   6.013  19.356  0.00  0.00    +0.000 C 
ATOM     32  N   UNL     1      48.036   5.246  18.425  0.00  0.00    +0.000 NA
ATOM     33  H   UNL     1      47.711   5.352  17.464  0.00  0.00    +0.000 HD
ENDBRANCH  27  28
BRANCH  27  34
ATOM     34  C   UNL     1      50.147   3.416  17.736  0.00  0.00    +0.000 C 
BRANCH  34  35
ATOM     35  O   UNL     1      49.308   3.192  16.609  0.00  0.00    +0.000 OA
ATOM     36  H   UNL     1      48.437   2.926  16.968  0.00  0.00    +0.000 HD
ENDBRANCH  34  35
ENDBRANCH  27  34
ENDBRANCH  25  27
ENDBRANCH  24  25
ENDBRANCH   4  24
TORSDOF 9
ENDMDL
