MODEL 1
REMARK VINA RESULT:    -7.820      0.000      0.000
REMARK INTER + INTRA:         -11.369
REMARK INTER:                 -10.791
REMARK INTRA:                  -0.578
REMARK UNBOUND:                -0.578
REMARK  Name = 
REMARK  7 active torsions:
REMARK  status: ('A' for Active; 'I' for Inactive)
REMARK    1  A    between atoms: N_1  and  C_2
REMARK    2  A    between atoms: C_2  and  C_3
REMARK    3  A    between atoms: C_7  and  C_8
REMARK    4  A    between atoms: C_8  and  C_9
REMARK    5  A    between atoms: C_9  and  O_10
REMARK    6  A    between atoms: O_10  and  C_11
REMARK    7  A    between atoms: C_14  and  C_15
REMARK                            x       y       z     vdW  Elec       q    Type
REMARK                         _______ _______ _______ _____ _____    ______ ____
ROOT
ATOM      1  C   UNL     1      43.384   4.507  10.916  0.00  0.00    +0.000 C 
ENDROOT
BRANCH   1   2
ATOM      2  C   UNL     1      43.522   5.785  11.747  0.00  0.00    +0.000 C 
BRANCH   2   7
ATOM      3  C   UNL     1      46.736   5.329  13.761  0.00  0.00    +0.000 A 
ATOM      4  C   UNL     1      47.642   6.076  12.996  0.00  0.00    +0.000 A 
ATOM      5  C   UNL     1      47.209   6.759  11.860  0.00  0.00    +0.000 A 
ATOM      6  C   UNL     1      45.870   6.695  11.470  0.00  0.00    +0.000 A 
ATOM      7  C   UNL     1      44.948   5.954  12.220  0.00  0.00    +0.000 A 
ATOM      8  C   UNL     1      45.391   5.281  13.368  0.00  0.00    +0.000 A 
BRANCH   3   9
ATOM      9  C   UNL     1      47.215   4.509  14.931  0.00  0.00    +0.000 C 
BRANCH   9  10
ATOM     10  N   UNL     1      47.471   3.134  14.520  0.00  0.00    +0.000 NA
ATOM     11  H   UNL     1      46.835   2.510  15.010  0.00  0.00    +0.000 HD
ATOM     12  H   UNL     1      48.414   2.875  14.809  0.00  0.00    +0.000 HD
ENDBRANCH   9  10
ENDBRANCH   3   9
ENDBRANCH   2   7
ENDBRANCH   1   2
BRANCH   1  13
ATOM     13  O   UNL     1      43.585   4.789   9.522  0.00  0.00    +0.000 OA
BRANCH  13  14
ATOM     14  C   UNL     1      44.512   3.931   8.960  0.00  0.00    +0.000 A 
ATOM     15  C   UNL     1      44.500   2.592   9.335  0.00  0.00    +0.000 A 
ATOM     16  N   UNL     1      45.365   1.667   8.828  0.00  0.00    +0.000 NA
ATOM     17  C   UNL     1      46.251   2.166   7.916  0.00  0.00    +0.000 A 
ATOM     18  C   UNL     1      46.266   3.500   7.544  0.00  0.00    +0.000 A 
ATOM     19  N   UNL     1      45.399   4.408   8.056  0.00  0.00    +0.000 NA
BRANCH  17  20
ATOM     20  C   UNL     1      47.232   1.234   7.294  0.00  0.00    +0.000 C 
ATOM     21  N   UNL     1      48.329   1.808   6.714  0.00  0.00    +0.000 N 
ATOM     22  O   UNL     1      47.071   0.019   7.300  0.00  0.00    +0.000 OA
ATOM     23  H   UNL     1      48.446   2.815   6.721  0.00  0.00    +0.000 HD
ATOM     24  H   UNL     1      49.024   1.214   6.284  0.00  0.00    +0.000 HD
ENDBRANCH  17  20
ENDBRANCH  13  14
ENDBRANCH   1  13
TORSDOF 7
ENDMDL
MODEL 2
REMARK VINA RESULT:    -7.504      1.810      2.279
REMARK INTER + INTRA:         -10.934
REMARK INTER:                 -10.376
REMARK INTRA:                  -0.558
REMARK UNBOUND:                -0.578
REMARK  Name = 
REMARK  7 active torsions:
REMARK  status: ('A' for Active; 'I' for Inactive)
REMARK    1  A    between atoms: N_1  and  C_2
REMARK    2  A    between atoms: C_2  and  C_3
REMARK    3  A    between atoms: C_7  and  C_8
REMARK    4  A    between atoms: C_8  and  C_9
REMARK    5  A    between atoms: C_9  and  O_10
REMARK    6  A    between atoms: O_10  and  C_11
REMARK    7  A    between atoms: C_14  and  C_15
REMARK                            x       y       z     vdW  Elec       q    Type
REMARK                         _______ _______ _______ _____ _____    ______ ____
ROOT
ATOM      1  C   UNL     1      43.338   3.952  11.072  0.00  0.00    +0.000 C 
ENDROOT
BRANCH   1   2
ATOM      2  C   UNL     1      43.251   4.899  12.270  0.00  0.00    +0.000 C 
BRANCH   2   7
ATOM      3  C   UNL     1      45.972   7.524  12.820  0.00  0.00    +0.000 A 
ATOM      4  C   UNL     1      47.028   6.725  13.277  0.00  0.00    +0.000 A 
ATOM      5  C   UNL     1      46.878   5.341  13.366  0.00  0.00    +0.000 A 
ATOM      6  C   UNL     1      45.669   4.742  13.010  0.00  0.00    +0.000 A 
ATOM      7  C   UNL     1      44.600   5.522  12.550  0.00  0.00    +0.000 A 
ATOM      8  C   UNL     1      44.765   6.911  12.453  0.00  0.00    +0.000 A 
BRANCH   3   9
ATOM      9  C   UNL     1      46.093   9.026  12.814  0.00  0.00    +0.000 C 
BRANCH   9  10
ATOM     10  N   UNL     1      44.774   9.644  12.754  0.00  0.00    +0.000 NA
ATOM     11  H   UNL     1      44.860  10.643  12.923  0.00  0.00    +0.000 HD
ATOM     12  H   UNL     1      44.201   9.269  13.510  0.00  0.00    +0.000 HD
ENDBRANCH   9  10
ENDBRANCH   3   9
ENDBRANCH   2   7
ENDBRANCH   1   2
BRANCH   1  13
ATOM     13  O   UNL     1      43.785   4.657   9.903  0.00  0.00    +0.000 OA
BRANCH  13  14
ATOM     14  C   UNL     1      44.697   3.912   9.178  0.00  0.00    +0.000 A 
ATOM     15  C   UNL     1      44.768   2.541   9.398  0.00  0.00    +0.000 A 
ATOM     16  N   UNL     1      45.624   1.720   8.726  0.00  0.00    +0.000 NA
ATOM     17  C   UNL     1      46.414   2.358   7.813  0.00  0.00    +0.000 A 
ATOM     18  C   UNL     1      46.347   3.724   7.594  0.00  0.00    +0.000 A 
ATOM     19  N   UNL     1      45.489   4.528   8.270  0.00  0.00    +0.000 NA
BRANCH  17  20
ATOM     20  C   UNL     1      47.378   1.549   7.016  0.00  0.00    +0.000 C 
ATOM     21  N   UNL     1      48.446   2.222   6.491  0.00  0.00    +0.000 N 
ATOM     22  O   UNL     1      47.227   0.345   6.839  0.00  0.00    +0.000 OA
ATOM     23  H   UNL     1      48.554   3.217   6.651  0.00  0.00    +0.000 HD
ATOM     24  H   UNL     1      49.128   1.713   5.948  0.00  0.00    +0.000 HD
ENDBRANCH  17  20
ENDBRANCH  13  14
ENDBRANCH   1  13
TORSDOF 7
ENDMDL
MODEL 3
REMARK VINA RESULT:    -7.443      2.463      6.283
REMARK INTER + INTRA:         -10.849
REMARK INTER:                 -10.241
REMARK INTRA:                  -0.609
REMARK UNBOUND:                -0.578
REMARK  Name = 
REMARK  7 active torsions:
REMARK  status: ('A' for Active; 'I' for Inactive)
REMARK    1  A    between atoms: N_1  and  C_2
REMARK    2  A    between atoms: C_2  and  C_3
REMARK    3  A    between atoms: C_7  and  C_8
REMARK    4  A    between atoms: C_8  and  C_9
REMARK    5  A    between atoms: C_9  and  O_10
REMARK    6  A    between atoms: O_10  and  C_11
REMARK    7  A    between atoms: C_14  and  C_15
REMARK                            x       y       z     vdW  Elec       q    Type
REMARK                         _______ _______ _______ _____ _____    ______ ____
ROOT
ATOM      1  C   UNL     1      43.300   3.938  11.078  0.00  0.00    +0.000 C 
ENDROOT
BRANCH   1   2
ATOM      2  C   UNL     1      43.952   2.667  10.532  0.00  0.00    +0.000 C 
BRANCH   2   7
ATOM      3  C   UNL     1      46.496   2.278   7.708  0.00  0.00    +0.000 A 
ATOM      4  C   UNL     1      46.691   3.615   7.335  0.00  0.00    +0.000 A 
ATOM      5  C   UNL     1      46.038   4.640   8.020  0.00  0.00    +0.000 A 
ATOM      6  C   UNL     1      45.177   4.340   9.076  0.00  0.00    +0.000 A 
ATOM      7  C   UNL     1      44.968   3.012   9.466  0.00  0.00    +0.000 A 
ATOM      8  C   UNL     1      45.638   1.989   8.779  0.00  0.00    +0.000 A 
BRANCH   3   9
ATOM      9  C   UNL     1      47.119   1.161   6.911  0.00  0.00    +0.000 C 
BRANCH   9  10
ATOM     10  N   UNL     1      48.286   1.643   6.183  0.00  0.00    +0.000 NA
ATOM     11  H   UNL     1      48.990   0.911   6.147  0.00  0.00    +0.000 HD
ATOM     12  H   UNL     1      48.698   2.419   6.700  0.00  0.00    +0.000 HD
ENDBRANCH   9  10
ENDBRANCH   3   9
ENDBRANCH   2   7
ENDBRANCH   1   2
BRANCH   1  13
ATOM     13  O   UNL     1      43.440   4.003  12.506  0.00  0.00    +0.000 OA
BRANCH  13  14
ATOM     14  C   UNL     1      44.625   4.612  12.873  0.00  0.00    +0.000 A 
ATOM     15  C   UNL     1      44.806   5.959  12.580  0.00  0.00    +0.000 A 
ATOM     16  N   UNL     1      45.933   6.651  12.911  0.00  0.00    +0.000 NA
ATOM     17  C   UNL     1      46.879   5.908  13.558  0.00  0.00    +0.000 A 
ATOM     18  C   UNL     1      46.702   4.566  13.848  0.00  0.00    +0.000 A 
ATOM     19  N   UNL     1      45.575   3.891  13.514  0.00  0.00    +0.000 NA
BRANCH  17  20
ATOM     20  C   UNL     1      48.144   6.574  13.974  0.00  0.00    +0.000 C 
ATOM     21  N   UNL     1      48.124   7.214  15.182  0.00  0.00    +0.000 N 
ATOM     22  O   UNL     1      49.152   6.551  13.277  0.00  0.00    +0.000 OA
ATOM     23  H   UNL     1      47.282   7.219  15.746  0.00  0.00    +0.000 HD
ATOM     24  H   UNL     1      48.962   7.674  15.508  0.00  0.00    +0.000 HD
ENDBRANCH  17  20
ENDBRANCH  13  14
ENDBRANCH   1  13
TORSDOF 7
ENDMDL
MODEL 4
REMARK VINA RESULT:    -7.271      1.394      1.949
REMARK INTER + INTRA:         -10.612
REMARK INTER:                 -10.052
REMARK INTRA:                  -0.560
REMARK UNBOUND:                -0.578
REMARK  Name = 
REMARK  7 active torsions:
REMARK  status: ('A' for Active; 'I' for Inactive)
REMARK    1  A    between atoms: N_1  and  C_2
REMARK    2  A    between atoms: C_2  and  C_3
REMARK    3  A    between atoms: C_7  and  C_8
REMARK    4  A    between atoms: C_8  and  C_9
REMARK    5  A    between atoms: C_9  and  O_10
REMARK    6  A    between atoms: O_10  and  C_11
REMARK    7  A    between atoms: C_14  and  C_15
REMARK                            x       y       z     vdW  Elec       q    Type
REMARK                         _______ _______ _______ _____ _____    ______ ____
ROOT
ATOM      1  C   UNL     1      43.431   4.550  10.957  0.00  0.00    +0.000 C 
ENDROOT
BRANCH   1   2
ATOM      2  C   UNL     1      43.810   5.783  11.780  0.00  0.00    +0.000 C 
BRANCH   2   7
ATOM      3  C   UNL     1      47.469   6.386  12.700  0.00  0.00    +0.000 A 
ATOM      4  C   UNL     1      47.654   5.428  13.706  0.00  0.00    +0.000 A 
ATOM      5  C   UNL     1      46.618   4.562  14.055  0.00  0.00    +0.000 A 
ATOM      6  C   UNL     1      45.383   4.651  13.412  0.00  0.00    +0.000 A 
ATOM      7  C   UNL     1      45.175   5.601  12.404  0.00  0.00    +0.000 A 
ATOM      8  C   UNL     1      46.227   6.458  12.052  0.00  0.00    +0.000 A 
BRANCH   3   9
ATOM      9  C   UNL     1      48.549   7.388  12.386  0.00  0.00    +0.000 C 
BRANCH   9  10
ATOM     10  N   UNL     1      49.844   6.903  12.846  0.00  0.00    +0.000 NA
ATOM     11  H   UNL     1      50.543   7.630  12.719  0.00  0.00    +0.000 HD
ATOM     12  H   UNL     1      50.129   6.119  12.259  0.00  0.00    +0.000 HD
ENDBRANCH   9  10
ENDBRANCH   3   9
ENDBRANCH   2   7
ENDBRANCH   1   2
BRANCH   1  13
ATOM     13  O   UNL     1      43.637   4.796   9.557  0.00  0.00    +0.000 OA
BRANCH  13  14
ATOM     14  C   UNL     1      44.522   3.887   9.007  0.00  0.00    +0.000 A 
ATOM     15  C   UNL     1      44.511   2.576   9.471  0.00  0.00    +0.000 A 
ATOM     16  N   UNL     1      45.335   1.605   8.984  0.00  0.00    +0.000 NA
ATOM     17  C   UNL     1      46.181   2.027   7.998  0.00  0.00    +0.000 A 
ATOM     18  C   UNL     1      46.195   3.333   7.537  0.00  0.00    +0.000 A 
ATOM     19  N   UNL     1      45.368   4.288   8.030  0.00  0.00    +0.000 NA
BRANCH  17  20
ATOM     20  C   UNL     1      47.115   1.040   7.390  0.00  0.00    +0.000 C 
ATOM     21  N   UNL     1      46.862  -0.277   7.656  0.00  0.00    +0.000 N 
ATOM     22  O   UNL     1      48.059   1.383   6.688  0.00  0.00    +0.000 OA
ATOM     23  H   UNL     1      46.074  -0.541   8.237  0.00  0.00    +0.000 HD
ATOM     24  H   UNL     1      47.466  -0.983   7.261  0.00  0.00    +0.000 HD
ENDBRANCH  17  20
ENDBRANCH  13  14
ENDBRANCH   1  13
TORSDOF 7
ENDMDL
MODEL 5
REMARK VINA RESULT:    -7.107      2.582      6.737
REMARK INTER + INTRA:         -10.386
REMARK INTER:                  -9.977
REMARK INTRA:                  -0.409
REMARK UNBOUND:                -0.578
REMARK  Name = 
REMARK  7 active torsions:
REMARK  status: ('A' for Active; 'I' for Inactive)
REMARK    1  A    between atoms: N_1  and  C_2
REMARK    2  A    between atoms: C_2  and  C_3
REMARK    3  A    between atoms: C_7  and  C_8
REMARK    4  A    between atoms: C_8  and  C_9
REMARK    5  A    between atoms: C_9  and  O_10
REMARK    6  A    between atoms: O_10  and  C_11
REMARK    7  A    between atoms: C_14  and  C_15
REMARK                            x       y       z     vdW  Elec       q    Type
REMARK                         _______ _______ _______ _____ _____    ______ ____
ROOT
ATOM      1  C   UNL     1      45.626   5.478   9.811  0.00  0.00    +0.000 C 
ENDROOT
BRANCH   1   2
ATOM      2  C   UNL     1      44.587   4.475   9.305  0.00  0.00    +0.000 C 
BRANCH   2   7
ATOM      3  C   UNL     1      46.815   2.587   6.841  0.00  0.00    +0.000 A 
ATOM      4  C   UNL     1      46.706   1.278   7.329  0.00  0.00    +0.000 A 
ATOM      5  C   UNL     1      45.884   0.998   8.419  0.00  0.00    +0.000 A 
ATOM      6  C   UNL     1      45.170   2.024   9.042  0.00  0.00    +0.000 A 
ATOM      7  C   UNL     1      45.264   3.340   8.572  0.00  0.00    +0.000 A 
ATOM      8  C   UNL     1      46.084   3.608   7.466  0.00  0.00    +0.000 A 
BRANCH   3   9
ATOM      9  C   UNL     1      47.775   2.914   5.727  0.00  0.00    +0.000 C 
BRANCH   9  10
ATOM     10  N   UNL     1      48.532   1.729   5.343  0.00  0.00    +0.000 NA
ATOM     11  H   UNL     1      48.332   1.498   4.373  0.00  0.00    +0.000 HD
ATOM     12  H   UNL     1      48.213   0.939   5.903  0.00  0.00    +0.000 HD
ENDBRANCH   9  10
ENDBRANCH   3   9
ENDBRANCH   2   7
ENDBRANCH   1   2
BRANCH   1  13
ATOM     13  O   UNL     1      45.124   6.190  10.953  0.00  0.00    +0.000 OA
BRANCH  13  14
ATOM     14  C   UNL     1      45.736   5.774  12.120  0.00  0.00    +0.000 A 
ATOM     15  C   UNL     1      45.107   4.809  12.900  0.00  0.00    +0.000 A 
ATOM     16  N   UNL     1      45.636   4.326  14.060  0.00  0.00    +0.000 NA
ATOM     17  C   UNL     1      46.841   4.871  14.399  0.00  0.00    +0.000 A 
ATOM     18  C   UNL     1      47.468   5.834  13.625  0.00  0.00    +0.000 A 
ATOM     19  N   UNL     1      46.930   6.304  12.473  0.00  0.00    +0.000 NA
BRANCH  17  20
ATOM     20  C   UNL     1      47.510   4.402  15.644  0.00  0.00    +0.000 C 
ATOM     21  N   UNL     1      46.813   3.504  16.405  0.00  0.00    +0.000 N 
ATOM     22  O   UNL     1      48.624   4.794  15.973  0.00  0.00    +0.000 OA
ATOM     23  H   UNL     1      45.894   3.190  16.115  0.00  0.00    +0.000 HD
ATOM     24  H   UNL     1      47.230   3.155  17.256  0.00  0.00    +0.000 HD
ENDBRANCH  17  20
ENDBRANCH  13  14
ENDBRANCH   1  13
TORSDOF 7
ENDMDL
MODEL 6
REMARK VINA RESULT:    -6.695      1.727      2.154
REMARK INTER + INTRA:          -9.816
REMARK INTER:                  -9.380
REMARK INTRA:                  -0.437
REMARK UNBOUND:                -0.578
REMARK  Name = 
REMARK  7 active torsions:
REMARK  status: ('A' for Active; 'I' for Inactive)
REMARK    1  A    between atoms: N_1  and  C_2
REMARK    2  A    between atoms: C_2  and  C_3
REMARK    3  A    between atoms: C_7  and  C_8
REMARK    4  A    between atoms: C_8  and  C_9
REMARK    5  A    between atoms: C_9  and  O_10
REMARK    6  A    between atoms: O_10  and  C_11
REMARK    7  A    between atoms: C_14  and  C_15
REMARK                            x       y       z     vdW  Elec       q    Type
REMARK                         _______ _______ _______ _____ _____    ______ ____
ROOT
ATOM      1  C   UNL     1      44.621   4.615  11.459  0.00  0.00    +0.000 C 
ENDROOT
BRANCH   1   2
ATOM      2  C   UNL     1      43.966   5.981  11.668  0.00  0.00    +0.000 C 
BRANCH   2   7
ATOM      3  C   UNL     1      47.126   7.455  13.228  0.00  0.00    +0.000 A 
ATOM      4  C   UNL     1      47.005   8.802  12.860  0.00  0.00    +0.000 A 
ATOM      5  C   UNL     1      45.888   9.241  12.150  0.00  0.00    +0.000 A 
ATOM      6  C   UNL     1      44.886   8.338  11.791  0.00  0.00    +0.000 A 
ATOM      7  C   UNL     1      44.986   6.988  12.148  0.00  0.00    +0.000 A 
ATOM      8  C   UNL     1      46.108   6.559  12.873  0.00  0.00    +0.000 A 
BRANCH   3   9
ATOM      9  C   UNL     1      48.374   6.955  13.908  0.00  0.00    +0.000 C 
BRANCH   9  10
ATOM     10  N   UNL     1      49.379   6.582  12.920  0.00  0.00    +0.000 NA
ATOM     11  H   UNL     1      49.006   6.729  11.985  0.00  0.00    +0.000 HD
ATOM     12  H   UNL     1      49.568   5.584  13.005  0.00  0.00    +0.000 HD
ENDBRANCH   9  10
ENDBRANCH   3   9
ENDBRANCH   2   7
ENDBRANCH   1   2
BRANCH   1  13
ATOM     13  O   UNL     1      43.939   3.881  10.430  0.00  0.00    +0.000 OA
BRANCH  13  14
ATOM     14  C   UNL     1      44.810   3.464   9.441  0.00  0.00    +0.000 A 
ATOM     15  C   UNL     1      45.376   4.417   8.601  0.00  0.00    +0.000 A 
ATOM     16  N   UNL     1      46.255   4.108   7.605  0.00  0.00    +0.000 NA
ATOM     17  C   UNL     1      46.536   2.776   7.497  0.00  0.00    +0.000 A 
ATOM     18  C   UNL     1      45.971   1.825   8.331  0.00  0.00    +0.000 A 
ATOM     19  N   UNL     1      45.100   2.148   9.318  0.00  0.00    +0.000 NA
BRANCH  17  20
ATOM     20  C   UNL     1      47.494   2.333   6.447  0.00  0.00    +0.000 C 
ATOM     21  N   UNL     1      47.462   3.025   5.268  0.00  0.00    +0.000 N 
ATOM     22  O   UNL     1      48.272   1.403   6.625  0.00  0.00    +0.000 OA
ATOM     23  H   UNL     1      46.814   3.793   5.140  0.00  0.00    +0.000 HD
ATOM     24  H   UNL     1      48.099   2.763   4.528  0.00  0.00    +0.000 HD
ENDBRANCH  17  20
ENDBRANCH  13  14
ENDBRANCH   1  13
TORSDOF 7
ENDMDL
MODEL 7
REMARK VINA RESULT:    -6.559      2.848      6.715
REMARK INTER + INTRA:          -9.630
REMARK INTER:                  -9.101
REMARK INTRA:                  -0.529
REMARK UNBOUND:                -0.578
REMARK  Name = 
REMARK  7 active torsions:
REMARK  status: ('A' for Active; 'I' for Inactive)
REMARK    1  A    between atoms: N_1  and  C_2
REMARK    2  A    between atoms: C_2  and  C_3
REMARK    3  A    between atoms: C_7  and  C_8
REMARK    4  A    between atoms: C_8  and  C_9
REMARK    5  A    between atoms: C_9  and  O_10
REMARK    6  A    between atoms: O_10  and  C_11
REMARK    7  A    between atoms: C_14  and  C_15
REMARK                            x       y       z     vdW  Elec       q    Type
REMARK                         _______ _______ _______ _____ _____    ______ ____
ROOT
ATOM      1  C   UNL     1      45.475   6.360  12.477  0.00  0.00    +0.000 C 
ENDROOT
BRANCH   1   2
ATOM      2  C   UNL     1      45.242   6.482  10.970  0.00  0.00    +0.000 C 
BRANCH   2   7
ATOM      3  C   UNL     1      45.326   3.503   8.579  0.00  0.00    +0.000 A 
ATOM      4  C   UNL     1      44.635   2.539   9.326  0.00  0.00    +0.000 A 
ATOM      5  C   UNL     1      44.107   2.861  10.575  0.00  0.00    +0.000 A 
ATOM      6  C   UNL     1      44.272   4.145  11.098  0.00  0.00    +0.000 A 
ATOM      7  C   UNL     1      44.959   5.124  10.368  0.00  0.00    +0.000 A 
ATOM      8  C   UNL     1      45.476   4.793   9.107  0.00  0.00    +0.000 A 
BRANCH   3   9
ATOM      9  C   UNL     1      45.984   3.136   7.274  0.00  0.00    +0.000 C 
BRANCH   9  10
ATOM     10  N   UNL     1      46.924   4.172   6.868  0.00  0.00    +0.000 NA
ATOM     11  H   UNL     1      46.457   5.076   6.876  0.00  0.00    +0.000 HD
ATOM     12  H   UNL     1      47.207   3.999   5.903  0.00  0.00    +0.000 HD
ENDBRANCH   9  10
ENDBRANCH   3   9
ENDBRANCH   2   7
ENDBRANCH   1   2
BRANCH   1  13
ATOM     13  O   UNL     1      46.877   6.427  12.778  0.00  0.00    +0.000 OA
BRANCH  13  14
ATOM     14  C   UNL     1      47.219   5.562  13.801  0.00  0.00    +0.000 A 
ATOM     15  C   UNL     1      46.889   4.217  13.680  0.00  0.00    +0.000 A 
ATOM     16  N   UNL     1      47.194   3.285  14.628  0.00  0.00    +0.000 NA
ATOM     17  C   UNL     1      47.851   3.784  15.716  0.00  0.00    +0.000 A 
ATOM     18  C   UNL     1      48.177   5.124  15.840  0.00  0.00    +0.000 A 
ATOM     19  N   UNL     1      47.870   6.039  14.888  0.00  0.00    +0.000 NA
BRANCH  17  20
ATOM     20  C   UNL     1      48.240   2.845  16.805  0.00  0.00    +0.000 C 
ATOM     21  N   UNL     1      47.380   2.758  17.865  0.00  0.00    +0.000 N 
ATOM     22  O   UNL     1      49.270   2.184  16.758  0.00  0.00    +0.000 OA
ATOM     23  H   UNL     1      46.531   3.311  17.884  0.00  0.00    +0.000 HD
ATOM     24  H   UNL     1      47.600   2.130  18.624  0.00  0.00    +0.000 HD
ENDBRANCH  17  20
ENDBRANCH  13  14
ENDBRANCH   1  13
TORSDOF 7
ENDMDL
MODEL 8
REMARK VINA RESULT:    -6.524      3.865      6.413
REMARK INTER + INTRA:          -9.580
REMARK INTER:                  -9.202
REMARK INTRA:                  -0.378
REMARK UNBOUND:                -0.578
REMARK  Name = 
REMARK  7 active torsions:
REMARK  status: ('A' for Active; 'I' for Inactive)
REMARK    1  A    between atoms: N_1  and  C_2
REMARK    2  A    between atoms: C_2  and  C_3
REMARK    3  A    between atoms: C_7  and  C_8
REMARK    4  A    between atoms: C_8  and  C_9
REMARK    5  A    between atoms: C_9  and  O_10
REMARK    6  A    between atoms: O_10  and  C_11
REMARK    7  A    between atoms: C_14  and  C_15
REMARK                            x       y       z     vdW  Elec       q    Type
REMARK                         _______ _______ _______ _____ _____    ______ ____
ROOT
ATOM      1  C   UNL     1      47.191   4.376  15.886  0.00  0.00    +0.000 C 
ENDROOT
BRANCH   1   2
ATOM      2  C   UNL     1      47.557   3.359  16.968  0.00  0.00    +0.000 C 
BRANCH   2   7
ATOM      3  C   UNL     1      51.229   2.474  17.546  0.00  0.00    +0.000 A 
ATOM      4  C   UNL     1      51.771   3.738  17.815  0.00  0.00    +0.000 A 
ATOM      5  C   UNL     1      50.949   4.864  17.853  0.00  0.00    +0.000 A 
ATOM      6  C   UNL     1      49.580   4.742  17.613  0.00  0.00    +0.000 A 
ATOM      7  C   UNL     1      49.016   3.488  17.342  0.00  0.00    +0.000 A 
ATOM      8  C   UNL     1      49.850   2.361  17.318  0.00  0.00    +0.000 A 
BRANCH   3   9
ATOM      9  C   UNL     1      52.124   1.270  17.405  0.00  0.00    +0.000 C 
BRANCH   9  10
ATOM     10  N   UNL     1      51.596   0.150  18.175  0.00  0.00    +0.000 NA
ATOM     11  H   UNL     1      50.596   0.272  18.308  0.00  0.00    +0.000 HD
ATOM     12  H   UNL     1      52.018   0.163  19.103  0.00  0.00    +0.000 HD
ENDBRANCH   9  10
ENDBRANCH   3   9
ENDBRANCH   2   7
ENDBRANCH   1   2
BRANCH   1  13
ATOM     13  O   UNL     1      47.464   3.843  14.581  0.00  0.00    +0.000 OA
BRANCH  13  14
ATOM     14  C   UNL     1      46.478   4.189  13.675  0.00  0.00    +0.000 A 
ATOM     15  C   UNL     1      46.193   5.536  13.476  0.00  0.00    +0.000 A 
ATOM     16  N   UNL     1      45.249   5.977  12.597  0.00  0.00    +0.000 NA
ATOM     17  C   UNL     1      44.599   4.982  11.923  0.00  0.00    +0.000 A 
ATOM     18  C   UNL     1      44.879   3.641  12.122  0.00  0.00    +0.000 A 
ATOM     19  N   UNL     1      45.823   3.217  12.999  0.00  0.00    +0.000 NA
BRANCH  17  20
ATOM     20  C   UNL     1      43.555   5.360  10.930  0.00  0.00    +0.000 C 
ATOM     21  N   UNL     1      42.795   6.454  11.236  0.00  0.00    +0.000 N 
ATOM     22  O   UNL     1      43.385   4.729   9.893  0.00  0.00    +0.000 OA
ATOM     23  H   UNL     1      42.954   6.964  12.097  0.00  0.00    +0.000 HD
ATOM     24  H   UNL     1      42.079   6.750  10.589  0.00  0.00    +0.000 HD
ENDBRANCH  17  20
ENDBRANCH  13  14
ENDBRANCH   1  13
TORSDOF 7
ENDMDL
MODEL 9
REMARK VINA RESULT:    -5.987      3.092      6.875
REMARK INTER + INTRA:          -8.840
REMARK INTER:                  -8.474
REMARK INTRA:                  -0.366
REMARK UNBOUND:                -0.578
REMARK  Name = 
REMARK  7 active torsions:
REMARK  status: ('A' for Active; 'I' for Inactive)
REMARK    1  A    between atoms: N_1  and  C_2
REMARK    2  A    between atoms: C_2  and  C_3
REMARK    3  A    between atoms: C_7  and  C_8
REMARK    4  A    between atoms: C_8  and  C_9
REMARK    5  A    between atoms: C_9  and  O_10
REMARK    6  A    between atoms: O_10  and  C_11
REMARK    7  A    between atoms: C_14  and  C_15
REMARK                            x       y       z     vdW  Elec       q    Type
REMARK                         _______ _______ _______ _____ _____    ______ ____
ROOT
ATOM      1  C   UNL     1      47.400   6.481  12.068  0.00  0.00    +0.000 C 
ENDROOT
BRANCH   1   2
ATOM      2  C   UNL     1      46.072   7.128  11.671  0.00  0.00    +0.000 C 
BRANCH   2   7
ATOM      3  C   UNL     1      44.189   4.028  10.471  0.00  0.00    +0.000 A 
ATOM      4  C   UNL     1      43.126   3.989  11.384  0.00  0.00    +0.000 A 
ATOM      5  C   UNL     1      42.993   4.982  12.354  0.00  0.00    +0.000 A 
ATOM      6  C   UNL     1      43.925   6.018  12.430  0.00  0.00    +0.000 A 
ATOM      7  C   UNL     1      44.995   6.077  11.528  0.00  0.00    +0.000 A 
ATOM      8  C   UNL     1      45.113   5.081  10.548  0.00  0.00    +0.000 A 
BRANCH   3   9
ATOM      9  C   UNL     1      44.395   2.908   9.485  0.00  0.00    +0.000 C 
BRANCH   9  10
ATOM     10  N   UNL     1      44.357   3.417   8.120  0.00  0.00    +0.000 NA
ATOM     11  H   UNL     1      44.129   4.408   8.133  0.00  0.00    +0.000 HD
ATOM     12  H   UNL     1      43.603   2.951   7.616  0.00  0.00    +0.000 HD
ENDBRANCH   9  10
ENDBRANCH   3   9
ENDBRANCH   2   7
ENDBRANCH   1   2
BRANCH   1  13
ATOM     13  O   UNL     1      47.881   7.033  13.303  0.00  0.00    +0.000 OA
BRANCH  13  14
ATOM     14  C   UNL     1      47.824   6.107  14.329  0.00  0.00    +0.000 A 
ATOM     15  C   UNL     1      47.021   4.983  14.173  0.00  0.00    +0.000 A 
ATOM     16  N   UNL     1      46.908   4.009  15.121  0.00  0.00    +0.000 NA
ATOM     17  C   UNL     1      47.652   4.229  16.245  0.00  0.00    +0.000 A 
ATOM     18  C   UNL     1      48.450   5.350  16.403  0.00  0.00    +0.000 A 
ATOM     19  N   UNL     1      48.553   6.309  15.451  0.00  0.00    +0.000 NA
BRANCH  17  20
ATOM     20  C   UNL     1      47.608   3.218  17.337  0.00  0.00    +0.000 C 
ATOM     21  N   UNL     1      48.792   2.954  17.967  0.00  0.00    +0.000 N 
ATOM     22  O   UNL     1      46.569   2.652  17.659  0.00  0.00    +0.000 OA
ATOM     23  H   UNL     1      49.640   3.435  17.689  0.00  0.00    +0.000 HD
ATOM     24  H   UNL     1      48.809   2.279  18.718  0.00  0.00    +0.000 HD
ENDBRANCH  17  20
ENDBRANCH  13  14
ENDBRANCH   1  13
TORSDOF 7
ENDMDL
