MODEL 1
REMARK VINA RESULT:    -8.057      0.000      0.000
REMARK INTER + INTRA:         -10.816
REMARK INTER:                 -10.177
REMARK INTRA:                  -0.639
REMARK UNBOUND:                -0.639
REMARK  Name = 
REMARK  5 active torsions:
REMARK  status: ('A' for Active; 'I' for Inactive)
REMARK    1  A    between atoms: N_1  and  C_2
REMARK    2  A    between atoms: C_2  and  C_3
REMARK    3  A    between atoms: C_3  and  C_4
REMARK    4  A    between atoms: C_7  and  C_8
REMARK    5  A    between atoms: C_8  and  C_9
REMARK                            x       y       z     vdW  Elec       q    Type
REMARK                         _______ _______ _______ _____ _____    ______ ____
ROOT
ATOM      1  C   UNL     1      43.721   4.505  10.477  0.00  0.00    +0.000 C 
ENDROOT
BRANCH   1   2
ATOM      2  C   UNL     1      44.472   4.584  11.764  0.00  0.00    +0.000 A 
ATOM      3  N   UNL     1      44.161   3.768  12.783  0.00  0.00    +0.000 NA
ATOM      4  N   UNL     1      45.086   4.049  13.720  0.00  0.00    +0.000 N 
ATOM      5  C   UNL     1      46.007   4.982  13.335  0.00  0.00    +0.000 A 
ATOM      6  C   UNL     1      47.135   5.496  13.976  0.00  0.00    +0.000 A 
ATOM      7 CL   UNL     1      47.595   4.962  15.541  0.00  0.00    +0.000 Cl
ATOM      8  C   UNL     1      47.894   6.453  13.297  0.00  0.00    +0.000 A 
ATOM      9  C   UNL     1      47.525   6.878  12.020  0.00  0.00    +0.000 A 
ATOM     10  C   UNL     1      46.392   6.348  11.388  0.00  0.00    +0.000 A 
ATOM     11  C   UNL     1      45.622   5.377  12.059  0.00  0.00    +0.000 A 
ATOM     12  H   UNL     1      45.051   3.549  14.599  0.00  0.00    +0.000 HD
ENDBRANCH   1   2
BRANCH   1  16
ATOM     13  C   UNL     1      46.168   2.272   7.784  0.00  0.00    +0.000 A 
ATOM     14  C   UNL     1      46.093   3.653   7.617  0.00  0.00    +0.000 A 
ATOM     15  C   UNL     1      45.292   4.397   8.482  0.00  0.00    +0.000 A 
ATOM     16  C   UNL     1      44.574   3.751   9.493  0.00  0.00    +0.000 A 
ATOM     17  C   UNL     1      44.704   2.369   9.576  0.00  0.00    +0.000 A 
ATOM     18  N   UNL     1      45.480   1.624   8.752  0.00  0.00    +0.000 NA
BRANCH  13  19
ATOM     19  C   UNL     1      47.010   1.430   6.860  0.00  0.00    +0.000 C 
BRANCH  19  20
ATOM     20  C   UNL     1      48.281   2.170   6.438  0.00  0.00    +0.000 C 
BRANCH  20  21
ATOM     21  N   UNL     1      48.268   2.475   5.004  0.00  0.00    +0.000 NA
ATOM     22  H   UNL     1      48.709   1.706   4.499  0.00  0.00    +0.000 HD
ATOM     23  H   UNL     1      48.856   3.291   4.834  0.00  0.00    +0.000 HD
ENDBRANCH  20  21
ENDBRANCH  19  20
ENDBRANCH  13  19
ENDBRANCH   1  16
TORSDOF 5
ENDMDL
MODEL 2
REMARK VINA RESULT:    -7.468      2.816      6.010
REMARK INTER + INTRA:         -10.072
REMARK INTER:                  -9.357
REMARK INTRA:                  -0.715
REMARK UNBOUND:                -0.639
REMARK  Name = 
REMARK  5 active torsions:
REMARK  status: ('A' for Active; 'I' for Inactive)
REMARK    1  A    between atoms: N_1  and  C_2
REMARK    2  A    between atoms: C_2  and  C_3
REMARK    3  A    between atoms: C_3  and  C_4
REMARK    4  A    between atoms: C_7  and  C_8
REMARK    5  A    between atoms: C_8  and  C_9
REMARK                            x       y       z     vdW  Elec       q    Type
REMARK                         _______ _______ _______ _____ _____    ______ ____
ROOT
ATOM      1  C   UNL     1      43.487   5.068  10.638  0.00  0.00    +0.000 C 
ENDROOT
BRANCH   1   2
ATOM      2  C   UNL     1      44.160   3.830  10.148  0.00  0.00    +0.000 A 
ATOM      3  N   UNL     1      43.771   2.624  10.591  0.00  0.00    +0.000 NA
ATOM      4  N   UNL     1      44.514   1.758   9.878  0.00  0.00    +0.000 N 
ATOM      5  C   UNL     1      45.337   2.350   8.962  0.00  0.00    +0.000 A 
ATOM      6  C   UNL     1      46.206   1.816   8.008  0.00  0.00    +0.000 A 
ATOM      7 CL   UNL     1      46.389   0.120   7.817  0.00  0.00    +0.000 Cl
ATOM      8  C   UNL     1      46.915   2.706   7.197  0.00  0.00    +0.000 A 
ATOM      9  C   UNL     1      46.756   4.084   7.347  0.00  0.00    +0.000 A 
ATOM     10  C   UNL     1      45.876   4.605   8.307  0.00  0.00    +0.000 A 
ATOM     11  C   UNL     1      45.150   3.718   9.125  0.00  0.00    +0.000 A 
ATOM     12  H   UNL     1      44.395   0.767  10.045  0.00  0.00    +0.000 HD
ENDBRANCH   1   2
BRANCH   1  16
ATOM     13  C   UNL     1      46.381   7.251  12.892  0.00  0.00    +0.000 A 
ATOM     14  C   UNL     1      45.454   7.968  12.140  0.00  0.00    +0.000 A 
ATOM     15  C   UNL     1      44.507   7.270  11.391  0.00  0.00    +0.000 A 
ATOM     16  C   UNL     1      44.505   5.873  11.399  0.00  0.00    +0.000 A 
ATOM     17  C   UNL     1      45.476   5.245  12.173  0.00  0.00    +0.000 A 
ATOM     18  N   UNL     1      46.403   5.898  12.914  0.00  0.00    +0.000 NA
BRANCH  13  19
ATOM     19  C   UNL     1      47.431   7.966  13.703  0.00  0.00    +0.000 C 
BRANCH  19  20
ATOM     20  C   UNL     1      48.521   7.001  14.173  0.00  0.00    +0.000 C 
BRANCH  20  21
ATOM     21  N   UNL     1      49.396   6.605  13.065  0.00  0.00    +0.000 NA
ATOM     22  H   UNL     1      50.260   7.146  13.117  0.00  0.00    +0.000 HD
ATOM     23  H   UNL     1      48.956   6.871  12.184  0.00  0.00    +0.000 HD
ENDBRANCH  20  21
ENDBRANCH  19  20
ENDBRANCH  13  19
ENDBRANCH   1  16
TORSDOF 5
ENDMDL
MODEL 3
REMARK VINA RESULT:    -7.307      2.177      2.408
REMARK INTER + INTRA:          -9.868
REMARK INTER:                  -9.503
REMARK INTRA:                  -0.365
REMARK UNBOUND:                -0.639
REMARK  Name = 
REMARK  5 active torsions:
REMARK  status: ('A' for Active; 'I' for Inactive)
REMARK    1  A    between atoms: N_1  and  C_2
REMARK    2  A    between atoms: C_2  and  C_3
REMARK    3  A    between atoms: C_3  and  C_4
REMARK    4  A    between atoms: C_7  and  C_8
REMARK    5  A    between atoms: C_8  and  C_9
REMARK                            x       y       z     vdW  Elec       q    Type
REMARK                         _______ _______ _______ _____ _____    ______ ____
ROOT
ATOM      1  C   UNL     1      43.499   4.252  11.163  0.00  0.00    +0.000 C 
ENDROOT
BRANCH   1   2
ATOM      2  C   UNL     1      43.869   5.695  11.246  0.00  0.00    +0.000 A 
ATOM      3  N   UNL     1      42.957   6.645  10.988  0.00  0.00    +0.000 NA
ATOM      4  N   UNL     1      43.603   7.797  11.249  0.00  0.00    +0.000 N 
ATOM      5  C   UNL     1      44.881   7.631  11.704  0.00  0.00    +0.000 A 
ATOM      6  C   UNL     1      45.844   8.547  12.132  0.00  0.00    +0.000 A 
ATOM      7 CL   UNL     1      45.523  10.233  12.158  0.00  0.00    +0.000 Cl
ATOM      8  C   UNL     1      47.078   8.048  12.557  0.00  0.00    +0.000 A 
ATOM      9  C   UNL     1      47.332   6.676  12.546  0.00  0.00    +0.000 A 
ATOM     10  C   UNL     1      46.353   5.769  12.117  0.00  0.00    +0.000 A 
ATOM     11  C   UNL     1      45.102   6.258  11.693  0.00  0.00    +0.000 A 
ATOM     12  H   UNL     1      43.107   8.669  11.120  0.00  0.00    +0.000 HD
ENDBRANCH   1   2
BRANCH   1  16
ATOM     13  C   UNL     1      45.820   2.403   8.094  0.00  0.00    +0.000 A 
ATOM     14  C   UNL     1      45.623   3.780   8.033  0.00  0.00    +0.000 A 
ATOM     15  C   UNL     1      44.860   4.399   9.022  0.00  0.00    +0.000 A 
ATOM     16  C   UNL     1      44.301   3.635  10.050  0.00  0.00    +0.000 A 
ATOM     17  C   UNL     1      44.544   2.265  10.022  0.00  0.00    +0.000 A 
ATOM     18  N   UNL     1      45.286   1.640   9.077  0.00  0.00    +0.000 NA
BRANCH  13  19
ATOM     19  C   UNL     1      46.624   1.692   7.036  0.00  0.00    +0.000 C 
BRANCH  19  20
ATOM     20  C   UNL     1      47.896   2.470   6.691  0.00  0.00    +0.000 C 
BRANCH  20  21
ATOM     21  N   UNL     1      48.598   1.867   5.554  0.00  0.00    +0.000 NA
ATOM     22  H   UNL     1      49.550   1.635   5.838  0.00  0.00    +0.000 HD
ATOM     23  H   UNL     1      48.693   2.565   4.815  0.00  0.00    +0.000 HD
ENDBRANCH  20  21
ENDBRANCH  19  20
ENDBRANCH  13  19
ENDBRANCH   1  16
TORSDOF 5
ENDMDL
MODEL 4
REMARK VINA RESULT:    -7.179      1.659      2.131
REMARK INTER + INTRA:          -9.707
REMARK INTER:                  -8.862
REMARK INTRA:                  -0.844
REMARK UNBOUND:                -0.639
REMARK  Name = 
REMARK  5 active torsions:
REMARK  status: ('A' for Active; 'I' for Inactive)
REMARK    1  A    between atoms: N_1  and  C_2
REMARK    2  A    between atoms: C_2  and  C_3
REMARK    3  A    between atoms: C_3  and  C_4
REMARK    4  A    between atoms: C_7  and  C_8
REMARK    5  A    between atoms: C_8  and  C_9
REMARK                            x       y       z     vdW  Elec       q    Type
REMARK                         _______ _______ _______ _____ _____    ______ ____
ROOT
ATOM      1  C   UNL     1      43.892   4.825  10.411  0.00  0.00    +0.000 C 
ENDROOT
BRANCH   1   2
ATOM      2  C   UNL     1      44.863   5.656  11.179  0.00  0.00    +0.000 A 
ATOM      3  N   UNL     1      44.929   6.982  10.980  0.00  0.00    +0.000 NA
ATOM      4  N   UNL     1      45.824   7.405  11.891  0.00  0.00    +0.000 N 
ATOM      5  C   UNL     1      46.310   6.416  12.700  0.00  0.00    +0.000 A 
ATOM      6  C   UNL     1      47.192   6.447  13.782  0.00  0.00    +0.000 A 
ATOM      7 CL   UNL     1      47.880   7.920  14.331  0.00  0.00    +0.000 Cl
ATOM      8  C   UNL     1      47.487   5.239  14.420  0.00  0.00    +0.000 A 
ATOM      9  C   UNL     1      46.917   4.045  13.978  0.00  0.00    +0.000 A 
ATOM     10  C   UNL     1      46.030   4.032  12.892  0.00  0.00    +0.000 A 
ATOM     11  C   UNL     1      45.718   5.243  12.245  0.00  0.00    +0.000 A 
ATOM     12  H   UNL     1      46.046   8.392  11.930  0.00  0.00    +0.000 HD
ENDBRANCH   1   2
BRANCH   1  16
ATOM     13  C   UNL     1      46.120   2.241   7.846  0.00  0.00    +0.000 A 
ATOM     14  C   UNL     1      45.316   1.664   8.825  0.00  0.00    +0.000 A 
ATOM     15  C   UNL     1      44.588   2.493   9.677  0.00  0.00    +0.000 A 
ATOM     16  C   UNL     1      44.680   3.881   9.543  0.00  0.00    +0.000 A 
ATOM     17  C   UNL     1      45.516   4.365   8.542  0.00  0.00    +0.000 A 
ATOM     18  N   UNL     1      46.230   3.582   7.698  0.00  0.00    +0.000 NA
BRANCH  13  19
ATOM     19  C   UNL     1      46.936   1.380   6.915  0.00  0.00    +0.000 C 
BRANCH  19  20
ATOM     20  C   UNL     1      48.243   2.072   6.523  0.00  0.00    +0.000 C 
BRANCH  20  21
ATOM     21  N   UNL     1      48.130   2.724   5.215  0.00  0.00    +0.000 NA
ATOM     22  H   UNL     1      47.602   2.117   4.588  0.00  0.00    +0.000 HD
ATOM     23  H   UNL     1      49.060   2.805   4.803  0.00  0.00    +0.000 HD
ENDBRANCH  20  21
ENDBRANCH  19  20
ENDBRANCH  13  19
ENDBRANCH   1  16
TORSDOF 5
ENDMDL
MODEL 5
REMARK VINA RESULT:    -6.842      1.460      1.720
REMARK INTER + INTRA:          -9.281
REMARK INTER:                  -8.761
REMARK INTRA:                  -0.520
REMARK UNBOUND:                -0.639
REMARK  Name = 
REMARK  5 active torsions:
REMARK  status: ('A' for Active; 'I' for Inactive)
REMARK    1  A    between atoms: N_1  and  C_2
REMARK    2  A    between atoms: C_2  and  C_3
REMARK    3  A    between atoms: C_3  and  C_4
REMARK    4  A    between atoms: C_7  and  C_8
REMARK    5  A    between atoms: C_8  and  C_9
REMARK                            x       y       z     vdW  Elec       q    Type
REMARK                         _______ _______ _______ _____ _____    ______ ____
ROOT
ATOM      1  C   UNL     1      44.161   4.504  12.037  0.00  0.00    +0.000 C 
ENDROOT
BRANCH   1   2
ATOM      2  C   UNL     1      45.324   4.952  12.856  0.00  0.00    +0.000 A 
ATOM      3  N   UNL     1      46.105   4.054  13.476  0.00  0.00    +0.000 NA
ATOM      4  N   UNL     1      47.084   4.796  14.025  0.00  0.00    +0.000 N 
ATOM      5  C   UNL     1      46.995   6.132  13.752  0.00  0.00    +0.000 A 
ATOM      6  C   UNL     1      47.824   7.206  14.078  0.00  0.00    +0.000 A 
ATOM      7 CL   UNL     1      49.266   6.981  14.981  0.00  0.00    +0.000 Cl
ATOM      8  C   UNL     1      47.453   8.477  13.631  0.00  0.00    +0.000 A 
ATOM      9  C   UNL     1      46.286   8.657  12.887  0.00  0.00    +0.000 A 
ATOM     10  C   UNL     1      45.467   7.566  12.565  0.00  0.00    +0.000 A 
ATOM     11  C   UNL     1      45.833   6.279  13.003  0.00  0.00    +0.000 A 
ATOM     12  H   UNL     1      47.806   4.326  14.559  0.00  0.00    +0.000 HD
ENDBRANCH   1   2
BRANCH   1  16
ATOM     13  C   UNL     1      45.637   3.389   8.189  0.00  0.00    +0.000 A 
ATOM     14  C   UNL     1      45.803   4.708   8.602  0.00  0.00    +0.000 A 
ATOM     15  C   UNL     1      45.319   5.092   9.852  0.00  0.00    +0.000 A 
ATOM     16  C   UNL     1      44.673   4.156  10.665  0.00  0.00    +0.000 A 
ATOM     17  C   UNL     1      44.546   2.865  10.164  0.00  0.00    +0.000 A 
ATOM     18  N   UNL     1      45.012   2.465   8.956  0.00  0.00    +0.000 NA
BRANCH  13  19
ATOM     19  C   UNL     1      46.131   2.937   6.839  0.00  0.00    +0.000 C 
BRANCH  19  20
ATOM     20  C   UNL     1      47.652   2.770   6.832  0.00  0.00    +0.000 C 
BRANCH  20  21
ATOM     21  N   UNL     1      48.034   1.373   6.603  0.00  0.00    +0.000 NA
ATOM     22  H   UNL     1      48.964   1.217   6.992  0.00  0.00    +0.000 HD
ATOM     23  H   UNL     1      48.125   1.215   5.599  0.00  0.00    +0.000 HD
ENDBRANCH  20  21
ENDBRANCH  19  20
ENDBRANCH  13  19
ENDBRANCH   1  16
TORSDOF 5
ENDMDL
MODEL 6
REMARK VINA RESULT:    -6.314      2.986      6.289
REMARK INTER + INTRA:          -8.613
REMARK INTER:                  -7.840
REMARK INTRA:                  -0.773
REMARK UNBOUND:                -0.639
REMARK  Name = 
REMARK  5 active torsions:
REMARK  status: ('A' for Active; 'I' for Inactive)
REMARK    1  A    between atoms: N_1  and  C_2
REMARK    2  A    between atoms: C_2  and  C_3
REMARK    3  A    between atoms: C_3  and  C_4
REMARK    4  A    between atoms: C_7  and  C_8
REMARK    5  A    between atoms: C_8  and  C_9
REMARK                            x       y       z     vdW  Elec       q    Type
REMARK                         _______ _______ _______ _____ _____    ______ ____
ROOT
ATOM      1  C   UNL     1      44.576   5.876  12.925  0.00  0.00    +0.000 C 
ENDROOT
BRANCH   1   2
ATOM      2  C   UNL     1      44.634   4.641  12.091  0.00  0.00    +0.000 A 
ATOM      3  N   UNL     1      44.138   3.484  12.556  0.00  0.00    +0.000 NA
ATOM      4  N   UNL     1      44.271   2.633  11.522  0.00  0.00    +0.000 N 
ATOM      5  C   UNL     1      44.794   3.200  10.394  0.00  0.00    +0.000 A 
ATOM      6  C   UNL     1      45.033   2.685   9.118  0.00  0.00    +0.000 A 
ATOM      7 CL   UNL     1      44.654   1.058   8.725  0.00  0.00    +0.000 Cl
ATOM      8  C   UNL     1      45.579   3.543   8.159  0.00  0.00    +0.000 A 
ATOM      9  C   UNL     1      45.876   4.869   8.478  0.00  0.00    +0.000 A 
ATOM     10  C   UNL     1      45.625   5.371   9.763  0.00  0.00    +0.000 A 
ATOM     11  C   UNL     1      45.069   4.519  10.736  0.00  0.00    +0.000 A 
ATOM     12  H   UNL     1      43.962   1.676  11.640  0.00  0.00    +0.000 HD
ENDBRANCH   1   2
BRANCH   1  16
ATOM     13  C   UNL     1      48.561   7.342  13.367  0.00  0.00    +0.000 A 
ATOM     14  C   UNL     1      47.624   8.159  12.741  0.00  0.00    +0.000 A 
ATOM     15  C   UNL     1      46.320   7.693  12.580  0.00  0.00    +0.000 A 
ATOM     16  C   UNL     1      45.975   6.419  13.040  0.00  0.00    +0.000 A 
ATOM     17  C   UNL     1      46.981   5.672  13.644  0.00  0.00    +0.000 A 
ATOM     18  N   UNL     1      48.253   6.103  13.818  0.00  0.00    +0.000 NA
BRANCH  13  19
ATOM     19  C   UNL     1      49.986   7.802  13.547  0.00  0.00    +0.000 C 
BRANCH  19  20
ATOM     20  C   UNL     1      50.348   7.917  15.029  0.00  0.00    +0.000 C 
BRANCH  20  21
ATOM     21  N   UNL     1      50.831   6.639  15.560  0.00  0.00    +0.000 NA
ATOM     22  H   UNL     1      50.154   5.910  15.334  0.00  0.00    +0.000 HD
ATOM     23  H   UNL     1      50.851   6.690  16.579  0.00  0.00    +0.000 HD
ENDBRANCH  20  21
ENDBRANCH  19  20
ENDBRANCH  13  19
ENDBRANCH   1  16
TORSDOF 5
ENDMDL
MODEL 7
REMARK VINA RESULT:    -6.124      2.795      3.811
REMARK INTER + INTRA:          -8.374
REMARK INTER:                  -7.760
REMARK INTRA:                  -0.613
REMARK UNBOUND:                -0.639
REMARK  Name = 
REMARK  5 active torsions:
REMARK  status: ('A' for Active; 'I' for Inactive)
REMARK    1  A    between atoms: N_1  and  C_2
REMARK    2  A    between atoms: C_2  and  C_3
REMARK    3  A    between atoms: C_3  and  C_4
REMARK    4  A    between atoms: C_7  and  C_8
REMARK    5  A    between atoms: C_8  and  C_9
REMARK                            x       y       z     vdW  Elec       q    Type
REMARK                         _______ _______ _______ _____ _____    ______ ____
ROOT
ATOM      1  C   UNL     1      45.826   5.958  13.015  0.00  0.00    +0.000 C 
ENDROOT
BRANCH   1   2
ATOM      2  C   UNL     1      47.172   6.596  12.930  0.00  0.00    +0.000 A 
ATOM      3  N   UNL     1      48.284   5.858  13.073  0.00  0.00    +0.000 NA
ATOM      4  N   UNL     1      49.285   6.729  12.846  0.00  0.00    +0.000 N 
ATOM      5  C   UNL     1      48.868   7.989  12.521  0.00  0.00    +0.000 A 
ATOM      6  C   UNL     1      49.572   9.140  12.165  0.00  0.00    +0.000 A 
ATOM      7 CL   UNL     1      51.286   9.143  12.063  0.00  0.00    +0.000 Cl
ATOM      8  C   UNL     1      48.838  10.293  11.875  0.00  0.00    +0.000 A 
ATOM      9  C   UNL     1      47.445  10.285  11.947  0.00  0.00    +0.000 A 
ATOM     10  C   UNL     1      46.752   9.119  12.303  0.00  0.00    +0.000 A 
ATOM     11  C   UNL     1      47.480   7.948  12.590  0.00  0.00    +0.000 A 
ATOM     12  H   UNL     1      50.238   6.394  12.902  0.00  0.00    +0.000 HD
ENDBRANCH   1   2
BRANCH   1  16
ATOM     13  C   UNL     1      45.089   4.052   9.267  0.00  0.00    +0.000 A 
ATOM     14  C   UNL     1      44.790   3.352  10.432  0.00  0.00    +0.000 A 
ATOM     15  C   UNL     1      45.032   3.956  11.665  0.00  0.00    +0.000 A 
ATOM     16  C   UNL     1      45.575   5.243  11.715  0.00  0.00    +0.000 A 
ATOM     17  C   UNL     1      45.850   5.859  10.498  0.00  0.00    +0.000 A 
ATOM     18  N   UNL     1      45.618   5.297   9.288  0.00  0.00    +0.000 NA
BRANCH  13  19
ATOM     19  C   UNL     1      44.857   3.429   7.914  0.00  0.00    +0.000 C 
BRANCH  19  20
ATOM     20  C   UNL     1      46.177   3.020   7.258  0.00  0.00    +0.000 C 
BRANCH  20  21
ATOM     21  N   UNL     1      46.816   4.159   6.590  0.00  0.00    +0.000 NA
ATOM     22  H   UNL     1      46.506   5.021   7.039  0.00  0.00    +0.000 HD
ATOM     23  H   UNL     1      46.479   4.211   5.629  0.00  0.00    +0.000 HD
ENDBRANCH  20  21
ENDBRANCH  19  20
ENDBRANCH  13  19
ENDBRANCH   1  16
TORSDOF 5
ENDMDL
MODEL 8
REMARK VINA RESULT:    -5.853      5.415      7.680
REMARK INTER + INTRA:          -8.031
REMARK INTER:                  -7.322
REMARK INTRA:                  -0.709
REMARK UNBOUND:                -0.639
REMARK  Name = 
REMARK  5 active torsions:
REMARK  status: ('A' for Active; 'I' for Inactive)
REMARK    1  A    between atoms: N_1  and  C_2
REMARK    2  A    between atoms: C_2  and  C_3
REMARK    3  A    between atoms: C_3  and  C_4
REMARK    4  A    between atoms: C_7  and  C_8
REMARK    5  A    between atoms: C_8  and  C_9
REMARK                            x       y       z     vdW  Elec       q    Type
REMARK                         _______ _______ _______ _____ _____    ______ ____
ROOT
ATOM      1  C   UNL     1      47.545   3.455  16.919  0.00  0.00    +0.000 C 
ENDROOT
BRANCH   1   2
ATOM      2  C   UNL     1      48.892   2.822  17.024  0.00  0.00    +0.000 A 
ATOM      3  N   UNL     1      49.200   1.752  16.274  0.00  0.00    +0.000 NA
ATOM      4  N   UNL     1      50.495   1.518  16.555  0.00  0.00    +0.000 N 
ATOM      5  C   UNL     1      51.050   2.415  17.423  0.00  0.00    +0.000 A 
ATOM      6  C   UNL     1      52.350   2.554  17.914  0.00  0.00    +0.000 A 
ATOM      7 CL   UNL     1      53.605   1.487  17.434  0.00  0.00    +0.000 Cl
ATOM      8  C   UNL     1      52.605   3.605  18.800  0.00  0.00    +0.000 A 
ATOM      9  C   UNL     1      51.586   4.478  19.179  0.00  0.00    +0.000 A 
ATOM     10  C   UNL     1      50.287   4.327  18.674  0.00  0.00    +0.000 A 
ATOM     11  C   UNL     1      50.018   3.277  17.775  0.00  0.00    +0.000 A 
ATOM     12  H   UNL     1      50.956   0.740  16.100  0.00  0.00    +0.000 HD
ENDBRANCH   1   2
BRANCH   1  16
ATOM     13  C   UNL     1      47.614   6.176  13.630  0.00  0.00    +0.000 A 
ATOM     14  C   UNL     1      46.852   5.018  13.511  0.00  0.00    +0.000 A 
ATOM     15  C   UNL     1      46.825   4.113  14.572  0.00  0.00    +0.000 A 
ATOM     16  C   UNL     1      47.563   4.376  15.729  0.00  0.00    +0.000 A 
ATOM     17  C   UNL     1      48.302   5.555  15.752  0.00  0.00    +0.000 A 
ATOM     18  N   UNL     1      48.341   6.452  14.738  0.00  0.00    +0.000 NA
BRANCH  13  19
ATOM     19  C   UNL     1      47.684   7.172  12.501  0.00  0.00    +0.000 C 
BRANCH  19  20
ATOM     20  C   UNL     1      46.594   8.238  12.634  0.00  0.00    +0.000 C 
BRANCH  20  21
ATOM     21  N   UNL     1      46.622   8.866  13.958  0.00  0.00    +0.000 NA
ATOM     22  H   UNL     1      47.475   8.581  14.441  0.00  0.00    +0.000 HD
ATOM     23  H   UNL     1      45.852   8.497  14.517  0.00  0.00    +0.000 HD
ENDBRANCH  20  21
ENDBRANCH  19  20
ENDBRANCH  13  19
ENDBRANCH   1  16
TORSDOF 5
ENDMDL
MODEL 9
REMARK VINA RESULT:    -5.621      3.799      5.977
REMARK INTER + INTRA:          -7.738
REMARK INTER:                  -6.987
REMARK INTRA:                  -0.752
REMARK UNBOUND:                -0.639
REMARK  Name = 
REMARK  5 active torsions:
REMARK  status: ('A' for Active; 'I' for Inactive)
REMARK    1  A    between atoms: N_1  and  C_2
REMARK    2  A    between atoms: C_2  and  C_3
REMARK    3  A    between atoms: C_3  and  C_4
REMARK    4  A    between atoms: C_7  and  C_8
REMARK    5  A    between atoms: C_8  and  C_9
REMARK                            x       y       z     vdW  Elec       q    Type
REMARK                         _______ _______ _______ _____ _____    ______ ____
ROOT
ATOM      1  C   UNL     1      48.787   6.833  13.058  0.00  0.00    +0.000 C 
ENDROOT
BRANCH   1   2
ATOM      2  C   UNL     1      48.510   7.671  14.261  0.00  0.00    +0.000 A 
ATOM      3  N   UNL     1      47.650   8.698  14.190  0.00  0.00    +0.000 NA
ATOM      4  N   UNL     1      47.577   9.152  15.455  0.00  0.00    +0.000 N 
ATOM      5  C   UNL     1      48.321   8.437  16.350  0.00  0.00    +0.000 A 
ATOM      6  C   UNL     1      48.469   8.544  17.734  0.00  0.00    +0.000 A 
ATOM      7 CL   UNL     1      47.627   9.739  18.633  0.00  0.00    +0.000 Cl
ATOM      8  C   UNL     1      49.315   7.633  18.373  0.00  0.00    +0.000 A 
ATOM      9  C   UNL     1      49.990   6.655  17.642  0.00  0.00    +0.000 A 
ATOM     10  C   UNL     1      49.826   6.559  16.253  0.00  0.00    +0.000 A 
ATOM     11  C   UNL     1      48.971   7.465  15.597  0.00  0.00    +0.000 A 
ATOM     12  H   UNL     1      46.978   9.944  15.650  0.00  0.00    +0.000 HD
ENDBRANCH   1   2
BRANCH   1  16
ATOM     13  C   UNL     1      45.110   5.079  11.785  0.00  0.00    +0.000 A 
ATOM     14  C   UNL     1      45.670   6.080  10.997  0.00  0.00    +0.000 A 
ATOM     15  C   UNL     1      46.866   6.671  11.402  0.00  0.00    +0.000 A 
ATOM     16  C   UNL     1      47.479   6.258  12.589  0.00  0.00    +0.000 A 
ATOM     17  C   UNL     1      46.840   5.257  13.314  0.00  0.00    +0.000 A 
ATOM     18  N   UNL     1      45.681   4.663  12.940  0.00  0.00    +0.000 NA
BRANCH  13  19
ATOM     19  C   UNL     1      43.809   4.426  11.391  0.00  0.00    +0.000 C 
BRANCH  19  20
ATOM     20  C   UNL     1      42.610   5.223  11.909  0.00  0.00    +0.000 C 
BRANCH  20  21
ATOM     21  N   UNL     1      42.805   5.633  13.303  0.00  0.00    +0.000 NA
ATOM     22  H   UNL     1      43.679   5.233  13.646  0.00  0.00    +0.000 HD
ATOM     23  H   UNL     1      42.068   5.219  13.876  0.00  0.00    +0.000 HD
ENDBRANCH  20  21
ENDBRANCH  19  20
ENDBRANCH  13  19
ENDBRANCH   1  16
TORSDOF 5
ENDMDL
