MODEL 1
REMARK VINA RESULT:    -9.316      0.000      0.000
REMARK INTER + INTRA:         -13.886
REMARK INTER:                 -12.583
REMARK INTRA:                  -1.303
REMARK UNBOUND:                -1.303
REMARK  Name = 
REMARK  6 active torsions:
REMARK  status: ('A' for Active; 'I' for Inactive)
REMARK    1  A    between atoms: C_2  and  C_4
REMARK    2  A    between atoms: C_7  and  O_8
REMARK    3  A    between atoms: O_8  and  C_9
REMARK    4  A    between atoms: C_9  and  C_10
REMARK    5  A    between atoms: C_10  and  C_13
REMARK    6  A    between atoms: C_17  and  C_18
REMARK                            x       y       z     vdW  Elec       q    Type
REMARK                         _______ _______ _______ _____ _____    ______ ____
ROOT
ATOM      1  C   UNL     1      43.327   4.496  12.693  0.00  0.00    +0.000 C 
ATOM      2  F   UNL     1      42.326   5.420  12.581  0.00  0.00    +0.000 F 
ATOM      3  F   UNL     1      42.992   3.715  13.760  0.00  0.00    +0.000 F 
ENDROOT
BRANCH   1   4
ATOM      4  C   UNL     1      44.684   5.161  12.877  0.00  0.00    +0.000 A 
ATOM      5  C   UNL     1      45.847   4.422  13.139  0.00  0.00    +0.000 A 
ATOM      6  C   UNL     1      47.086   5.062  13.238  0.00  0.00    +0.000 A 
ATOM      7  C   UNL     1      47.183   6.436  13.020  0.00  0.00    +0.000 A 
ATOM      8  C   UNL     1      46.049   7.193  12.700  0.00  0.00    +0.000 A 
ATOM      9  C   UNL     1      44.797   6.546  12.695  0.00  0.00    +0.000 A 
BRANCH   8  10
ATOM     10  C   UNL     1      46.169   8.606  12.304  0.00  0.00    +0.000 A 
ATOM     11  C   UNL     1      47.427   9.223  12.191  0.00  0.00    +0.000 A 
ATOM     12  C   UNL     1      47.547  10.567  11.841  0.00  0.00    +0.000 A 
ATOM     13  C   UNL     1      46.406  11.321  11.600  0.00  0.00    +0.000 A 
ATOM     14  C   UNL     1      45.159  10.732  11.722  0.00  0.00    +0.000 A 
ATOM     15  F   UNL     1      44.057  11.460  11.492  0.00  0.00    +0.000 F 
ATOM     16  C   UNL     1      45.027   9.395  12.079  0.00  0.00    +0.000 A 
ENDBRANCH   8  10
ENDBRANCH   1   4
BRANCH   1  17
ATOM     17  C   UNL     1      43.329   3.630  11.419  0.00  0.00    +0.000 C 
BRANCH  17  18
ATOM     18  O   UNL     1      43.669   4.404  10.256  0.00  0.00    +0.000 OA
BRANCH  18  22
ATOM     19  C   UNL     1      46.421   2.471   7.783  0.00  0.00    +0.000 A 
ATOM     20  C   UNL     1      46.289   3.859   7.680  0.00  0.00    +0.000 A 
ATOM     21  C   UNL     1      45.372   4.539   8.486  0.00  0.00    +0.000 A 
ATOM     22  C   UNL     1      44.580   3.840   9.402  0.00  0.00    +0.000 A 
ATOM     23  C   UNL     1      44.696   2.449   9.482  0.00  0.00    +0.000 A 
ATOM     24  C   UNL     1      45.609   1.763   8.674  0.00  0.00    +0.000 A 
BRANCH  19  26
ATOM     25  N   UNL     1      48.487   2.415   6.502  0.00  0.00    +0.000 N 
ATOM     26  C   UNL     1      47.394   1.726   6.944  0.00  0.00    +0.000 C 
ATOM     27  O   UNL     1      47.239   0.542   6.675  0.00  0.00    +0.000 OA
ATOM     28  H   UNL     1      49.186   1.884   6.008  0.00  0.00    +0.000 HD
ATOM     29  H   UNL     1      48.771   3.303   6.907  0.00  0.00    +0.000 HD
ENDBRANCH  19  26
ENDBRANCH  18  22
ENDBRANCH  17  18
ENDBRANCH   1  17
TORSDOF 6
ENDMDL
MODEL 2
REMARK VINA RESULT:    -9.273      2.263      4.413
REMARK INTER + INTRA:         -13.828
REMARK INTER:                 -12.543
REMARK INTRA:                  -1.285
REMARK UNBOUND:                -1.303
REMARK  Name = 
REMARK  6 active torsions:
REMARK  status: ('A' for Active; 'I' for Inactive)
REMARK    1  A    between atoms: C_2  and  C_4
REMARK    2  A    between atoms: C_7  and  O_8
REMARK    3  A    between atoms: O_8  and  C_9
REMARK    4  A    between atoms: C_9  and  C_10
REMARK    5  A    between atoms: C_10  and  C_13
REMARK    6  A    between atoms: C_17  and  C_18
REMARK                            x       y       z     vdW  Elec       q    Type
REMARK                         _______ _______ _______ _____ _____    ______ ____
ROOT
ATOM      1  C   UNL     1      43.793   5.289  12.111  0.00  0.00    +0.000 C 
ATOM      2  F   UNL     1      43.258   6.219  11.264  0.00  0.00    +0.000 F 
ATOM      3  F   UNL     1      43.025   5.329  13.237  0.00  0.00    +0.000 F 
ENDROOT
BRANCH   1   4
ATOM      4  C   UNL     1      45.257   5.581  12.409  0.00  0.00    +0.000 A 
ATOM      5  C   UNL     1      46.035   6.409  11.587  0.00  0.00    +0.000 A 
ATOM      6  C   UNL     1      47.358   6.705  11.928  0.00  0.00    +0.000 A 
ATOM      7  C   UNL     1      47.898   6.225  13.120  0.00  0.00    +0.000 A 
ATOM      8  C   UNL     1      47.129   5.442  13.991  0.00  0.00    +0.000 A 
ATOM      9  C   UNL     1      45.828   5.079  13.586  0.00  0.00    +0.000 A 
BRANCH   8  10
ATOM     10  C   UNL     1      47.634   5.075  15.324  0.00  0.00    +0.000 A 
ATOM     11  C   UNL     1      48.639   5.830  15.953  0.00  0.00    +0.000 A 
ATOM     12  C   UNL     1      49.140   5.473  17.204  0.00  0.00    +0.000 A 
ATOM     13  C   UNL     1      48.644   4.348  17.849  0.00  0.00    +0.000 A 
ATOM     14  C   UNL     1      47.664   3.584  17.237  0.00  0.00    +0.000 A 
ATOM     15  F   UNL     1      47.187   2.497  17.858  0.00  0.00    +0.000 F 
ATOM     16  C   UNL     1      47.164   3.925  15.986  0.00  0.00    +0.000 A 
ENDBRANCH   8  10
ENDBRANCH   1   4
BRANCH   1  17
ATOM     17  C   UNL     1      43.651   3.902  11.456  0.00  0.00    +0.000 C 
BRANCH  17  18
ATOM     18  O   UNL     1      43.482   4.005  10.032  0.00  0.00    +0.000 OA
BRANCH  18  22
ATOM     19  C   UNL     1      46.545   2.598   7.571  0.00  0.00    +0.000 A 
ATOM     20  C   UNL     1      45.870   1.685   8.386  0.00  0.00    +0.000 A 
ATOM     21  C   UNL     1      44.845   2.122   9.229  0.00  0.00    +0.000 A 
ATOM     22  C   UNL     1      44.484   3.472   9.266  0.00  0.00    +0.000 A 
ATOM     23  C   UNL     1      45.180   4.385   8.469  0.00  0.00    +0.000 A 
ATOM     24  C   UNL     1      46.212   3.955   7.626  0.00  0.00    +0.000 A 
BRANCH  19  26
ATOM     25  N   UNL     1      47.860   2.925   5.552  0.00  0.00    +0.000 N 
ATOM     26  C   UNL     1      47.634   2.159   6.660  0.00  0.00    +0.000 C 
ATOM     27  O   UNL     1      48.315   1.171   6.898  0.00  0.00    +0.000 OA
ATOM     28  H   UNL     1      48.654   2.674   4.985  0.00  0.00    +0.000 HD
ATOM     29  H   UNL     1      47.496   3.869   5.458  0.00  0.00    +0.000 HD
ENDBRANCH  19  26
ENDBRANCH  18  22
ENDBRANCH  17  18
ENDBRANCH   1  17
TORSDOF 6
ENDMDL
MODEL 3
REMARK VINA RESULT:    -8.767      1.841      2.392
REMARK INTER + INTRA:         -13.146
REMARK INTER:                 -11.871
REMARK INTRA:                  -1.274
REMARK UNBOUND:                -1.303
REMARK  Name = 
REMARK  6 active torsions:
REMARK  status: ('A' for Active; 'I' for Inactive)
REMARK    1  A    between atoms: C_2  and  C_4
REMARK    2  A    between atoms: C_7  and  O_8
REMARK    3  A    between atoms: O_8  and  C_9
REMARK    4  A    between atoms: C_9  and  C_10
REMARK    5  A    between atoms: C_10  and  C_13
REMARK    6  A    between atoms: C_17  and  C_18
REMARK                            x       y       z     vdW  Elec       q    Type
REMARK                         _______ _______ _______ _____ _____    ______ ____
ROOT
ATOM      1  C   UNL     1      43.320   5.317  11.932  0.00  0.00    +0.000 C 
ATOM      2  F   UNL     1      42.648   6.506  11.992  0.00  0.00    +0.000 F 
ATOM      3  F   UNL     1      42.558   4.426  12.628  0.00  0.00    +0.000 F 
ENDROOT
BRANCH   1   4
ATOM      4  C   UNL     1      44.724   5.438  12.506  0.00  0.00    +0.000 A 
ATOM      5  C   UNL     1      45.341   4.384  13.196  0.00  0.00    +0.000 A 
ATOM      6  C   UNL     1      46.656   4.510  13.654  0.00  0.00    +0.000 A 
ATOM      7  C   UNL     1      47.386   5.665  13.377  0.00  0.00    +0.000 A 
ATOM      8  C   UNL     1      46.817   6.712  12.640  0.00  0.00    +0.000 A 
ATOM      9  C   UNL     1      45.463   6.604  12.267  0.00  0.00    +0.000 A 
BRANCH   8  10
ATOM     10  C   UNL     1      47.632   7.857  12.200  0.00  0.00    +0.000 A 
ATOM     11  C   UNL     1      47.096   9.155  12.157  0.00  0.00    +0.000 A 
ATOM     12  C   UNL     1      47.854  10.239  11.717  0.00  0.00    +0.000 A 
ATOM     13  C   UNL     1      49.167  10.042  11.309  0.00  0.00    +0.000 A 
ATOM     14  C   UNL     1      49.706   8.767  11.332  0.00  0.00    +0.000 A 
ATOM     15  F   UNL     1      50.972   8.575  10.935  0.00  0.00    +0.000 F 
ATOM     16  C   UNL     1      48.957   7.677  11.759  0.00  0.00    +0.000 A 
ENDBRANCH   8  10
ENDBRANCH   1   4
BRANCH   1  17
ATOM     17  C   UNL     1      43.387   4.874  10.457  0.00  0.00    +0.000 C 
BRANCH  17  18
ATOM     18  O   UNL     1      43.659   3.467  10.341  0.00  0.00    +0.000 OA
BRANCH  18  22
ATOM     19  C   UNL     1      46.552   2.619   7.454  0.00  0.00    +0.000 A 
ATOM     20  C   UNL     1      45.988   1.558   8.167  0.00  0.00    +0.000 A 
ATOM     21  C   UNL     1      45.023   1.804   9.147  0.00  0.00    +0.000 A 
ATOM     22  C   UNL     1      44.612   3.112   9.423  0.00  0.00    +0.000 A 
ATOM     23  C   UNL     1      45.198   4.172   8.726  0.00  0.00    +0.000 A 
ATOM     24  C   UNL     1      46.168   3.932   7.747  0.00  0.00    +0.000 A 
BRANCH  19  26
ATOM     25  N   UNL     1      47.411   3.049   5.220  0.00  0.00    +0.000 N 
ATOM     26  C   UNL     1      47.574   2.384   6.402  0.00  0.00    +0.000 C 
ATOM     27  O   UNL     1      48.532   1.645   6.587  0.00  0.00    +0.000 OA
ATOM     28  H   UNL     1      48.151   2.955   4.543  0.00  0.00    +0.000 HD
ATOM     29  H   UNL     1      46.786   3.846   5.125  0.00  0.00    +0.000 HD
ENDBRANCH  19  26
ENDBRANCH  18  22
ENDBRANCH  17  18
ENDBRANCH   1  17
TORSDOF 6
ENDMDL
MODEL 4
REMARK VINA RESULT:    -8.349      2.371      3.651
REMARK INTER + INTRA:         -12.580
REMARK INTER:                 -11.315
REMARK INTRA:                  -1.266
REMARK UNBOUND:                -1.303
REMARK  Name = 
REMARK  6 active torsions:
REMARK  status: ('A' for Active; 'I' for Inactive)
REMARK    1  A    between atoms: C_2  and  C_4
REMARK    2  A    between atoms: C_7  and  O_8
REMARK    3  A    between atoms: O_8  and  C_9
REMARK    4  A    between atoms: C_9  and  C_10
REMARK    5  A    between atoms: C_10  and  C_13
REMARK    6  A    between atoms: C_17  and  C_18
REMARK                            x       y       z     vdW  Elec       q    Type
REMARK                         _______ _______ _______ _____ _____    ______ ____
ROOT
ATOM      1  C   UNL     1      43.583   4.316  12.409  0.00  0.00    +0.000 C 
ATOM      2  F   UNL     1      42.427   4.768  11.836  0.00  0.00    +0.000 F 
ATOM      3  F   UNL     1      43.260   4.002  13.696  0.00  0.00    +0.000 F 
ENDROOT
BRANCH   1   4
ATOM      4  C   UNL     1      44.688   5.360  12.338  0.00  0.00    +0.000 A 
ATOM      5  C   UNL     1      44.603   6.481  11.499  0.00  0.00    +0.000 A 
ATOM      6  C   UNL     1      45.609   7.451  11.508  0.00  0.00    +0.000 A 
ATOM      7  C   UNL     1      46.679   7.342  12.395  0.00  0.00    +0.000 A 
ATOM      8  C   UNL     1      46.764   6.265  13.286  0.00  0.00    +0.000 A 
ATOM      9  C   UNL     1      45.789   5.251  13.198  0.00  0.00    +0.000 A 
BRANCH   8  10
ATOM     10  C   UNL     1      47.795   6.231  14.336  0.00  0.00    +0.000 A 
ATOM     11  C   UNL     1      47.665   5.389  15.454  0.00  0.00    +0.000 A 
ATOM     12  C   UNL     1      48.625   5.371  16.465  0.00  0.00    +0.000 A 
ATOM     13  C   UNL     1      49.735   6.200  16.375  0.00  0.00    +0.000 A 
ATOM     14  C   UNL     1      49.872   7.046  15.288  0.00  0.00    +0.000 A 
ATOM     15  F   UNL     1      50.942   7.848  15.202  0.00  0.00    +0.000 F 
ATOM     16  C   UNL     1      48.916   7.079  14.279  0.00  0.00    +0.000 A 
ENDBRANCH   8  10
ENDBRANCH   1   4
BRANCH   1  17
ATOM     17  C   UNL     1      44.017   3.034  11.674  0.00  0.00    +0.000 C 
BRANCH  17  18
ATOM     18  O   UNL     1      43.556   3.025  10.312  0.00  0.00    +0.000 OA
BRANCH  18  22
ATOM     19  C   UNL     1      46.426   2.757   7.293  0.00  0.00    +0.000 A 
ATOM     20  C   UNL     1      46.122   1.609   8.030  0.00  0.00    +0.000 A 
ATOM     21  C   UNL     1      45.173   1.663   9.054  0.00  0.00    +0.000 A 
ATOM     22  C   UNL     1      44.518   2.862   9.351  0.00  0.00    +0.000 A 
ATOM     23  C   UNL     1      44.845   4.014   8.629  0.00  0.00    +0.000 A 
ATOM     24  C   UNL     1      45.798   3.967   7.606  0.00  0.00    +0.000 A 
BRANCH  19  26
ATOM     25  N   UNL     1      48.709   2.402   6.535  0.00  0.00    +0.000 N 
ATOM     26  C   UNL     1      47.426   2.725   6.195  0.00  0.00    +0.000 C 
ATOM     27  O   UNL     1      47.116   2.955   5.034  0.00  0.00    +0.000 OA
ATOM     28  H   UNL     1      49.363   2.296   5.776  0.00  0.00    +0.000 HD
ATOM     29  H   UNL     1      48.944   1.966   7.423  0.00  0.00    +0.000 HD
ENDBRANCH  19  26
ENDBRANCH  18  22
ENDBRANCH  17  18
ENDBRANCH   1  17
TORSDOF 6
ENDMDL
MODEL 5
REMARK VINA RESULT:    -8.161      2.370      3.250
REMARK INTER + INTRA:         -12.327
REMARK INTER:                 -11.265
REMARK INTRA:                  -1.062
REMARK UNBOUND:                -1.303
REMARK  Name = 
REMARK  6 active torsions:
REMARK  status: ('A' for Active; 'I' for Inactive)
REMARK    1  A    between atoms: C_2  and  C_4
REMARK    2  A    between atoms: C_7  and  O_8
REMARK    3  A    between atoms: O_8  and  C_9
REMARK    4  A    between atoms: C_9  and  C_10
REMARK    5  A    between atoms: C_10  and  C_13
REMARK    6  A    between atoms: C_17  and  C_18
REMARK                            x       y       z     vdW  Elec       q    Type
REMARK                         _______ _______ _______ _____ _____    ______ ____
ROOT
ATOM      1  C   UNL     1      44.782   4.614  12.392  0.00  0.00    +0.000 C 
ATOM      2  F   UNL     1      44.370   4.468  13.686  0.00  0.00    +0.000 F 
ATOM      3  F   UNL     1      45.762   3.684  12.208  0.00  0.00    +0.000 F 
ENDROOT
BRANCH   1   4
ATOM      4  C   UNL     1      45.279   6.027  12.120  0.00  0.00    +0.000 A 
ATOM      5  C   UNL     1      44.400   7.104  11.930  0.00  0.00    +0.000 A 
ATOM      6  C   UNL     1      44.894   8.398  11.747  0.00  0.00    +0.000 A 
ATOM      7  C   UNL     1      46.266   8.639  11.808  0.00  0.00    +0.000 A 
ATOM      8  C   UNL     1      47.166   7.595  12.052  0.00  0.00    +0.000 A 
ATOM      9  C   UNL     1      46.657   6.284  12.144  0.00  0.00    +0.000 A 
BRANCH   8  10
ATOM     10  C   UNL     1      48.595   7.866  12.286  0.00  0.00    +0.000 A 
ATOM     11  C   UNL     1      49.048   8.352  13.524  0.00  0.00    +0.000 A 
ATOM     12  C   UNL     1      50.395   8.636  13.743  0.00  0.00    +0.000 A 
ATOM     13  C   UNL     1      51.316   8.439  12.723  0.00  0.00    +0.000 A 
ATOM     14  C   UNL     1      50.884   7.975  11.492  0.00  0.00    +0.000 A 
ATOM     15  F   UNL     1      51.771   7.788  10.505  0.00  0.00    +0.000 F 
ATOM     16  C   UNL     1      49.542   7.698  11.259  0.00  0.00    +0.000 A 
ENDBRANCH   8  10
ENDBRANCH   1   4
BRANCH   1  17
ATOM     17  C   UNL     1      43.596   4.282  11.467  0.00  0.00    +0.000 C 
BRANCH  17  18
ATOM     18  O   UNL     1      43.849   4.701  10.114  0.00  0.00    +0.000 OA
BRANCH  18  22
ATOM     19  C   UNL     1      46.441   2.452   7.739  0.00  0.00    +0.000 A 
ATOM     20  C   UNL     1      45.579   1.779   8.609  0.00  0.00    +0.000 A 
ATOM     21  C   UNL     1      44.704   2.500   9.425  0.00  0.00    +0.000 A 
ATOM     22  C   UNL     1      44.680   3.897   9.380  0.00  0.00    +0.000 A 
ATOM     23  C   UNL     1      45.563   4.566   8.528  0.00  0.00    +0.000 A 
ATOM     24  C   UNL     1      46.446   3.850   7.711  0.00  0.00    +0.000 A 
BRANCH  19  26
ATOM     25  N   UNL     1      48.408   2.421   6.308  0.00  0.00    +0.000 N 
ATOM     26  C   UNL     1      47.377   1.710   6.854  0.00  0.00    +0.000 C 
ATOM     27  O   UNL     1      47.248   0.513   6.639  0.00  0.00    +0.000 OA
ATOM     28  H   UNL     1      49.088   1.897   5.781  0.00  0.00    +0.000 HD
ATOM     29  H   UNL     1      48.687   3.333   6.660  0.00  0.00    +0.000 HD
ENDBRANCH  19  26
ENDBRANCH  18  22
ENDBRANCH  17  18
ENDBRANCH   1  17
TORSDOF 6
ENDMDL
MODEL 6
REMARK VINA RESULT:    -7.982      3.993      7.627
REMARK INTER + INTRA:         -12.085
REMARK INTER:                 -11.063
REMARK INTRA:                  -1.022
REMARK UNBOUND:                -1.303
REMARK  Name = 
REMARK  6 active torsions:
REMARK  status: ('A' for Active; 'I' for Inactive)
REMARK    1  A    between atoms: C_2  and  C_4
REMARK    2  A    between atoms: C_7  and  O_8
REMARK    3  A    between atoms: O_8  and  C_9
REMARK    4  A    between atoms: C_9  and  C_10
REMARK    5  A    between atoms: C_10  and  C_13
REMARK    6  A    between atoms: C_17  and  C_18
REMARK                            x       y       z     vdW  Elec       q    Type
REMARK                         _______ _______ _______ _____ _____    ______ ____
ROOT
ATOM      1  C   UNL     1      45.958   7.418  12.022  0.00  0.00    +0.000 C 
ATOM      2  F   UNL     1      45.499   7.783  13.257  0.00  0.00    +0.000 F 
ATOM      3  F   UNL     1      45.895   8.544  11.256  0.00  0.00    +0.000 F 
ENDROOT
BRANCH   1   4
ATOM      4  C   UNL     1      45.135   6.281  11.434  0.00  0.00    +0.000 A 
ATOM      5  C   UNL     1      43.754   6.166  11.655  0.00  0.00    +0.000 A 
ATOM      6  C   UNL     1      43.021   5.145  11.045  0.00  0.00    +0.000 A 
ATOM      7  C   UNL     1      43.646   4.264  10.164  0.00  0.00    +0.000 A 
ATOM      8  C   UNL     1      45.012   4.387   9.877  0.00  0.00    +0.000 A 
ATOM      9  C   UNL     1      45.752   5.365  10.571  0.00  0.00    +0.000 A 
BRANCH   8  10
ATOM     10  C   UNL     1      45.640   3.572   8.824  0.00  0.00    +0.000 A 
ATOM     11  C   UNL     1      46.186   4.168   7.673  0.00  0.00    +0.000 A 
ATOM     12  C   UNL     1      46.759   3.400   6.661  0.00  0.00    +0.000 A 
ATOM     13  C   UNL     1      46.795   2.017   6.781  0.00  0.00    +0.000 A 
ATOM     14  C   UNL     1      46.249   1.413   7.901  0.00  0.00    +0.000 A 
ATOM     15  F   UNL     1      46.280   0.078   8.016  0.00  0.00    +0.000 F 
ATOM     16  C   UNL     1      45.666   2.168   8.912  0.00  0.00    +0.000 A 
ENDBRANCH   8  10
ENDBRANCH   1   4
BRANCH   1  17
ATOM     17  C   UNL     1      47.431   6.988  12.162  0.00  0.00    +0.000 C 
BRANCH  17  18
ATOM     18  O   UNL     1      47.956   7.320  13.459  0.00  0.00    +0.000 OA
BRANCH  18  22
ATOM     19  C   UNL     1      47.973   4.414  16.455  0.00  0.00    +0.000 A 
ATOM     20  C   UNL     1      47.193   4.195  15.316  0.00  0.00    +0.000 A 
ATOM     21  C   UNL     1      47.156   5.150  14.296  0.00  0.00    +0.000 A 
ATOM     22  C   UNL     1      47.897   6.330  14.404  0.00  0.00    +0.000 A 
ATOM     23  C   UNL     1      48.655   6.556  15.557  0.00  0.00    +0.000 A 
ATOM     24  C   UNL     1      48.691   5.606  16.584  0.00  0.00    +0.000 A 
BRANCH  19  26
ATOM     25  N   UNL     1      46.920   2.650  17.757  0.00  0.00    +0.000 N 
ATOM     26  C   UNL     1      48.035   3.411  17.550  0.00  0.00    +0.000 C 
ATOM     27  O   UNL     1      49.044   3.255  18.224  0.00  0.00    +0.000 OA
ATOM     28  H   UNL     1      46.997   1.914  18.440  0.00  0.00    +0.000 HD
ATOM     29  H   UNL     1      46.175   2.576  17.069  0.00  0.00    +0.000 HD
ENDBRANCH  19  26
ENDBRANCH  18  22
ENDBRANCH  17  18
ENDBRANCH   1  17
TORSDOF 6
ENDMDL
MODEL 7
REMARK VINA RESULT:    -7.386      4.267      7.675
REMARK INTER + INTRA:         -11.280
REMARK INTER:                  -9.910
REMARK INTRA:                  -1.370
REMARK UNBOUND:                -1.303
REMARK  Name = 
REMARK  6 active torsions:
REMARK  status: ('A' for Active; 'I' for Inactive)
REMARK    1  A    between atoms: C_2  and  C_4
REMARK    2  A    between atoms: C_7  and  O_8
REMARK    3  A    between atoms: O_8  and  C_9
REMARK    4  A    between atoms: C_9  and  C_10
REMARK    5  A    between atoms: C_10  and  C_13
REMARK    6  A    between atoms: C_17  and  C_18
REMARK                            x       y       z     vdW  Elec       q    Type
REMARK                         _______ _______ _______ _____ _____    ______ ____
ROOT
ATOM      1  C   UNL     1      49.048   8.248  12.127  0.00  0.00    +0.000 C 
ATOM      2  F   UNL     1      49.287   9.560  12.423  0.00  0.00    +0.000 F 
ATOM      3  F   UNL     1      49.673   8.017  10.937  0.00  0.00    +0.000 F 
ENDROOT
BRANCH   1   4
ATOM      4  C   UNL     1      47.556   7.954  12.054  0.00  0.00    +0.000 A 
ATOM      5  C   UNL     1      46.590   8.904  12.412  0.00  0.00    +0.000 A 
ATOM      6  C   UNL     1      45.228   8.620  12.271  0.00  0.00    +0.000 A 
ATOM      7  C   UNL     1      44.821   7.407  11.717  0.00  0.00    +0.000 A 
ATOM      8  C   UNL     1      45.762   6.459  11.297  0.00  0.00    +0.000 A 
ATOM      9  C   UNL     1      47.126   6.726  11.531  0.00  0.00    +0.000 A 
BRANCH   8  10
ATOM     10  C   UNL     1      45.345   5.254  10.560  0.00  0.00    +0.000 A 
ATOM     11  C   UNL     1      45.711   5.063   9.216  0.00  0.00    +0.000 A 
ATOM     12  C   UNL     1      45.298   3.938   8.505  0.00  0.00    +0.000 A 
ATOM     13  C   UNL     1      44.508   2.980   9.127  0.00  0.00    +0.000 A 
ATOM     14  C   UNL     1      44.127   3.160  10.446  0.00  0.00    +0.000 A 
ATOM     15  F   UNL     1      43.362   2.238  11.047  0.00  0.00    +0.000 F 
ATOM     16  C   UNL     1      44.525   4.283  11.162  0.00  0.00    +0.000 A 
ENDBRANCH   8  10
ENDBRANCH   1   4
BRANCH   1  17
ATOM     17  C   UNL     1      49.706   7.379  13.216  0.00  0.00    +0.000 C 
BRANCH  17  18
ATOM     18  O   UNL     1      49.270   7.763  14.532  0.00  0.00    +0.000 OA
BRANCH  18  22
ATOM     19  C   UNL     1      48.058   4.595  16.964  0.00  0.00    +0.000 A 
ATOM     20  C   UNL     1      49.049   5.459  17.437  0.00  0.00    +0.000 A 
ATOM     21  C   UNL     1      49.486   6.525  16.647  0.00  0.00    +0.000 A 
ATOM     22  C   UNL     1      48.937   6.739  15.379  0.00  0.00    +0.000 A 
ATOM     23  C   UNL     1      47.966   5.856  14.899  0.00  0.00    +0.000 A 
ATOM     24  C   UNL     1      47.528   4.783  15.684  0.00  0.00    +0.000 A 
BRANCH  19  26
ATOM     25  N   UNL     1      48.256   3.187  18.937  0.00  0.00    +0.000 N 
ATOM     26  C   UNL     1      47.571   3.458  17.786  0.00  0.00    +0.000 C 
ATOM     27  O   UNL     1      46.588   2.804  17.465  0.00  0.00    +0.000 OA
ATOM     28  H   UNL     1      47.871   2.473  19.534  0.00  0.00    +0.000 HD
ATOM     29  H   UNL     1      48.903   3.851  19.355  0.00  0.00    +0.000 HD
ENDBRANCH  19  26
ENDBRANCH  18  22
ENDBRANCH  17  18
ENDBRANCH   1  17
TORSDOF 6
ENDMDL
MODEL 8
REMARK VINA RESULT:    -7.027      3.728      6.510
REMARK INTER + INTRA:         -10.795
REMARK INTER:                  -9.300
REMARK INTRA:                  -1.495
REMARK UNBOUND:                -1.303
REMARK  Name = 
REMARK  6 active torsions:
REMARK  status: ('A' for Active; 'I' for Inactive)
REMARK    1  A    between atoms: C_2  and  C_4
REMARK    2  A    between atoms: C_7  and  O_8
REMARK    3  A    between atoms: O_8  and  C_9
REMARK    4  A    between atoms: C_9  and  C_10
REMARK    5  A    between atoms: C_10  and  C_13
REMARK    6  A    between atoms: C_17  and  C_18
REMARK                            x       y       z     vdW  Elec       q    Type
REMARK                         _______ _______ _______ _____ _____    ______ ____
ROOT
ATOM      1  C   UNL     1      48.271   8.216  12.484  0.00  0.00    +0.000 C 
ATOM      2  F   UNL     1      48.611   7.021  11.917  0.00  0.00    +0.000 F 
ATOM      3  F   UNL     1      49.030   9.156  11.852  0.00  0.00    +0.000 F 
ENDROOT
BRANCH   1   4
ATOM      4  C   UNL     1      48.508   8.210  13.988  0.00  0.00    +0.000 A 
ATOM      5  C   UNL     1      48.378   9.367  14.769  0.00  0.00    +0.000 A 
ATOM      6  C   UNL     1      48.541   9.308  16.156  0.00  0.00    +0.000 A 
ATOM      7  C   UNL     1      48.777   8.085  16.782  0.00  0.00    +0.000 A 
ATOM      8  C   UNL     1      48.856   6.902  16.036  0.00  0.00    +0.000 A 
ATOM      9  C   UNL     1      48.780   6.995  14.632  0.00  0.00    +0.000 A 
BRANCH   8  10
ATOM     10  C   UNL     1      48.936   5.591  16.702  0.00  0.00    +0.000 A 
ATOM     11  C   UNL     1      50.148   5.122  17.238  0.00  0.00    +0.000 A 
ATOM     12  C   UNL     1      50.236   3.872  17.847  0.00  0.00    +0.000 A 
ATOM     13  C   UNL     1      49.110   3.064  17.929  0.00  0.00    +0.000 A 
ATOM     14  C   UNL     1      47.911   3.505  17.394  0.00  0.00    +0.000 A 
ATOM     15  F   UNL     1      46.824   2.724  17.470  0.00  0.00    +0.000 F 
ATOM     16  C   UNL     1      47.813   4.746  16.776  0.00  0.00    +0.000 A 
ENDBRANCH   8  10
ENDBRANCH   1   4
BRANCH   1  17
ATOM     17  C   UNL     1      46.784   8.488  12.184  0.00  0.00    +0.000 C 
BRANCH  17  18
ATOM     18  O   UNL     1      45.924   7.772  13.087  0.00  0.00    +0.000 OA
BRANCH  18  22
ATOM     19  C   UNL     1      44.486   4.140  11.620  0.00  0.00    +0.000 A 
ATOM     20  C   UNL     1      45.149   4.148  12.850  0.00  0.00    +0.000 A 
ATOM     21  C   UNL     1      45.651   5.344  13.368  0.00  0.00    +0.000 A 
ATOM     22  C   UNL     1      45.496   6.542  12.665  0.00  0.00    +0.000 A 
ATOM     23  C   UNL     1      44.855   6.524  11.422  0.00  0.00    +0.000 A 
ATOM     24  C   UNL     1      44.355   5.329  10.896  0.00  0.00    +0.000 A 
BRANCH  19  26
ATOM     25  N   UNL     1      44.619   2.325  10.007  0.00  0.00    +0.000 N 
ATOM     26  C   UNL     1      43.935   2.883  11.050  0.00  0.00    +0.000 C 
ATOM     27  O   UNL     1      42.928   2.356  11.503  0.00  0.00    +0.000 OA
ATOM     28  H   UNL     1      44.293   1.429   9.682  0.00  0.00    +0.000 HD
ATOM     29  H   UNL     1      45.574   2.588   9.778  0.00  0.00    +0.000 HD
ENDBRANCH  19  26
ENDBRANCH  18  22
ENDBRANCH  17  18
ENDBRANCH   1  17
TORSDOF 6
ENDMDL
MODEL 9
REMARK VINA RESULT:    -6.708      6.207      8.750
REMARK INTER + INTRA:         -10.364
REMARK INTER:                  -9.440
REMARK INTRA:                  -0.923
REMARK UNBOUND:                -1.303
REMARK  Name = 
REMARK  6 active torsions:
REMARK  status: ('A' for Active; 'I' for Inactive)
REMARK    1  A    between atoms: C_2  and  C_4
REMARK    2  A    between atoms: C_7  and  O_8
REMARK    3  A    between atoms: O_8  and  C_9
REMARK    4  A    between atoms: C_9  and  C_10
REMARK    5  A    between atoms: C_10  and  C_13
REMARK    6  A    between atoms: C_17  and  C_18
REMARK                            x       y       z     vdW  Elec       q    Type
REMARK                         _______ _______ _______ _____ _____    ______ ____
ROOT
ATOM      1  C   UNL     1      47.904   3.108  16.821  0.00  0.00    +0.000 C 
ATOM      2  F   UNL     1      47.006   2.518  17.665  0.00  0.00    +0.000 F 
ATOM      3  F   UNL     1      48.240   2.151  15.910  0.00  0.00    +0.000 F 
ENDROOT
BRANCH   1   4
ATOM      4  C   UNL     1      49.119   3.630  17.574  0.00  0.00    +0.000 A 
ATOM      5  C   UNL     1      49.012   4.585  18.595  0.00  0.00    +0.000 A 
ATOM      6  C   UNL     1      50.143   4.993  19.308  0.00  0.00    +0.000 A 
ATOM      7  C   UNL     1      51.382   4.409  19.046  0.00  0.00    +0.000 A 
ATOM      8  C   UNL     1      51.513   3.412  18.072  0.00  0.00    +0.000 A 
ATOM      9  C   UNL     1      50.380   3.080  17.303  0.00  0.00    +0.000 A 
BRANCH   8  10
ATOM     10  C   UNL     1      52.777   2.675  17.909  0.00  0.00    +0.000 A 
ATOM     11  C   UNL     1      54.007   3.351  17.832  0.00  0.00    +0.000 A 
ATOM     12  C   UNL     1      55.205   2.662  17.652  0.00  0.00    +0.000 A 
ATOM     13  C   UNL     1      55.194   1.277  17.543  0.00  0.00    +0.000 A 
ATOM     14  C   UNL     1      53.989   0.596  17.602  0.00  0.00    +0.000 A 
ATOM     15  F   UNL     1      53.977  -0.739  17.494  0.00  0.00    +0.000 F 
ATOM     16  C   UNL     1      52.788   1.274  17.772  0.00  0.00    +0.000 A 
ENDBRANCH   8  10
ENDBRANCH   1   4
BRANCH   1  17
ATOM     17  C   UNL     1      47.194   4.266  16.094  0.00  0.00    +0.000 C 
BRANCH  17  18
ATOM     18  O   UNL     1      47.696   4.436  14.757  0.00  0.00    +0.000 OA
BRANCH  18  22
ATOM     19  C   UNL     1      44.804   4.873  11.780  0.00  0.00    +0.000 A 
ATOM     20  C   UNL     1      45.198   3.583  12.144  0.00  0.00    +0.000 A 
ATOM     21  C   UNL     1      46.170   3.398  13.131  0.00  0.00    +0.000 A 
ATOM     22  C   UNL     1      46.756   4.499  13.763  0.00  0.00    +0.000 A 
ATOM     23  C   UNL     1      46.377   5.788  13.377  0.00  0.00    +0.000 A 
ATOM     24  C   UNL     1      45.408   5.979  12.386  0.00  0.00    +0.000 A 
BRANCH  19  26
ATOM     25  N   UNL     1      44.024   4.601   9.493  0.00  0.00    +0.000 N 
ATOM     26  C   UNL     1      43.767   5.097  10.740  0.00  0.00    +0.000 C 
ATOM     27  O   UNL     1      42.720   5.680  10.987  0.00  0.00    +0.000 OA
ATOM     28  H   UNL     1      43.282   4.678   8.816  0.00  0.00    +0.000 HD
ATOM     29  H   UNL     1      44.747   3.908   9.321  0.00  0.00    +0.000 HD
ENDBRANCH  19  26
ENDBRANCH  18  22
ENDBRANCH  17  18
ENDBRANCH   1  17
TORSDOF 6
ENDMDL
