MODEL 1
REMARK VINA RESULT:    -7.804      0.000      0.000
REMARK INTER + INTRA:         -11.293
REMARK INTER:                 -10.541
REMARK INTRA:                  -0.752
REMARK UNBOUND:                -0.752
REMARK  Name = 
REMARK  7 active torsions:
REMARK  status: ('A' for Active; 'I' for Inactive)
REMARK    1  A    between atoms: C_1  and  N_2
REMARK    2  A    between atoms: C_6  and  C_7
REMARK    3  A    between atoms: N_9  and  C_10
REMARK    4  A    between atoms: C_10  and  C_11
REMARK    5  A    between atoms: C_14  and  C_15
REMARK    6  A    between atoms: C_15  and  N_16
REMARK    7  A    between atoms: C_17  and  C_19
REMARK                            x       y       z     vdW  Elec       q    Type
REMARK                         _______ _______ _______ _____ _____    ______ ____
ROOT
ATOM      1  C   UNL     1      44.758   4.556  11.813  0.00  0.00    +0.000 A 
ATOM      2  C   UNL     1      44.280   5.853  11.645  0.00  0.00    +0.000 A 
ATOM      3  C   UNL     1      44.997   6.914  12.195  0.00  0.00    +0.000 A 
ATOM      4  C   UNL     1      46.177   6.663  12.896  0.00  0.00    +0.000 A 
ATOM      5  C   UNL     1      46.560   5.335  13.044  0.00  0.00    +0.000 A 
ATOM      6  N   UNL     1      45.886   4.285  12.517  0.00  0.00    +0.000 NA
ENDROOT
BRANCH   1   7
ATOM      7  C   UNL     1      44.015   3.387  11.208  0.00  0.00    +0.000 C 
BRANCH   7  10
ATOM      8  C   UNL     1      45.018   2.927   8.988  0.00  0.00    +0.000 C 
ATOM      9  O   UNL     1      44.529   3.933   8.477  0.00  0.00    +0.000 OA
ATOM     10  N   UNL     1      44.830   2.604  10.309  0.00  0.00    +0.000 N 
ATOM     11  H   UNL     1      45.187   1.702  10.614  0.00  0.00    +0.000 HD
BRANCH   8  17
ATOM     12  C   UNL     1      47.203   3.577   6.880  0.00  0.00    +0.000 C 
ATOM     13  N   UNL     1      46.824   2.261   7.339  0.00  0.00    +0.000 N 
ATOM     14  C   UNL     1      47.381   1.086   6.922  0.00  0.00    +0.000 A 
ATOM     15  C   UNL     1      46.713   0.107   7.617  0.00  0.00    +0.000 A 
ATOM     16  N   UNL     1      45.766   0.659   8.441  0.00  0.00    +0.000 NA
ATOM     17  C   UNL     1      45.851   1.973   8.269  0.00  0.00    +0.000 A 
ENDBRANCH   8  17
ENDBRANCH   7  10
ENDBRANCH   1   7
BRANCH   4  18
ATOM     18  C   UNL     1      46.993   7.771  13.488  0.00  0.00    +0.000 C 
BRANCH  18  19
ATOM     19  N   UNL     1      47.577   7.390  14.748  0.00  0.00    +0.000 N 
ATOM     20  C   UNL     1      48.880   6.981  14.864  0.00  0.00    +0.000 C 
ATOM     21  O   UNL     1      49.635   6.926  13.898  0.00  0.00    +0.000 OA
ATOM     22  H   UNL     1      46.939   7.256  15.526  0.00  0.00    +0.000 HD
BRANCH  20  23
ATOM     23  C   UNL     1      49.351   6.671  16.222  0.00  0.00    +0.000 A 
ATOM     24  C   UNL     1      50.390   7.411  16.770  0.00  0.00    +0.000 A 
ATOM     25  S   UNL     1      50.798   6.949  18.360  0.00  0.00    +0.000 S 
ATOM     26  C   UNL     1      49.626   5.714  18.358  0.00  0.00    +0.000 A 
ATOM     27  N   UNL     1      49.467   4.903  19.439  0.00  0.00    +0.000 NA
ATOM     28  C   UNL     1      48.568   3.987  19.291  0.00  0.00    +0.000 A 
ATOM     29  N   UNL     1      47.806   3.819  18.164  0.00  0.00    +0.000 N 
ATOM     30  C   UNL     1      47.886   4.653  17.075  0.00  0.00    +0.000 A 
ATOM     31  O   UNL     1      47.108   4.544  16.133  0.00  0.00    +0.000 OA
ATOM     32  C   UNL     1      48.914   5.673  17.172  0.00  0.00    +0.000 A 
ATOM     33  H   UNL     1      47.098   3.100  18.123  0.00  0.00    +0.000 HD
ENDBRANCH  20  23
ENDBRANCH  18  19
ENDBRANCH   4  18
TORSDOF 6
ENDMDL
MODEL 2
REMARK VINA RESULT:    -7.482      5.104      9.444
REMARK INTER + INTRA:         -10.859
REMARK INTER:                 -10.052
REMARK INTRA:                  -0.807
REMARK UNBOUND:                -0.752
REMARK  Name = 
REMARK  7 active torsions:
REMARK  status: ('A' for Active; 'I' for Inactive)
REMARK    1  A    between atoms: C_1  and  N_2
REMARK    2  A    between atoms: C_6  and  C_7
REMARK    3  A    between atoms: N_9  and  C_10
REMARK    4  A    between atoms: C_10  and  C_11
REMARK    5  A    between atoms: C_14  and  C_15
REMARK    6  A    between atoms: C_15  and  N_16
REMARK    7  A    between atoms: C_17  and  C_19
REMARK                            x       y       z     vdW  Elec       q    Type
REMARK                         _______ _______ _______ _____ _____    ______ ____
ROOT
ATOM      1  C   UNL     1      51.310   2.731  17.558  0.00  0.00    +0.000 A 
ATOM      2  C   UNL     1      50.756   3.926  18.013  0.00  0.00    +0.000 A 
ATOM      3  C   UNL     1      49.405   4.174  17.785  0.00  0.00    +0.000 A 
ATOM      4  C   UNL     1      48.629   3.228  17.115  0.00  0.00    +0.000 A 
ATOM      5  C   UNL     1      49.273   2.079  16.666  0.00  0.00    +0.000 A 
ATOM      6  N   UNL     1      50.584   1.811  16.876  0.00  0.00    +0.000 NA
ENDROOT
BRANCH   1   7
ATOM      7  C   UNL     1      52.768   2.424  17.809  0.00  0.00    +0.000 C 
BRANCH   7  10
ATOM      8  C   UNL     1      54.187   0.521  18.523  0.00  0.00    +0.000 C 
ATOM      9  O   UNL     1      55.086   1.250  18.936  0.00  0.00    +0.000 OA
ATOM     10  N   UNL     1      53.026   1.014  17.981  0.00  0.00    +0.000 N 
ATOM     11  H   UNL     1      52.388   0.335  17.574  0.00  0.00    +0.000 HD
BRANCH   8  17
ATOM     12  C   UNL     1      55.294  -1.369  16.323  0.00  0.00    +0.000 C 
ATOM     13  N   UNL     1      54.735  -1.772  17.591  0.00  0.00    +0.000 N 
ATOM     14  C   UNL     1      54.616  -3.059  18.032  0.00  0.00    +0.000 A 
ATOM     15  C   UNL     1      54.035  -2.960  19.273  0.00  0.00    +0.000 A 
ATOM     16  N   UNL     1      53.797  -1.649  19.594  0.00  0.00    +0.000 NA
ATOM     17  C   UNL     1      54.238  -0.935  18.564  0.00  0.00    +0.000 A 
ENDBRANCH   8  17
ENDBRANCH   7  10
ENDBRANCH   1   7
BRANCH   4  18
ATOM     18  C   UNL     1      47.168   3.439  16.865  0.00  0.00    +0.000 C 
BRANCH  18  19
ATOM     19  N   UNL     1      46.937   4.442  15.857  0.00  0.00    +0.000 N 
ATOM     20  C   UNL     1      46.981   4.164  14.516  0.00  0.00    +0.000 C 
ATOM     21  O   UNL     1      47.209   3.036  14.091  0.00  0.00    +0.000 OA
ATOM     22  H   UNL     1      46.924   5.408  16.169  0.00  0.00    +0.000 HD
BRANCH  20  23
ATOM     23  C   UNL     1      46.678   5.278  13.606  0.00  0.00    +0.000 A 
ATOM     24  C   UNL     1      47.674   6.193  13.290  0.00  0.00    +0.000 A 
ATOM     25  S   UNL     1      47.172   7.405  12.201  0.00  0.00    +0.000 S 
ATOM     26  C   UNL     1      45.592   6.775  12.144  0.00  0.00    +0.000 A 
ATOM     27  N   UNL     1      44.629   7.375  11.394  0.00  0.00    +0.000 NA
ATOM     28  C   UNL     1      43.467   6.814  11.469  0.00  0.00    +0.000 A 
ATOM     29  N   UNL     1      43.187   5.700  12.216  0.00  0.00    +0.000 N 
ATOM     30  C   UNL     1      44.142   5.023  12.937  0.00  0.00    +0.000 A 
ATOM     31  O   UNL     1      43.881   3.965  13.499  0.00  0.00    +0.000 OA
ATOM     32  C   UNL     1      45.456   5.639  12.924  0.00  0.00    +0.000 A 
ATOM     33  H   UNL     1      42.263   5.293  12.209  0.00  0.00    +0.000 HD
ENDBRANCH  20  23
ENDBRANCH  18  19
ENDBRANCH   4  18
TORSDOF 6
ENDMDL
MODEL 3
REMARK VINA RESULT:    -7.318      2.331      3.380
REMARK INTER + INTRA:         -10.637
REMARK INTER:                  -9.744
REMARK INTRA:                  -0.893
REMARK UNBOUND:                -0.752
REMARK  Name = 
REMARK  7 active torsions:
REMARK  status: ('A' for Active; 'I' for Inactive)
REMARK    1  A    between atoms: C_1  and  N_2
REMARK    2  A    between atoms: C_6  and  C_7
REMARK    3  A    between atoms: N_9  and  C_10
REMARK    4  A    between atoms: C_10  and  C_11
REMARK    5  A    between atoms: C_14  and  C_15
REMARK    6  A    between atoms: C_15  and  N_16
REMARK    7  A    between atoms: C_17  and  C_19
REMARK                            x       y       z     vdW  Elec       q    Type
REMARK                         _______ _______ _______ _____ _____    ______ ____
ROOT
ATOM      1  C   UNL     1      45.870   5.537  11.746  0.00  0.00    +0.000 A 
ATOM      2  C   UNL     1      46.783   6.337  12.430  0.00  0.00    +0.000 A 
ATOM      3  C   UNL     1      47.287   5.896  13.651  0.00  0.00    +0.000 A 
ATOM      4  C   UNL     1      46.877   4.666  14.166  0.00  0.00    +0.000 A 
ATOM      5  C   UNL     1      45.936   3.950  13.433  0.00  0.00    +0.000 A 
ATOM      6  N   UNL     1      45.433   4.353  12.242  0.00  0.00    +0.000 NA
ENDROOT
BRANCH   1   7
ATOM      7  C   UNL     1      45.324   5.978  10.408  0.00  0.00    +0.000 C 
BRANCH   7  10
ATOM      8  C   UNL     1      45.231   4.169   8.716  0.00  0.00    +0.000 C 
ATOM      9  O   UNL     1      44.117   3.791   9.075  0.00  0.00    +0.000 OA
ATOM     10  N   UNL     1      45.873   5.232   9.300  0.00  0.00    +0.000 N 
ATOM     11  H   UNL     1      46.831   5.404   9.006  0.00  0.00    +0.000 HD
BRANCH   8  17
ATOM     12  C   UNL     1      45.911   1.156   8.409  0.00  0.00    +0.000 C 
ATOM     13  N   UNL     1      46.287   2.213   7.500  0.00  0.00    +0.000 N 
ATOM     14  C   UNL     1      46.998   2.049   6.345  0.00  0.00    +0.000 A 
ATOM     15  C   UNL     1      47.118   3.311   5.817  0.00  0.00    +0.000 A 
ATOM     16  N   UNL     1      46.502   4.234   6.623  0.00  0.00    +0.000 NA
ATOM     17  C   UNL     1      45.991   3.549   7.639  0.00  0.00    +0.000 A 
ENDBRANCH   8  17
ENDBRANCH   7  10
ENDBRANCH   1   7
BRANCH   4  18
ATOM     18  C   UNL     1      47.405   4.139  15.465  0.00  0.00    +0.000 C 
BRANCH  18  19
ATOM     19  N   UNL     1      47.376   5.140  16.500  0.00  0.00    +0.000 N 
ATOM     20  C   UNL     1      48.515   5.684  17.033  0.00  0.00    +0.000 C 
ATOM     21  O   UNL     1      49.635   5.358  16.649  0.00  0.00    +0.000 OA
ATOM     22  H   UNL     1      46.484   5.298  16.957  0.00  0.00    +0.000 HD
BRANCH  20  23
ATOM     23  C   UNL     1      48.328   6.730  18.048  0.00  0.00    +0.000 A 
ATOM     24  C   UNL     1      48.273   6.377  19.391  0.00  0.00    +0.000 A 
ATOM     25  S   UNL     1      48.084   7.706  20.442  0.00  0.00    +0.000 S 
ATOM     26  C   UNL     1      48.027   8.798  19.138  0.00  0.00    +0.000 A 
ATOM     27  N   UNL     1      47.852  10.130  19.352  0.00  0.00    +0.000 NA
ATOM     28  C   UNL     1      47.793  10.840  18.274  0.00  0.00    +0.000 A 
ATOM     29  N   UNL     1      47.906  10.339  17.004  0.00  0.00    +0.000 N 
ATOM     30  C   UNL     1      48.148   9.012  16.743  0.00  0.00    +0.000 A 
ATOM     31  O   UNL     1      48.360   8.618  15.600  0.00  0.00    +0.000 OA
ATOM     32  C   UNL     1      48.179   8.162  17.918  0.00  0.00    +0.000 A 
ATOM     33  H   UNL     1      47.879  10.953  16.202  0.00  0.00    +0.000 HD
ENDBRANCH  20  23
ENDBRANCH  18  19
ENDBRANCH   4  18
TORSDOF 6
ENDMDL
MODEL 4
REMARK VINA RESULT:    -7.296      3.218      8.829
REMARK INTER + INTRA:         -10.607
REMARK INTER:                  -9.571
REMARK INTRA:                  -1.036
REMARK UNBOUND:                -0.752
REMARK  Name = 
REMARK  7 active torsions:
REMARK  status: ('A' for Active; 'I' for Inactive)
REMARK    1  A    between atoms: C_1  and  N_2
REMARK    2  A    between atoms: C_6  and  C_7
REMARK    3  A    between atoms: N_9  and  C_10
REMARK    4  A    between atoms: C_10  and  C_11
REMARK    5  A    between atoms: C_14  and  C_15
REMARK    6  A    between atoms: C_15  and  N_16
REMARK    7  A    between atoms: C_17  and  C_19
REMARK                            x       y       z     vdW  Elec       q    Type
REMARK                         _______ _______ _______ _____ _____    ______ ____
ROOT
ATOM      1  C   UNL     1      50.174   7.084  15.540  0.00  0.00    +0.000 A 
ATOM      2  C   UNL     1      50.570   7.989  14.557  0.00  0.00    +0.000 A 
ATOM      3  C   UNL     1      49.754   8.179  13.445  0.00  0.00    +0.000 A 
ATOM      4  C   UNL     1      48.557   7.469  13.334  0.00  0.00    +0.000 A 
ATOM      5  C   UNL     1      48.258   6.562  14.345  0.00  0.00    +0.000 A 
ATOM      6  N   UNL     1      49.032   6.360  15.438  0.00  0.00    +0.000 NA
ENDROOT
BRANCH   1   7
ATOM      7  C   UNL     1      51.028   6.874  16.769  0.00  0.00    +0.000 C 
BRANCH   7  10
ATOM      8  C   UNL     1      51.016   4.673  17.909  0.00  0.00    +0.000 C 
ATOM      9  O   UNL     1      50.163   5.017  18.725  0.00  0.00    +0.000 OA
ATOM     10  N   UNL     1      51.473   5.509  16.920  0.00  0.00    +0.000 N 
ATOM     11  H   UNL     1      52.250   5.170  16.360  0.00  0.00    +0.000 HD
BRANCH   8  17
ATOM     12  C   UNL     1      49.765   2.050  16.815  0.00  0.00    +0.000 C 
ATOM     13  N   UNL     1      51.080   2.192  17.395  0.00  0.00    +0.000 N 
ATOM     14  C   UNL     1      51.993   1.186  17.543  0.00  0.00    +0.000 A 
ATOM     15  C   UNL     1      53.082   1.778  18.135  0.00  0.00    +0.000 A 
ATOM     16  N   UNL     1      52.853   3.112  18.351  0.00  0.00    +0.000 NA
ATOM     17  C   UNL     1      51.632   3.353  17.886  0.00  0.00    +0.000 A 
ENDBRANCH   8  17
ENDBRANCH   7  10
ENDBRANCH   1   7
BRANCH   4  18
ATOM     18  C   UNL     1      47.636   7.654  12.168  0.00  0.00    +0.000 C 
BRANCH  18  19
ATOM     19  N   UNL     1      46.901   6.451  11.870  0.00  0.00    +0.000 N 
ATOM     20  C   UNL     1      45.550   6.343  12.071  0.00  0.00    +0.000 C 
ATOM     21  O   UNL     1      44.879   7.274  12.507  0.00  0.00    +0.000 OA
ATOM     22  H   UNL     1      47.448   5.617  11.680  0.00  0.00    +0.000 HD
BRANCH  20  23
ATOM     23  C   UNL     1      44.929   5.070  11.676  0.00  0.00    +0.000 A 
ATOM     24  C   UNL     1      44.169   4.366  12.601  0.00  0.00    +0.000 A 
ATOM     25  S   UNL     1      43.493   2.929  11.980  0.00  0.00    +0.000 S 
ATOM     26  C   UNL     1      44.226   3.175  10.464  0.00  0.00    +0.000 A 
ATOM     27  N   UNL     1      44.067   2.273   9.458  0.00  0.00    +0.000 NA
ATOM     28  C   UNL     1      44.705   2.565   8.374  0.00  0.00    +0.000 A 
ATOM     29  N   UNL     1      45.478   3.684   8.202  0.00  0.00    +0.000 N 
ATOM     30  C   UNL     1      45.615   4.653   9.167  0.00  0.00    +0.000 A 
ATOM     31  O   UNL     1      46.219   5.696   8.937  0.00  0.00    +0.000 OA
ATOM     32  C   UNL     1      44.954   4.352  10.423  0.00  0.00    +0.000 A 
ATOM     33  H   UNL     1      45.929   3.869   7.318  0.00  0.00    +0.000 HD
ENDBRANCH  20  23
ENDBRANCH  18  19
ENDBRANCH   4  18
TORSDOF 6
ENDMDL
MODEL 5
REMARK VINA RESULT:    -7.224      3.407      5.176
REMARK INTER + INTRA:         -10.510
REMARK INTER:                  -9.665
REMARK INTRA:                  -0.844
REMARK UNBOUND:                -0.752
REMARK  Name = 
REMARK  7 active torsions:
REMARK  status: ('A' for Active; 'I' for Inactive)
REMARK    1  A    between atoms: C_1  and  N_2
REMARK    2  A    between atoms: C_6  and  C_7
REMARK    3  A    between atoms: N_9  and  C_10
REMARK    4  A    between atoms: C_10  and  C_11
REMARK    5  A    between atoms: C_14  and  C_15
REMARK    6  A    between atoms: C_15  and  N_16
REMARK    7  A    between atoms: C_17  and  C_19
REMARK                            x       y       z     vdW  Elec       q    Type
REMARK                         _______ _______ _______ _____ _____    ______ ____
ROOT
ATOM      1  C   UNL     1      47.522   5.639  14.413  0.00  0.00    +0.000 A 
ATOM      2  C   UNL     1      46.874   4.416  14.567  0.00  0.00    +0.000 A 
ATOM      3  C   UNL     1      47.099   3.672  15.723  0.00  0.00    +0.000 A 
ATOM      4  C   UNL     1      47.960   4.163  16.706  0.00  0.00    +0.000 A 
ATOM      5  C   UNL     1      48.590   5.376  16.453  0.00  0.00    +0.000 A 
ATOM      6  N   UNL     1      48.388   6.121  15.340  0.00  0.00    +0.000 NA
ENDROOT
BRANCH   1   7
ATOM      7  C   UNL     1      47.280   6.479  13.180  0.00  0.00    +0.000 C 
BRANCH   7  10
ATOM      8  C   UNL     1      45.599   6.012  11.419  0.00  0.00    +0.000 C 
ATOM      9  O   UNL     1      44.905   6.980  11.722  0.00  0.00    +0.000 OA
ATOM     10  N   UNL     1      46.773   5.713  12.066  0.00  0.00    +0.000 N 
ATOM     11  H   UNL     1      47.222   4.837  11.815  0.00  0.00    +0.000 HD
BRANCH   8  17
ATOM     12  C   UNL     1      43.822   3.475  11.635  0.00  0.00    +0.000 C 
ATOM     13  N   UNL     1      44.478   3.959  10.443  0.00  0.00    +0.000 N 
ATOM     14  C   UNL     1      44.409   3.377   9.209  0.00  0.00    +0.000 A 
ATOM     15  C   UNL     1      45.180   4.172   8.396  0.00  0.00    +0.000 A 
ATOM     16  N   UNL     1      45.715   5.216   9.104  0.00  0.00    +0.000 NA
ATOM     17  C   UNL     1      45.271   5.080  10.349  0.00  0.00    +0.000 A 
ENDBRANCH   8  17
ENDBRANCH   7  10
ENDBRANCH   1   7
BRANCH   4  18
ATOM     18  C   UNL     1      48.218   3.411  17.975  0.00  0.00    +0.000 C 
BRANCH  18  19
ATOM     19  N   UNL     1      49.617   3.112  18.144  0.00  0.00    +0.000 N 
ATOM     20  C   UNL     1      50.298   2.268  17.307  0.00  0.00    +0.000 C 
ATOM     21  O   UNL     1      49.757   1.723  16.348  0.00  0.00    +0.000 OA
ATOM     22  H   UNL     1      50.042   3.401  19.019  0.00  0.00    +0.000 HD
BRANCH  20  23
ATOM     23  C   UNL     1      51.733   2.096  17.575  0.00  0.00    +0.000 A 
ATOM     24  C   UNL     1      52.257   0.815  17.693  0.00  0.00    +0.000 A 
ATOM     25  S   UNL     1      53.939   0.785  17.973  0.00  0.00    +0.000 S 
ATOM     26  C   UNL     1      54.021   2.485  17.989  0.00  0.00    +0.000 A 
ATOM     27  N   UNL     1      55.201   3.124  18.210  0.00  0.00    +0.000 NA
ATOM     28  C   UNL     1      55.115   4.413  18.230  0.00  0.00    +0.000 A 
ATOM     29  N   UNL     1      53.957   5.119  18.036  0.00  0.00    +0.000 N 
ATOM     30  C   UNL     1      52.755   4.519  17.745  0.00  0.00    +0.000 A 
ATOM     31  O   UNL     1      51.765   5.185  17.461  0.00  0.00    +0.000 OA
ATOM     32  C   UNL     1      52.787   3.068  17.755  0.00  0.00    +0.000 A 
ATOM     33  H   UNL     1      53.962   6.129  18.036  0.00  0.00    +0.000 HD
ENDBRANCH  20  23
ENDBRANCH  18  19
ENDBRANCH   4  18
TORSDOF 6
ENDMDL
MODEL 6
REMARK VINA RESULT:    -6.958      3.566      8.468
REMARK INTER + INTRA:         -10.151
REMARK INTER:                  -9.230
REMARK INTRA:                  -0.921
REMARK UNBOUND:                -0.752
REMARK  Name = 
REMARK  7 active torsions:
REMARK  status: ('A' for Active; 'I' for Inactive)
REMARK    1  A    between atoms: C_1  and  N_2
REMARK    2  A    between atoms: C_6  and  C_7
REMARK    3  A    between atoms: N_9  and  C_10
REMARK    4  A    between atoms: C_10  and  C_11
REMARK    5  A    between atoms: C_14  and  C_15
REMARK    6  A    between atoms: C_15  and  N_16
REMARK    7  A    between atoms: C_17  and  C_19
REMARK                            x       y       z     vdW  Elec       q    Type
REMARK                         _______ _______ _______ _____ _____    ______ ____
ROOT
ATOM      1  C   UNL     1      50.017   7.246  15.652  0.00  0.00    +0.000 A 
ATOM      2  C   UNL     1      50.294   8.477  15.062  0.00  0.00    +0.000 A 
ATOM      3  C   UNL     1      49.704   8.787  13.838  0.00  0.00    +0.000 A 
ATOM      4  C   UNL     1      48.848   7.869  13.229  0.00  0.00    +0.000 A 
ATOM      5  C   UNL     1      48.656   6.652  13.873  0.00  0.00    +0.000 A 
ATOM      6  N   UNL     1      49.214   6.325  15.063  0.00  0.00    +0.000 NA
ENDROOT
BRANCH   1   7
ATOM      7  C   UNL     1      50.624   6.890  16.990  0.00  0.00    +0.000 C 
BRANCH   7  10
ATOM      8  C   UNL     1      50.850   4.689  18.107  0.00  0.00    +0.000 C 
ATOM      9  O   UNL     1      50.171   5.027  19.074  0.00  0.00    +0.000 OA
ATOM     10  N   UNL     1      51.100   5.528  17.050  0.00  0.00    +0.000 N 
ATOM     11  H   UNL     1      51.755   5.195  16.348  0.00  0.00    +0.000 HD
BRANCH   8  17
ATOM     12  C   UNL     1      49.573   2.175  16.808  0.00  0.00    +0.000 C 
ATOM     13  N   UNL     1      50.896   2.261  17.381  0.00  0.00    +0.000 N 
ATOM     14  C   UNL     1      51.806   1.243  17.430  0.00  0.00    +0.000 A 
ATOM     15  C   UNL     1      52.906   1.778  18.056  0.00  0.00    +0.000 A 
ATOM     16  N   UNL     1      52.685   3.089  18.389  0.00  0.00    +0.000 NA
ATOM     17  C   UNL     1      51.460   3.374  17.962  0.00  0.00    +0.000 A 
ENDBRANCH   8  17
ENDBRANCH   7  10
ENDBRANCH   1   7
BRANCH   4  18
ATOM     18  C   UNL     1      48.174   8.165  11.925  0.00  0.00    +0.000 C 
BRANCH  18  19
ATOM     19  N   UNL     1      47.478   7.014  11.409  0.00  0.00    +0.000 N 
ATOM     20  C   UNL     1      46.111   6.924  11.394  0.00  0.00    +0.000 C 
ATOM     21  O   UNL     1      45.393   7.828  11.810  0.00  0.00    +0.000 OA
ATOM     22  H   UNL     1      48.038   6.188  11.224  0.00  0.00    +0.000 HD
BRANCH  20  23
ATOM     23  C   UNL     1      45.542   5.710  10.792  0.00  0.00    +0.000 A 
ATOM     24  C   UNL     1      45.706   5.480   9.432  0.00  0.00    +0.000 A 
ATOM     25  S   UNL     1      45.015   4.016   8.896  0.00  0.00    +0.000 S 
ATOM     26  C   UNL     1      44.434   3.656  10.454  0.00  0.00    +0.000 A 
ATOM     27  N   UNL     1      43.715   2.525  10.686  0.00  0.00    +0.000 NA
ATOM     28  C   UNL     1      43.306   2.393  11.905  0.00  0.00    +0.000 A 
ATOM     29  N   UNL     1      43.564   3.284  12.914  0.00  0.00    +0.000 N 
ATOM     30  C   UNL     1      44.340   4.405  12.741  0.00  0.00    +0.000 A 
ATOM     31  O   UNL     1      44.646   5.118  13.692  0.00  0.00    +0.000 OA
ATOM     32  C   UNL     1      44.787   4.626  11.378  0.00  0.00    +0.000 A 
ATOM     33  H   UNL     1      43.239   3.108  13.853  0.00  0.00    +0.000 HD
ENDBRANCH  20  23
ENDBRANCH  18  19
ENDBRANCH   4  18
TORSDOF 6
ENDMDL
MODEL 7
REMARK VINA RESULT:    -6.885      2.782      9.240
REMARK INTER + INTRA:         -10.052
REMARK INTER:                  -9.036
REMARK INTRA:                  -1.016
REMARK UNBOUND:                -0.752
REMARK  Name = 
REMARK  7 active torsions:
REMARK  status: ('A' for Active; 'I' for Inactive)
REMARK    1  A    between atoms: C_1  and  N_2
REMARK    2  A    between atoms: C_6  and  C_7
REMARK    3  A    between atoms: N_9  and  C_10
REMARK    4  A    between atoms: C_10  and  C_11
REMARK    5  A    between atoms: C_14  and  C_15
REMARK    6  A    between atoms: C_15  and  N_16
REMARK    7  A    between atoms: C_17  and  C_19
REMARK                            x       y       z     vdW  Elec       q    Type
REMARK                         _______ _______ _______ _____ _____    ______ ____
ROOT
ATOM      1  C   UNL     1      50.271   7.424  14.852  0.00  0.00    +0.000 A 
ATOM      2  C   UNL     1      50.437   8.426  13.898  0.00  0.00    +0.000 A 
ATOM      3  C   UNL     1      49.493   8.555  12.882  0.00  0.00    +0.000 A 
ATOM      4  C   UNL     1      48.400   7.689  12.837  0.00  0.00    +0.000 A 
ATOM      5  C   UNL     1      48.333   6.697  13.809  0.00  0.00    +0.000 A 
ATOM      6  N   UNL     1      49.234   6.550  14.810  0.00  0.00    +0.000 NA
ENDROOT
BRANCH   1   7
ATOM      7  C   UNL     1      51.266   7.274  15.979  0.00  0.00    +0.000 C 
BRANCH   7  10
ATOM      8  C   UNL     1      50.631   5.558  17.652  0.00  0.00    +0.000 C 
ATOM      9  O   UNL     1      51.161   4.643  17.024  0.00  0.00    +0.000 OA
ATOM     10  N   UNL     1      50.654   6.861  17.220  0.00  0.00    +0.000 N 
ATOM     11  H   UNL     1      50.102   7.528  17.753  0.00  0.00    +0.000 HD
BRANCH   8  17
ATOM     12  C   UNL     1      47.635   4.835  18.032  0.00  0.00    +0.000 C 
ATOM     13  N   UNL     1      48.602   5.049  19.083  0.00  0.00    +0.000 N 
ATOM     14  C   UNL     1      48.351   4.953  20.423  0.00  0.00    +0.000 A 
ATOM     15  C   UNL     1      49.549   5.237  21.032  0.00  0.00    +0.000 A 
ATOM     16  N   UNL     1      50.517   5.504  20.099  0.00  0.00    +0.000 NA
ATOM     17  C   UNL     1      49.928   5.376  18.915  0.00  0.00    +0.000 A 
ENDBRANCH   8  17
ENDBRANCH   7  10
ENDBRANCH   1   7
BRANCH   4  18
ATOM     18  C   UNL     1      47.349   7.800  11.777  0.00  0.00    +0.000 C 
BRANCH  18  19
ATOM     19  N   UNL     1      46.672   6.547  11.560  0.00  0.00    +0.000 N 
ATOM     20  C   UNL     1      45.315   6.410  11.689  0.00  0.00    +0.000 C 
ATOM     21  O   UNL     1      44.589   7.354  11.986  0.00  0.00    +0.000 OA
ATOM     22  H   UNL     1      47.256   5.720  11.489  0.00  0.00    +0.000 HD
BRANCH  20  23
ATOM     23  C   UNL     1      44.760   5.082  11.389  0.00  0.00    +0.000 A 
ATOM     24  C   UNL     1      43.976   4.439  12.338  0.00  0.00    +0.000 A 
ATOM     25  S   UNL     1      43.384   2.924  11.827  0.00  0.00    +0.000 S 
ATOM     26  C   UNL     1      44.189   3.053  10.333  0.00  0.00    +0.000 A 
ATOM     27  N   UNL     1      44.115   2.054   9.413  0.00  0.00    +0.000 NA
ATOM     28  C   UNL     1      44.801   2.266   8.339  0.00  0.00    +0.000 A 
ATOM     29  N   UNL     1      45.543   3.393   8.098  0.00  0.00    +0.000 N 
ATOM     30  C   UNL     1      45.595   4.454   8.969  0.00  0.00    +0.000 A 
ATOM     31  O   UNL     1      46.173   5.494   8.670  0.00  0.00    +0.000 OA
ATOM     32  C   UNL     1      44.877   4.248  10.214  0.00  0.00    +0.000 A 
ATOM     33  H   UNL     1      46.035   3.510   7.224  0.00  0.00    +0.000 HD
ENDBRANCH  20  23
ENDBRANCH  18  19
ENDBRANCH   4  18
TORSDOF 6
ENDMDL
MODEL 8
REMARK VINA RESULT:    -6.669      1.883      2.496
REMARK INTER + INTRA:          -9.760
REMARK INTER:                  -8.996
REMARK INTRA:                  -0.764
REMARK UNBOUND:                -0.752
REMARK  Name = 
REMARK  7 active torsions:
REMARK  status: ('A' for Active; 'I' for Inactive)
REMARK    1  A    between atoms: C_1  and  N_2
REMARK    2  A    between atoms: C_6  and  C_7
REMARK    3  A    between atoms: N_9  and  C_10
REMARK    4  A    between atoms: C_10  and  C_11
REMARK    5  A    between atoms: C_14  and  C_15
REMARK    6  A    between atoms: C_15  and  N_16
REMARK    7  A    between atoms: C_17  and  C_19
REMARK                            x       y       z     vdW  Elec       q    Type
REMARK                         _______ _______ _______ _____ _____    ______ ____
ROOT
ATOM      1  C   UNL     1      45.951   7.128  11.919  0.00  0.00    +0.000 A 
ATOM      2  C   UNL     1      45.610   8.250  12.671  0.00  0.00    +0.000 A 
ATOM      3  C   UNL     1      46.582   8.850  13.469  0.00  0.00    +0.000 A 
ATOM      4  C   UNL     1      47.875   8.324  13.499  0.00  0.00    +0.000 A 
ATOM      5  C   UNL     1      48.116   7.182  12.743  0.00  0.00    +0.000 A 
ATOM      6  N   UNL     1      47.191   6.580  11.957  0.00  0.00    +0.000 NA
ENDROOT
BRANCH   1   7
ATOM      7  C   UNL     1      44.924   6.469  11.027  0.00  0.00    +0.000 C 
BRANCH   7  10
ATOM      8  C   UNL     1      44.807   4.617   9.385  0.00  0.00    +0.000 C 
ATOM      9  O   UNL     1      43.606   4.429   9.570  0.00  0.00    +0.000 OA
ATOM     10  N   UNL     1      45.512   5.597  10.039  0.00  0.00    +0.000 N 
ATOM     11  H   UNL     1      46.518   5.607   9.896  0.00  0.00    +0.000 HD
BRANCH   8  17
ATOM     12  C   UNL     1      44.904   1.523   9.137  0.00  0.00    +0.000 C 
ATOM     13  N   UNL     1      45.655   2.467   8.342  0.00  0.00    +0.000 N 
ATOM     14  C   UNL     1      46.524   2.144   7.339  0.00  0.00    +0.000 A 
ATOM     15  C   UNL     1      46.997   3.348   6.876  0.00  0.00    +0.000 A 
ATOM     16  N   UNL     1      46.440   4.389   7.572  0.00  0.00    +0.000 NA
ATOM     17  C   UNL     1      45.616   3.838   8.457  0.00  0.00    +0.000 A 
ENDBRANCH   8  17
ENDBRANCH   7  10
ENDBRANCH   1   7
BRANCH   4  18
ATOM     18  C   UNL     1      48.959   8.946  14.323  0.00  0.00    +0.000 C 
BRANCH  18  19
ATOM     19  N   UNL     1      49.801   7.951  14.938  0.00  0.00    +0.000 N 
ATOM     20  C   UNL     1      49.615   7.520  16.225  0.00  0.00    +0.000 C 
ATOM     21  O   UNL     1      48.707   7.949  16.932  0.00  0.00    +0.000 OA
ATOM     22  H   UNL     1      50.656   7.711  14.447  0.00  0.00    +0.000 HD
BRANCH  20  23
ATOM     23  C   UNL     1      50.522   6.465  16.700  0.00  0.00    +0.000 A 
ATOM     24  C   UNL     1      51.862   6.761  16.912  0.00  0.00    +0.000 A 
ATOM     25  S   UNL     1      52.773   5.441  17.491  0.00  0.00    +0.000 S 
ATOM     26  C   UNL     1      51.417   4.414  17.440  0.00  0.00    +0.000 A 
ATOM     27  N   UNL     1      51.521   3.105  17.794  0.00  0.00    +0.000 NA
ATOM     28  C   UNL     1      50.425   2.431  17.676  0.00  0.00    +0.000 A 
ATOM     29  N   UNL     1      49.232   2.953  17.248  0.00  0.00    +0.000 N 
ATOM     30  C   UNL     1      49.065   4.283  16.942  0.00  0.00    +0.000 A 
ATOM     31  O   UNL     1      47.958   4.738  16.674  0.00  0.00    +0.000 OA
ATOM     32  C   UNL     1      50.278   5.076  17.014  0.00  0.00    +0.000 A 
ATOM     33  H   UNL     1      48.403   2.379  17.205  0.00  0.00    +0.000 HD
ENDBRANCH  20  23
ENDBRANCH  18  19
ENDBRANCH   4  18
TORSDOF 6
ENDMDL
MODEL 9
REMARK VINA RESULT:    -5.443      2.078      2.507
REMARK INTER + INTRA:          -8.104
REMARK INTER:                  -7.218
REMARK INTRA:                  -0.887
REMARK UNBOUND:                -0.752
REMARK  Name = 
REMARK  7 active torsions:
REMARK  status: ('A' for Active; 'I' for Inactive)
REMARK    1  A    between atoms: C_1  and  N_2
REMARK    2  A    between atoms: C_6  and  C_7
REMARK    3  A    between atoms: N_9  and  C_10
REMARK    4  A    between atoms: C_10  and  C_11
REMARK    5  A    between atoms: C_14  and  C_15
REMARK    6  A    between atoms: C_15  and  N_16
REMARK    7  A    between atoms: C_17  and  C_19
REMARK                            x       y       z     vdW  Elec       q    Type
REMARK                         _______ _______ _______ _____ _____    ______ ____
ROOT
ATOM      1  C   UNL     1      45.497   6.507  11.984  0.00  0.00    +0.000 A 
ATOM      2  C   UNL     1      45.010   7.787  12.239  0.00  0.00    +0.000 A 
ATOM      3  C   UNL     1      45.804   8.683  12.950  0.00  0.00    +0.000 A 
ATOM      4  C   UNL     1      47.069   8.291  13.389  0.00  0.00    +0.000 A 
ATOM      5  C   UNL     1      47.460   6.984  13.120  0.00  0.00    +0.000 A 
ATOM      6  N   UNL     1      46.710   6.092  12.429  0.00  0.00    +0.000 NA
ENDROOT
BRANCH   1   7
ATOM      7  C   UNL     1      44.668   5.519  11.196  0.00  0.00    +0.000 C 
BRANCH   7  10
ATOM      8  C   UNL     1      44.890   4.342   9.026  0.00  0.00    +0.000 C 
ATOM      9  O   UNL     1      43.711   4.520   8.725  0.00  0.00    +0.000 OA
ATOM     10  N   UNL     1      45.432   4.811  10.196  0.00  0.00    +0.000 N 
ATOM     11  H   UNL     1      46.386   4.527  10.404  0.00  0.00    +0.000 HD
BRANCH   8  17
ATOM     12  C   UNL     1      45.228   1.265   8.789  0.00  0.00    +0.000 C 
ATOM     13  N   UNL     1      45.989   2.265   8.077  0.00  0.00    +0.000 N 
ATOM     14  C   UNL     1      46.978   2.010   7.170  0.00  0.00    +0.000 A 
ATOM     15  C   UNL     1      47.412   3.247   6.758  0.00  0.00    +0.000 A 
ATOM     16  N   UNL     1      46.714   4.242   7.393  0.00  0.00    +0.000 NA
ATOM     17  C   UNL     1      45.844   3.629   8.187  0.00  0.00    +0.000 A 
ENDBRANCH   8  17
ENDBRANCH   7  10
ENDBRANCH   1   7
BRANCH   4  18
ATOM     18  C   UNL     1      47.968   9.225  14.138  0.00  0.00    +0.000 C 
BRANCH  18  19
ATOM     19  N   UNL     1      47.761   9.140  15.561  0.00  0.00    +0.000 N 
ATOM     20  C   UNL     1      48.642   8.508  16.399  0.00  0.00    +0.000 C 
ATOM     21  O   UNL     1      49.673   7.984  15.986  0.00  0.00    +0.000 OA
ATOM     22  H   UNL     1      46.844   9.404  15.906  0.00  0.00    +0.000 HD
BRANCH  20  23
ATOM     23  C   UNL     1      48.323   8.544  17.833  0.00  0.00    +0.000 A 
ATOM     24  C   UNL     1      48.295   9.764  18.496  0.00  0.00    +0.000 A 
ATOM     25  S   UNL     1      47.879   9.639  20.146  0.00  0.00    +0.000 S 
ATOM     26  C   UNL     1      47.763   7.944  20.043  0.00  0.00    +0.000 A 
ATOM     27  N   UNL     1      47.456   7.199  21.139  0.00  0.00    +0.000 NA
ATOM     28  C   UNL     1      47.434   5.925  20.929  0.00  0.00    +0.000 A 
ATOM     29  N   UNL     1      47.679   5.331  19.719  0.00  0.00    +0.000 N 
ATOM     30  C   UNL     1      47.929   6.045  18.572  0.00  0.00    +0.000 A 
ATOM     31  O   UNL     1      48.028   5.486  17.484  0.00  0.00    +0.000 OA
ATOM     32  C   UNL     1      48.009   7.482  18.762  0.00  0.00    +0.000 A 
ATOM     33  H   UNL     1      47.618   4.328  19.614  0.00  0.00    +0.000 HD
ENDBRANCH  20  23
ENDBRANCH  18  19
ENDBRANCH   4  18
TORSDOF 6
ENDMDL
