MODEL 1
REMARK VINA RESULT:    -7.339      0.000      0.000
REMARK INTER + INTRA:         -10.450
REMARK INTER:                  -9.698
REMARK INTRA:                  -0.752
REMARK UNBOUND:                -0.752
REMARK  Name = 
REMARK  6 active torsions:
REMARK  status: ('A' for Active; 'I' for Inactive)
REMARK    1  A    between atoms: C_2  and  C_18
REMARK    2  A    between atoms: N_3  and  C_4
REMARK    3  A    between atoms: C_4  and  C_5
REMARK    4  A    between atoms: C_8  and  C_9
REMARK    5  A    between atoms: C_9  and  N_10
REMARK    6  A    between atoms: C_13  and  O_14
REMARK                            x       y       z     vdW  Elec       q    Type
REMARK                         _______ _______ _______ _____ _____    ______ ____
ROOT
ATOM      1  O   UNL     1      46.924   4.733  14.476  0.00  0.00    +0.000 OA
ATOM      2  C   UNL     1      47.061   5.908  14.141  0.00  0.00    +0.000 C 
ATOM      3  N   UNL     1      46.039   6.633  13.577  0.00  0.00    +0.000 N 
ATOM      4  H   UNL     1      46.254   7.500  13.094  0.00  0.00    +0.000 HD
ENDROOT
BRANCH   2   5
ATOM      5  C   UNL     1      48.325   6.615  14.355  0.00  0.00    +0.000 A 
ATOM      6  C   UNL     1      48.906   6.647  15.614  0.00  0.00    +0.000 A 
ATOM      7  S   UNL     1      50.387   7.489  15.654  0.00  0.00    +0.000 S 
ATOM      8  C   UNL     1      50.318   7.810  13.984  0.00  0.00    +0.000 A 
ATOM      9  N   UNL     1      51.318   8.477  13.352  0.00  0.00    +0.000 NA
ATOM     10  C   UNL     1      51.139   8.617  12.084  0.00  0.00    +0.000 A 
ATOM     11  N   UNL     1      50.049   8.169  11.386  0.00  0.00    +0.000 N 
ATOM     12  C   UNL     1      48.991   7.542  11.993  0.00  0.00    +0.000 A 
ATOM     13  O   UNL     1      47.987   7.239  11.358  0.00  0.00    +0.000 OA
ATOM     14  C   UNL     1      49.157   7.315  13.414  0.00  0.00    +0.000 A 
ATOM     15  H   UNL     1      49.956   8.338  10.396  0.00  0.00    +0.000 HD
ENDBRANCH   2   5
BRANCH   3  16
ATOM     16  C   UNL     1      44.799   5.988  13.236  0.00  0.00    +0.000 C 
BRANCH  16  17
ATOM     17  C   UNL     1      44.931   5.080  12.042  0.00  0.00    +0.000 A 
ATOM     18  C   UNL     1      44.695   3.706  12.173  0.00  0.00    +0.000 A 
ATOM     19  C   UNL     1      44.772   2.856  11.065  0.00  0.00    +0.000 A 
ATOM     20  C   UNL     1      45.106   3.354   9.796  0.00  0.00    +0.000 A 
ATOM     21  C   UNL     1      45.356   4.728   9.670  0.00  0.00    +0.000 A 
ATOM     22  C   UNL     1      45.283   5.580  10.781  0.00  0.00    +0.000 A 
BRANCH  20  23
ATOM     23  C   UNL     1      45.245   2.425   8.604  0.00  0.00    +0.000 C 
BRANCH  23  24
ATOM     24  N   UNL     1      46.408   2.687   7.740  0.00  0.00    +0.000 NA
ATOM     25  C   UNL     1      46.071   3.416   6.510  0.00  0.00    +0.000 C 
ATOM     26  C   UNL     1      46.858   2.779   5.366  0.00  0.00    +0.000 C 
ATOM     27  C   UNL     1      47.783   1.780   6.033  0.00  0.00    +0.000 C 
ATOM     28  C   UNL     1      47.062   1.427   7.331  0.00  0.00    +0.000 C 
BRANCH  27  29
ATOM     29  O   UNL     1      49.042   2.393   6.300  0.00  0.00    +0.000 OA
ATOM     30  H   UNL     1      49.720   1.763   5.989  0.00  0.00    +0.000 HD
ENDBRANCH  27  29
ENDBRANCH  23  24
ENDBRANCH  20  23
ENDBRANCH  16  17
ENDBRANCH   3  16
TORSDOF 6
ENDMDL
MODEL 2
REMARK VINA RESULT:    -7.299      2.089      3.374
REMARK INTER + INTRA:         -10.397
REMARK INTER:                  -9.743
REMARK INTRA:                  -0.654
REMARK UNBOUND:                -0.752
REMARK  Name = 
REMARK  6 active torsions:
REMARK  status: ('A' for Active; 'I' for Inactive)
REMARK    1  A    between atoms: C_2  and  C_18
REMARK    2  A    between atoms: N_3  and  C_4
REMARK    3  A    between atoms: C_4  and  C_5
REMARK    4  A    between atoms: C_8  and  C_9
REMARK    5  A    between atoms: C_9  and  N_10
REMARK    6  A    between atoms: C_13  and  O_14
REMARK                            x       y       z     vdW  Elec       q    Type
REMARK                         _______ _______ _______ _____ _____    ______ ____
ROOT
ATOM      1  O   UNL     1      48.626   6.660  12.946  0.00  0.00    +0.000 OA
ATOM      2  C   UNL     1      48.007   6.699  14.007  0.00  0.00    +0.000 C 
ATOM      3  N   UNL     1      46.675   7.033  14.066  0.00  0.00    +0.000 N 
ATOM      4  H   UNL     1      46.269   7.294  14.960  0.00  0.00    +0.000 HD
ENDROOT
BRANCH   2   5
ATOM      5  C   UNL     1      48.653   6.357  15.276  0.00  0.00    +0.000 A 
ATOM      6  C   UNL     1      49.687   7.139  15.769  0.00  0.00    +0.000 A 
ATOM      7  S   UNL     1      50.285   6.600  17.271  0.00  0.00    +0.000 S 
ATOM      8  C   UNL     1      49.160   5.323  17.327  0.00  0.00    +0.000 A 
ATOM      9  N   UNL     1      49.105   4.479  18.390  0.00  0.00    +0.000 NA
ATOM     10  C   UNL     1      48.183   3.583  18.303  0.00  0.00    +0.000 A 
ATOM     11  N   UNL     1      47.320   3.437  17.249  0.00  0.00    +0.000 N 
ATOM     12  C   UNL     1      47.379   4.230  16.132  0.00  0.00    +0.000 A 
ATOM     13  O   UNL     1      46.658   4.014  15.165  0.00  0.00    +0.000 OA
ATOM     14  C   UNL     1      48.367   5.287  16.193  0.00  0.00    +0.000 A 
ATOM     15  H   UNL     1      46.639   2.693  17.230  0.00  0.00    +0.000 HD
ENDBRANCH   2   5
BRANCH   3  16
ATOM     16  C   UNL     1      45.990   7.484  12.884  0.00  0.00    +0.000 C 
BRANCH  16  17
ATOM     17  C   UNL     1      45.759   6.373  11.894  0.00  0.00    +0.000 A 
ATOM     18  C   UNL     1      45.189   5.164  12.311  0.00  0.00    +0.000 A 
ATOM     19  C   UNL     1      44.928   4.140  11.395  0.00  0.00    +0.000 A 
ATOM     20  C   UNL     1      45.248   4.289  10.037  0.00  0.00    +0.000 A 
ATOM     21  C   UNL     1      45.833   5.495   9.623  0.00  0.00    +0.000 A 
ATOM     22  C   UNL     1      46.098   6.520  10.541  0.00  0.00    +0.000 A 
BRANCH  20  23
ATOM     23  C   UNL     1      45.019   3.158   9.051  0.00  0.00    +0.000 C 
BRANCH  23  24
ATOM     24  N   UNL     1      46.159   2.854   8.171  0.00  0.00    +0.000 NA
ATOM     25  C   UNL     1      46.051   3.465   6.840  0.00  0.00    +0.000 C 
ATOM     26  C   UNL     1      46.508   2.426   5.817  0.00  0.00    +0.000 C 
ATOM     27  C   UNL     1      47.044   1.272   6.641  0.00  0.00    +0.000 C 
ATOM     28  C   UNL     1      46.303   1.398   7.968  0.00  0.00    +0.000 C 
BRANCH  27  29
ATOM     29  O   UNL     1      48.450   1.425   6.825  0.00  0.00    +0.000 OA
ATOM     30  H   UNL     1      48.577   1.623   7.772  0.00  0.00    +0.000 HD
ENDBRANCH  27  29
ENDBRANCH  23  24
ENDBRANCH  20  23
ENDBRANCH  16  17
ENDBRANCH   3  16
TORSDOF 6
ENDMDL
MODEL 3
REMARK VINA RESULT:    -7.252      5.165      9.191
REMARK INTER + INTRA:         -10.335
REMARK INTER:                  -9.732
REMARK INTRA:                  -0.603
REMARK UNBOUND:                -0.752
REMARK  Name = 
REMARK  6 active torsions:
REMARK  status: ('A' for Active; 'I' for Inactive)
REMARK    1  A    between atoms: C_2  and  C_18
REMARK    2  A    between atoms: N_3  and  C_4
REMARK    3  A    between atoms: C_4  and  C_5
REMARK    4  A    between atoms: C_8  and  C_9
REMARK    5  A    between atoms: C_9  and  N_10
REMARK    6  A    between atoms: C_13  and  O_14
REMARK                            x       y       z     vdW  Elec       q    Type
REMARK                         _______ _______ _______ _____ _____    ______ ____
ROOT
ATOM      1  O   UNL     1      47.197   3.125  13.975  0.00  0.00    +0.000 OA
ATOM      2  C   UNL     1      46.813   4.184  14.466  0.00  0.00    +0.000 C 
ATOM      3  N   UNL     1      46.844   4.418  15.820  0.00  0.00    +0.000 N 
ATOM      4  H   UNL     1      46.300   5.185  16.203  0.00  0.00    +0.000 HD
ENDROOT
BRANCH   2   5
ATOM      5  C   UNL     1      46.325   5.278  13.624  0.00  0.00    +0.000 A 
ATOM      6  C   UNL     1      47.126   6.382  13.376  0.00  0.00    +0.000 A 
ATOM      7  S   UNL     1      46.396   7.529  12.348  0.00  0.00    +0.000 S 
ATOM      8  C   UNL     1      44.999   6.572  12.174  0.00  0.00    +0.000 A 
ATOM      9  N   UNL     1      43.971   6.963  11.376  0.00  0.00    +0.000 NA
ATOM     10  C   UNL     1      42.998   6.120  11.321  0.00  0.00    +0.000 A 
ATOM     11  N   UNL     1      42.943   4.931  11.998  0.00  0.00    +0.000 N 
ATOM     12  C   UNL     1      43.932   4.525  12.858  0.00  0.00    +0.000 A 
ATOM     13  O   UNL     1      43.810   3.503  13.523  0.00  0.00    +0.000 OA
ATOM     14  C   UNL     1      45.075   5.411  12.925  0.00  0.00    +0.000 A 
ATOM     15  H   UNL     1      42.135   4.330  11.934  0.00  0.00    +0.000 HD
ENDBRANCH   2   5
BRANCH   3  16
ATOM     16  C   UNL     1      47.210   3.363  16.727  0.00  0.00    +0.000 C 
BRANCH  16  17
ATOM     17  C   UNL     1      48.683   3.354  17.038  0.00  0.00    +0.000 A 
ATOM     18  C   UNL     1      49.340   4.545  17.371  0.00  0.00    +0.000 A 
ATOM     19  C   UNL     1      50.698   4.546  17.704  0.00  0.00    +0.000 A 
ATOM     20  C   UNL     1      51.444   3.357  17.695  0.00  0.00    +0.000 A 
ATOM     21  C   UNL     1      50.788   2.168  17.346  0.00  0.00    +0.000 A 
ATOM     22  C   UNL     1      49.427   2.167  17.008  0.00  0.00    +0.000 A 
BRANCH  20  23
ATOM     23  C   UNL     1      52.930   3.365  18.000  0.00  0.00    +0.000 C 
BRANCH  23  24
ATOM     24  N   UNL     1      53.419   2.202  18.760  0.00  0.00    +0.000 NA
ATOM     25  C   UNL     1      54.365   2.555  19.828  0.00  0.00    +0.000 C 
ATOM     26  C   UNL     1      55.488   1.521  19.808  0.00  0.00    +0.000 C 
ATOM     27  C   UNL     1      55.044   0.474  18.806  0.00  0.00    +0.000 C 
ATOM     28  C   UNL     1      54.105   1.238  17.876  0.00  0.00    +0.000 C 
BRANCH  27  29
ATOM     29  O   UNL     1      54.352  -0.575  19.480  0.00  0.00    +0.000 OA
ATOM     30  H   UNL     1      55.042  -1.141  19.875  0.00  0.00    +0.000 HD
ENDBRANCH  27  29
ENDBRANCH  23  24
ENDBRANCH  20  23
ENDBRANCH  16  17
ENDBRANCH   3  16
TORSDOF 6
ENDMDL
MODEL 4
REMARK VINA RESULT:    -7.159      1.926      2.891
REMARK INTER + INTRA:         -10.213
REMARK INTER:                  -9.501
REMARK INTRA:                  -0.712
REMARK UNBOUND:                -0.752
REMARK  Name = 
REMARK  6 active torsions:
REMARK  status: ('A' for Active; 'I' for Inactive)
REMARK    1  A    between atoms: C_2  and  C_18
REMARK    2  A    between atoms: N_3  and  C_4
REMARK    3  A    between atoms: C_4  and  C_5
REMARK    4  A    between atoms: C_8  and  C_9
REMARK    5  A    between atoms: C_9  and  N_10
REMARK    6  A    between atoms: C_13  and  O_14
REMARK                            x       y       z     vdW  Elec       q    Type
REMARK                         _______ _______ _______ _____ _____    ______ ____
ROOT
ATOM      1  O   UNL     1      47.079   3.737  14.297  0.00  0.00    +0.000 OA
ATOM      2  C   UNL     1      46.940   4.953  14.184  0.00  0.00    +0.000 C 
ATOM      3  N   UNL     1      45.755   5.520  13.781  0.00  0.00    +0.000 N 
ATOM      4  H   UNL     1      45.750   6.485  13.464  0.00  0.00    +0.000 HD
ENDROOT
BRANCH   2   5
ATOM      5  C   UNL     1      48.030   5.875  14.507  0.00  0.00    +0.000 A 
ATOM      6  C   UNL     1      48.586   6.677  13.521  0.00  0.00    +0.000 A 
ATOM      7  S   UNL     1      49.817   7.704  14.100  0.00  0.00    +0.000 S 
ATOM      8  C   UNL     1      49.625   7.134  15.693  0.00  0.00    +0.000 A 
ATOM      9  N   UNL     1      50.364   7.638  16.715  0.00  0.00    +0.000 NA
ATOM     10  C   UNL     1      50.085   7.131  17.866  0.00  0.00    +0.000 A 
ATOM     11  N   UNL     1      49.150   6.156  18.094  0.00  0.00    +0.000 N 
ATOM     12  C   UNL     1      48.424   5.580  17.084  0.00  0.00    +0.000 A 
ATOM     13  O   UNL     1      47.665   4.643  17.306  0.00  0.00    +0.000 OA
ATOM     14  C   UNL     1      48.662   6.144  15.771  0.00  0.00    +0.000 A 
ATOM     15  H   UNL     1      49.002   5.780  19.018  0.00  0.00    +0.000 HD
ENDBRANCH   2   5
BRANCH   3  16
ATOM     16  C   UNL     1      44.667   4.687  13.344  0.00  0.00    +0.000 C 
BRANCH  16  17
ATOM     17  C   UNL     1      44.735   4.372  11.873  0.00  0.00    +0.000 A 
ATOM     18  C   UNL     1      45.242   5.317  10.973  0.00  0.00    +0.000 A 
ATOM     19  C   UNL     1      45.352   5.024   9.610  0.00  0.00    +0.000 A 
ATOM     20  C   UNL     1      44.939   3.782   9.105  0.00  0.00    +0.000 A 
ATOM     21  C   UNL     1      44.417   2.841  10.005  0.00  0.00    +0.000 A 
ATOM     22  C   UNL     1      44.304   3.136  11.371  0.00  0.00    +0.000 A 
BRANCH  20  23
ATOM     23  C   UNL     1      45.005   3.482   7.619  0.00  0.00    +0.000 C 
BRANCH  23  24
ATOM     24  N   UNL     1      46.363   3.376   7.061  0.00  0.00    +0.000 NA
ATOM     25  C   UNL     1      46.405   3.488   5.596  0.00  0.00    +0.000 C 
ATOM     26  C   UNL     1      47.391   2.441   5.083  0.00  0.00    +0.000 C 
ATOM     27  C   UNL     1      48.032   1.859   6.327  0.00  0.00    +0.000 C 
ATOM     28  C   UNL     1      46.985   2.085   7.414  0.00  0.00    +0.000 C 
BRANCH  27  29
ATOM     29  O   UNL     1      49.235   2.565   6.623  0.00  0.00    +0.000 OA
ATOM     30  H   UNL     1      49.044   3.506   6.452  0.00  0.00    +0.000 HD
ENDBRANCH  27  29
ENDBRANCH  23  24
ENDBRANCH  20  23
ENDBRANCH  16  17
ENDBRANCH   3  16
TORSDOF 6
ENDMDL
MODEL 5
REMARK VINA RESULT:    -6.825      2.737      4.304
REMARK INTER + INTRA:          -9.771
REMARK INTER:                  -9.182
REMARK INTRA:                  -0.589
REMARK UNBOUND:                -0.752
REMARK  Name = 
REMARK  6 active torsions:
REMARK  status: ('A' for Active; 'I' for Inactive)
REMARK    1  A    between atoms: C_2  and  C_18
REMARK    2  A    between atoms: N_3  and  C_4
REMARK    3  A    between atoms: C_4  and  C_5
REMARK    4  A    between atoms: C_8  and  C_9
REMARK    5  A    between atoms: C_9  and  N_10
REMARK    6  A    between atoms: C_13  and  O_14
REMARK                            x       y       z     vdW  Elec       q    Type
REMARK                         _______ _______ _______ _____ _____    ______ ____
ROOT
ATOM      1  O   UNL     1      50.016   7.309  14.226  0.00  0.00    +0.000 OA
ATOM      2  C   UNL     1      49.138   7.115  15.063  0.00  0.00    +0.000 C 
ATOM      3  N   UNL     1      47.807   7.318  14.789  0.00  0.00    +0.000 N 
ATOM      4  H   UNL     1      47.147   7.389  15.558  0.00  0.00    +0.000 HD
ENDROOT
BRANCH   2   5
ATOM      5  C   UNL     1      49.463   6.623  16.403  0.00  0.00    +0.000 A 
ATOM      6  C   UNL     1      50.258   7.376  17.253  0.00  0.00    +0.000 A 
ATOM      7  S   UNL     1      50.494   6.650  18.778  0.00  0.00    +0.000 S 
ATOM      8  C   UNL     1      49.514   5.322  18.363  0.00  0.00    +0.000 A 
ATOM      9  N   UNL     1      49.263   4.327  19.252  0.00  0.00    +0.000 NA
ATOM     10  C   UNL     1      48.481   3.406  18.805  0.00  0.00    +0.000 A 
ATOM     11  N   UNL     1      47.936   3.373  17.549  0.00  0.00    +0.000 N 
ATOM     12  C   UNL     1      48.210   4.327  16.601  0.00  0.00    +0.000 A 
ATOM     13  O   UNL     1      47.785   4.219  15.456  0.00  0.00    +0.000 OA
ATOM     14  C   UNL     1      49.048   5.413  17.063  0.00  0.00    +0.000 A 
ATOM     15  H   UNL     1      47.354   2.605  17.251  0.00  0.00    +0.000 HD
ENDBRANCH   2   5
BRANCH   3  16
ATOM     16  C   UNL     1      47.408   7.899  13.535  0.00  0.00    +0.000 C 
BRANCH  16  17
ATOM     17  C   UNL     1      46.439   7.030  12.779  0.00  0.00    +0.000 A 
ATOM     18  C   UNL     1      45.446   7.610  11.980  0.00  0.00    +0.000 A 
ATOM     19  C   UNL     1      44.567   6.816  11.238  0.00  0.00    +0.000 A 
ATOM     20  C   UNL     1      44.642   5.416  11.289  0.00  0.00    +0.000 A 
ATOM     21  C   UNL     1      45.627   4.835  12.101  0.00  0.00    +0.000 A 
ATOM     22  C   UNL     1      46.507   5.631  12.848  0.00  0.00    +0.000 A 
BRANCH  20  23
ATOM     23  C   UNL     1      43.653   4.552  10.529  0.00  0.00    +0.000 C 
BRANCH  23  24
ATOM     24  N   UNL     1      44.173   3.943   9.293  0.00  0.00    +0.000 NA
ATOM     25  C   UNL     1      44.411   2.498   9.407  0.00  0.00    +0.000 C 
ATOM     26  C   UNL     1      45.735   2.193   8.709  0.00  0.00    +0.000 C 
ATOM     27  C   UNL     1      46.140   3.494   8.046  0.00  0.00    +0.000 C 
ATOM     28  C   UNL     1      45.453   4.562   8.892  0.00  0.00    +0.000 C 
BRANCH  27  29
ATOM     29  O   UNL     1      45.662   3.520   6.704  0.00  0.00    +0.000 OA
ATOM     30  H   UNL     1      45.430   2.598   6.483  0.00  0.00    +0.000 HD
ENDBRANCH  27  29
ENDBRANCH  23  24
ENDBRANCH  20  23
ENDBRANCH  16  17
ENDBRANCH   3  16
TORSDOF 6
ENDMDL
MODEL 6
REMARK VINA RESULT:    -6.764      3.029      7.113
REMARK INTER + INTRA:          -9.691
REMARK INTER:                  -8.917
REMARK INTRA:                  -0.774
REMARK UNBOUND:                -0.752
REMARK  Name = 
REMARK  6 active torsions:
REMARK  status: ('A' for Active; 'I' for Inactive)
REMARK    1  A    between atoms: C_2  and  C_18
REMARK    2  A    between atoms: N_3  and  C_4
REMARK    3  A    between atoms: C_4  and  C_5
REMARK    4  A    between atoms: C_8  and  C_9
REMARK    5  A    between atoms: C_9  and  N_10
REMARK    6  A    between atoms: C_13  and  O_14
REMARK                            x       y       z     vdW  Elec       q    Type
REMARK                         _______ _______ _______ _____ _____    ______ ____
ROOT
ATOM      1  O   UNL     1      44.471   7.524  11.025  0.00  0.00    +0.000 OA
ATOM      2  C   UNL     1      44.886   6.617  11.743  0.00  0.00    +0.000 C 
ATOM      3  N   UNL     1      45.693   6.855  12.830  0.00  0.00    +0.000 N 
ATOM      4  H   UNL     1      46.209   6.083  13.241  0.00  0.00    +0.000 HD
ENDROOT
BRANCH   2   5
ATOM      5  C   UNL     1      44.515   5.223  11.495  0.00  0.00    +0.000 A 
ATOM      6  C   UNL     1      43.750   4.526  12.418  0.00  0.00    +0.000 A 
ATOM      7  S   UNL     1      43.394   2.931  11.935  0.00  0.00    +0.000 S 
ATOM      8  C   UNL     1      44.223   3.129  10.462  0.00  0.00    +0.000 A 
ATOM      9  N   UNL     1      44.273   2.132   9.541  0.00  0.00    +0.000 NA
ATOM     10  C   UNL     1      44.909   2.441   8.464  0.00  0.00    +0.000 A 
ATOM     11  N   UNL     1      45.515   3.645   8.222  0.00  0.00    +0.000 N 
ATOM     12  C   UNL     1      45.538   4.658   9.146  0.00  0.00    +0.000 A 
ATOM     13  O   UNL     1      46.170   5.688   8.939  0.00  0.00    +0.000 OA
ATOM     14  C   UNL     1      44.798   4.385  10.361  0.00  0.00    +0.000 A 
ATOM     15  H   UNL     1      46.024   3.812   7.367  0.00  0.00    +0.000 HD
ENDBRANCH   2   5
BRANCH   3  16
ATOM     16  C   UNL     1      46.190   8.180  13.085  0.00  0.00    +0.000 C 
BRANCH  16  17
ATOM     17  C   UNL     1      47.574   8.394  12.530  0.00  0.00    +0.000 A 
ATOM     18  C   UNL     1      48.455   7.314  12.402  0.00  0.00    +0.000 A 
ATOM     19  C   UNL     1      49.728   7.489  11.849  0.00  0.00    +0.000 A 
ATOM     20  C   UNL     1      50.162   8.755  11.426  0.00  0.00    +0.000 A 
ATOM     21  C   UNL     1      49.283   9.838  11.569  0.00  0.00    +0.000 A 
ATOM     22  C   UNL     1      48.009   9.664  12.127  0.00  0.00    +0.000 A 
BRANCH  20  23
ATOM     23  C   UNL     1      51.563   8.957  10.878  0.00  0.00    +0.000 C 
BRANCH  23  24
ATOM     24  N   UNL     1      52.441   7.777  10.954  0.00  0.00    +0.000 NA
ATOM     25  C   UNL     1      53.820   8.098  11.347  0.00  0.00    +0.000 C 
ATOM     26  C   UNL     1      54.754   7.264  10.471  0.00  0.00    +0.000 C 
ATOM     27  C   UNL     1      53.841   6.333   9.697  0.00  0.00    +0.000 C 
ATOM     28  C   UNL     1      52.512   7.081   9.654  0.00  0.00    +0.000 C 
BRANCH  27  29
ATOM     29  O   UNL     1      53.709   5.098  10.397  0.00  0.00    +0.000 OA
ATOM     30  H   UNL     1      54.474   4.554  10.129  0.00  0.00    +0.000 HD
ENDBRANCH  27  29
ENDBRANCH  23  24
ENDBRANCH  20  23
ENDBRANCH  16  17
ENDBRANCH   3  16
TORSDOF 6
ENDMDL
MODEL 7
REMARK VINA RESULT:    -6.715      3.311      4.647
REMARK INTER + INTRA:          -9.626
REMARK INTER:                  -9.099
REMARK INTRA:                  -0.526
REMARK UNBOUND:                -0.752
REMARK  Name = 
REMARK  6 active torsions:
REMARK  status: ('A' for Active; 'I' for Inactive)
REMARK    1  A    between atoms: C_2  and  C_18
REMARK    2  A    between atoms: N_3  and  C_4
REMARK    3  A    between atoms: C_4  and  C_5
REMARK    4  A    between atoms: C_8  and  C_9
REMARK    5  A    between atoms: C_9  and  N_10
REMARK    6  A    between atoms: C_13  and  O_14
REMARK                            x       y       z     vdW  Elec       q    Type
REMARK                         _______ _______ _______ _____ _____    ______ ____
ROOT
ATOM      1  O   UNL     1      50.090   5.970  15.880  0.00  0.00    +0.000 OA
ATOM      2  C   UNL     1      48.935   6.218  16.219  0.00  0.00    +0.000 C 
ATOM      3  N   UNL     1      47.934   6.439  15.303  0.00  0.00    +0.000 N 
ATOM      4  H   UNL     1      47.071   6.877  15.609  0.00  0.00    +0.000 HD
ENDROOT
BRANCH   2   5
ATOM      5  C   UNL     1      48.551   6.259  17.631  0.00  0.00    +0.000 A 
ATOM      6  C   UNL     1      48.645   5.119  18.417  0.00  0.00    +0.000 A 
ATOM      7  S   UNL     1      48.185   5.376  20.038  0.00  0.00    +0.000 S 
ATOM      8  C   UNL     1      47.877   7.026  19.751  0.00  0.00    +0.000 A 
ATOM      9  N   UNL     1      47.479   7.852  20.752  0.00  0.00    +0.000 NA
ATOM     10  C   UNL     1      47.315   9.078  20.389  0.00  0.00    +0.000 A 
ATOM     11  N   UNL     1      47.494   9.556  19.118  0.00  0.00    +0.000 N 
ATOM     12  C   UNL     1      47.840   8.746  18.067  0.00  0.00    +0.000 A 
ATOM     13  O   UNL     1      47.899   9.185  16.924  0.00  0.00    +0.000 OA
ATOM     14  C   UNL     1      48.083   7.364  18.425  0.00  0.00    +0.000 A 
ATOM     15  H   UNL     1      47.320  10.524  18.894  0.00  0.00    +0.000 HD
ENDBRANCH   2   5
BRANCH   3  16
ATOM     16  C   UNL     1      48.244   6.520  13.901  0.00  0.00    +0.000 C 
BRANCH  16  17
ATOM     17  C   UNL     1      47.121   6.018  13.032  0.00  0.00    +0.000 A 
ATOM     18  C   UNL     1      46.661   6.790  11.958  0.00  0.00    +0.000 A 
ATOM     19  C   UNL     1      45.649   6.318  11.117  0.00  0.00    +0.000 A 
ATOM     20  C   UNL     1      45.052   5.067  11.338  0.00  0.00    +0.000 A 
ATOM     21  C   UNL     1      45.503   4.302  12.424  0.00  0.00    +0.000 A 
ATOM     22  C   UNL     1      46.516   4.776  13.270  0.00  0.00    +0.000 A 
BRANCH  20  23
ATOM     23  C   UNL     1      43.915   4.578  10.461  0.00  0.00    +0.000 C 
BRANCH  23  24
ATOM     24  N   UNL     1      44.328   3.872   9.237  0.00  0.00    +0.000 NA
ATOM     25  C   UNL     1      44.494   2.424   9.424  0.00  0.00    +0.000 C 
ATOM     26  C   UNL     1      45.756   2.005   8.672  0.00  0.00    +0.000 C 
ATOM     27  C   UNL     1      46.191   3.241   7.911  0.00  0.00    +0.000 C 
ATOM     28  C   UNL     1      45.613   4.392   8.729  0.00  0.00    +0.000 C 
BRANCH  27  29
ATOM     29  O   UNL     1      45.635   3.218   6.598  0.00  0.00    +0.000 OA
ATOM     30  H   UNL     1      45.603   2.278   6.337  0.00  0.00    +0.000 HD
ENDBRANCH  27  29
ENDBRANCH  23  24
ENDBRANCH  20  23
ENDBRANCH  16  17
ENDBRANCH   3  16
TORSDOF 6
ENDMDL
MODEL 8
REMARK VINA RESULT:    -6.704      3.621      5.452
REMARK INTER + INTRA:          -9.612
REMARK INTER:                  -8.807
REMARK INTRA:                  -0.805
REMARK UNBOUND:                -0.752
REMARK  Name = 
REMARK  6 active torsions:
REMARK  status: ('A' for Active; 'I' for Inactive)
REMARK    1  A    between atoms: C_2  and  C_18
REMARK    2  A    between atoms: N_3  and  C_4
REMARK    3  A    between atoms: C_4  and  C_5
REMARK    4  A    between atoms: C_8  and  C_9
REMARK    5  A    between atoms: C_9  and  N_10
REMARK    6  A    between atoms: C_13  and  O_14
REMARK                            x       y       z     vdW  Elec       q    Type
REMARK                         _______ _______ _______ _____ _____    ______ ____
ROOT
ATOM      1  O   UNL     1      48.273   8.700  15.935  0.00  0.00    +0.000 OA
ATOM      2  C   UNL     1      48.818   7.637  15.649  0.00  0.00    +0.000 C 
ATOM      3  N   UNL     1      49.151   7.309  14.357  0.00  0.00    +0.000 N 
ATOM      4  H   UNL     1      49.366   6.342  14.131  0.00  0.00    +0.000 HD
ENDROOT
BRANCH   2   5
ATOM      5  C   UNL     1      49.177   6.665  16.684  0.00  0.00    +0.000 A 
ATOM      6  C   UNL     1      50.112   6.989  17.656  0.00  0.00    +0.000 A 
ATOM      7  S   UNL     1      50.368   5.742  18.790  0.00  0.00    +0.000 S 
ATOM      8  C   UNL     1      49.213   4.741  18.038  0.00  0.00    +0.000 A 
ATOM      9  N   UNL     1      48.911   3.516  18.539  0.00  0.00    +0.000 NA
ATOM     10  C   UNL     1      47.997   2.889  17.881  0.00  0.00    +0.000 A 
ATOM     11  N   UNL     1      47.366   3.361  16.761  0.00  0.00    +0.000 N 
ATOM     12  C   UNL     1      47.682   4.567  16.189  0.00  0.00    +0.000 A 
ATOM     13  O   UNL     1      47.169   4.919  15.133  0.00  0.00    +0.000 OA
ATOM     14  C   UNL     1      48.671   5.338  16.913  0.00  0.00    +0.000 A 
ATOM     15  H   UNL     1      46.679   2.805  16.274  0.00  0.00    +0.000 HD
ENDBRANCH   2   5
BRANCH   3  16
ATOM     16  C   UNL     1      48.744   8.156  13.268  0.00  0.00    +0.000 C 
BRANCH  16  17
ATOM     17  C   UNL     1      47.408   7.759  12.698  0.00  0.00    +0.000 A 
ATOM     18  C   UNL     1      46.263   8.507  12.998  0.00  0.00    +0.000 A 
ATOM     19  C   UNL     1      45.023   8.177  12.442  0.00  0.00    +0.000 A 
ATOM     20  C   UNL     1      44.889   7.075  11.583  0.00  0.00    +0.000 A 
ATOM     21  C   UNL     1      46.034   6.318  11.295  0.00  0.00    +0.000 A 
ATOM     22  C   UNL     1      47.276   6.646  11.855  0.00  0.00    +0.000 A 
BRANCH  20  23
ATOM     23  C   UNL     1      43.535   6.681  11.023  0.00  0.00    +0.000 C 
BRANCH  23  24
ATOM     24  N   UNL     1      43.063   5.342  11.412  0.00  0.00    +0.000 NA
ATOM     25  C   UNL     1      42.987   5.147  12.867  0.00  0.00    +0.000 C 
ATOM     26  C   UNL     1      43.524   3.750  13.173  0.00  0.00    +0.000 C 
ATOM     27  C   UNL     1      43.736   3.104  11.818  0.00  0.00    +0.000 C 
ATOM     28  C   UNL     1      43.951   4.288  10.881  0.00  0.00    +0.000 C 
BRANCH  27  29
ATOM     29  O   UNL     1      42.574   2.365  11.449  0.00  0.00    +0.000 OA
ATOM     30  H   UNL     1      41.852   2.699  12.016  0.00  0.00    +0.000 HD
ENDBRANCH  27  29
ENDBRANCH  23  24
ENDBRANCH  20  23
ENDBRANCH  16  17
ENDBRANCH   3  16
TORSDOF 6
ENDMDL
MODEL 9
REMARK VINA RESULT:    -6.052      3.541      5.540
REMARK INTER + INTRA:          -8.750
REMARK INTER:                  -7.831
REMARK INTRA:                  -0.918
REMARK UNBOUND:                -0.752
REMARK  Name = 
REMARK  6 active torsions:
REMARK  status: ('A' for Active; 'I' for Inactive)
REMARK    1  A    between atoms: C_2  and  C_18
REMARK    2  A    between atoms: N_3  and  C_4
REMARK    3  A    between atoms: C_4  and  C_5
REMARK    4  A    between atoms: C_8  and  C_9
REMARK    5  A    between atoms: C_9  and  N_10
REMARK    6  A    between atoms: C_13  and  O_14
REMARK                            x       y       z     vdW  Elec       q    Type
REMARK                         _______ _______ _______ _____ _____    ______ ____
ROOT
ATOM      1  O   UNL     1      52.348   6.634  15.867  0.00  0.00    +0.000 OA
ATOM      2  C   UNL     1      51.245   6.769  16.393  0.00  0.00    +0.000 C 
ATOM      3  N   UNL     1      50.142   7.183  15.686  0.00  0.00    +0.000 N 
ATOM      4  H   UNL     1      49.326   7.517  16.191  0.00  0.00    +0.000 HD
ENDROOT
BRANCH   2   5
ATOM      5  C   UNL     1      51.038   6.462  17.810  0.00  0.00    +0.000 A 
ATOM      6  C   UNL     1      51.749   7.143  18.786  0.00  0.00    +0.000 A 
ATOM      7  S   UNL     1      51.344   6.669  20.372  0.00  0.00    +0.000 S 
ATOM      8  C   UNL     1      50.181   5.562  19.807  0.00  0.00    +0.000 A 
ATOM      9  N   UNL     1      49.425   4.833  20.669  0.00  0.00    +0.000 NA
ATOM     10  C   UNL     1      48.567   4.063  20.094  0.00  0.00    +0.000 A 
ATOM     11  N   UNL     1      48.401   3.936  18.740  0.00  0.00    +0.000 N 
ATOM     12  C   UNL     1      49.182   4.609  17.835  0.00  0.00    +0.000 A 
ATOM     13  O   UNL     1      49.074   4.402  16.632  0.00  0.00    +0.000 OA
ATOM     14  C   UNL     1      50.134   5.527  18.424  0.00  0.00    +0.000 A 
ATOM     15  H   UNL     1      47.730   3.290  18.354  0.00  0.00    +0.000 HD
ENDBRANCH   2   5
BRANCH   3  16
ATOM     16  C   UNL     1      50.277   7.604  14.317  0.00  0.00    +0.000 C 
BRANCH  16  17
ATOM     17  C   UNL     1      49.064   7.273  13.489  0.00  0.00    +0.000 A 
ATOM     18  C   UNL     1      48.004   6.550  14.049  0.00  0.00    +0.000 A 
ATOM     19  C   UNL     1      46.853   6.272  13.305  0.00  0.00    +0.000 A 
ATOM     20  C   UNL     1      46.738   6.692  11.971  0.00  0.00    +0.000 A 
ATOM     21  C   UNL     1      47.807   7.403  11.406  0.00  0.00    +0.000 A 
ATOM     22  C   UNL     1      48.963   7.679  12.151  0.00  0.00    +0.000 A 
BRANCH  20  23
ATOM     23  C   UNL     1      45.514   6.342  11.145  0.00  0.00    +0.000 C 
BRANCH  23  24
ATOM     24  N   UNL     1      45.540   5.007  10.523  0.00  0.00    +0.000 NA
ATOM     25  C   UNL     1      45.675   5.044   9.061  0.00  0.00    +0.000 C 
ATOM     26  C   UNL     1      44.728   3.993   8.484  0.00  0.00    +0.000 C 
ATOM     27  C   UNL     1      44.191   3.244   9.687  0.00  0.00    +0.000 C 
ATOM     28  C   UNL     1      44.305   4.255  10.825  0.00  0.00    +0.000 C 
BRANCH  27  29
ATOM     29  O   UNL     1      44.999   2.097   9.940  0.00  0.00    +0.000 OA
ATOM     30  H   UNL     1      45.172   2.097  10.901  0.00  0.00    +0.000 HD
ENDBRANCH  27  29
ENDBRANCH  23  24
ENDBRANCH  20  23
ENDBRANCH  16  17
ENDBRANCH   3  16
TORSDOF 6
ENDMDL
