MODEL 1
REMARK VINA RESULT:    -6.819      0.000      0.000
REMARK INTER + INTRA:         -11.249
REMARK INTER:                 -10.009
REMARK INTRA:                  -1.241
REMARK UNBOUND:                -1.241
REMARK  Name = 
REMARK  9 active torsions:
REMARK  status: ('A' for Active; 'I' for Inactive)
REMARK    1  A    between atoms: C_1  and  O_2
REMARK    2  A    between atoms: O_2  and  C_3
REMARK    3  A    between atoms: C_10  and  C_11
REMARK    4  A    between atoms: N_13  and  C_14
REMARK    5  A    between atoms: C_14  and  C_15
REMARK    6  A    between atoms: C_18  and  O_19
REMARK    7  A    between atoms: O_19  and  C_20
REMARK    8  A    between atoms: C_20  and  C_21
REMARK    9  A    between atoms: C_21  and  C_22
REMARK                            x       y       z     vdW  Elec       q    Type
REMARK                         _______ _______ _______ _____ _____    ______ ____
ROOT
ATOM      1  C   UNL     1      48.293   6.936  15.410  0.00  0.00    +0.000 C 
ENDROOT
BRANCH   1   2
ATOM      2  C   UNL     1      47.521   6.269  14.300  0.00  0.00    +0.000 A 
ATOM      3  C   UNL     1      47.332   6.916  13.071  0.00  0.00    +0.000 A 
ATOM      4  C   UNL     1      46.645   6.284  12.029  0.00  0.00    +0.000 A 
ATOM      5  C   UNL     1      46.141   4.996  12.205  0.00  0.00    +0.000 A 
ATOM      6  C   UNL     1      46.260   4.376  13.448  0.00  0.00    +0.000 A 
ATOM      7  C   UNL     1      46.949   5.003  14.490  0.00  0.00    +0.000 A 
BRANCH   5   8
ATOM      8  O   UNL     1      45.507   4.261  11.242  0.00  0.00    +0.000 OA
BRANCH   8   9
ATOM      9  C   UNL     1      44.979   5.011  10.142  0.00  0.00    +0.000 C 
BRANCH   9  10
ATOM     10  C   UNL     1      45.873   4.753   8.929  0.00  0.00    +0.000 C 
BRANCH  10  11
ATOM     11  C   UNL     1      45.211   3.885   7.837  0.00  0.00    +0.000 C 
ATOM     12  C   UNL     1      44.616   2.571   8.366  0.00  0.00    +0.000 C 
ATOM     13  C   UNL     1      45.707   1.603   8.823  0.00  0.00    +0.000 C 
ATOM     14  N   UNL     1      46.643   1.300   7.739  0.00  0.00    +0.000 NA
ATOM     15  C   UNL     1      47.260   2.514   7.198  0.00  0.00    +0.000 C 
ATOM     16  C   UNL     1      46.222   3.538   6.730  0.00  0.00    +0.000 C 
ATOM     17  H   UNL     1      46.135   0.830   6.989  0.00  0.00    +0.000 HD
ENDBRANCH  10  11
ENDBRANCH   9  10
ENDBRANCH   8   9
ENDBRANCH   5   8
ENDBRANCH   1   2
BRANCH   1  20
ATOM     18  C   UNL     1      49.784   6.108  17.185  0.00  0.00    +0.000 C 
ATOM     19  O   UNL     1      49.272   6.855  18.014  0.00  0.00    +0.000 OA
ATOM     20  N   UNL     1      49.357   6.091  15.885  0.00  0.00    +0.000 N 
ATOM     21  H   UNL     1      49.828   5.513  15.204  0.00  0.00    +0.000 HD
BRANCH  18  29
ATOM     22  C   UNL     1      50.141   2.688  17.033  0.00  0.00    +0.000 A 
ATOM     23  N   UNL     1      50.537   1.403  17.091  0.00  0.00    +0.000 NA
ATOM     24  C   UNL     1      51.751   1.141  17.582  0.00  0.00    +0.000 A 
ATOM     25  N   UNL     1      52.640   2.023  18.032  0.00  0.00    +0.000 NA
ATOM     26  C   UNL     1      52.209   3.293  17.949  0.00  0.00    +0.000 A 
ATOM     27  S   UNL     1      53.214   4.554  18.477  0.00  0.00    +0.000 S 
ATOM     28  C   UNL     1      52.044   5.721  18.080  0.00  0.00    +0.000 A 
ATOM     29  C   UNL     1      50.876   5.187  17.544  0.00  0.00    +0.000 A 
ATOM     30  C   UNL     1      50.980   3.732  17.462  0.00  0.00    +0.000 A 
BRANCH  22  32
ATOM     31  C   UNL     1      47.856   2.938  17.465  0.00  0.00    +0.000 C 
ATOM     32  O   UNL     1      48.900   2.958  16.494  0.00  0.00    +0.000 OA
ENDBRANCH  22  32
ENDBRANCH  18  29
ENDBRANCH   1  20
TORSDOF 8
ENDMDL
MODEL 2
REMARK VINA RESULT:    -6.684      3.766      9.029
REMARK INTER + INTRA:         -11.051
REMARK INTER:                  -9.736
REMARK INTRA:                  -1.315
REMARK UNBOUND:                -1.241
REMARK  Name = 
REMARK  9 active torsions:
REMARK  status: ('A' for Active; 'I' for Inactive)
REMARK    1  A    between atoms: C_1  and  O_2
REMARK    2  A    between atoms: O_2  and  C_3
REMARK    3  A    between atoms: C_10  and  C_11
REMARK    4  A    between atoms: N_13  and  C_14
REMARK    5  A    between atoms: C_14  and  C_15
REMARK    6  A    between atoms: C_18  and  O_19
REMARK    7  A    between atoms: O_19  and  C_20
REMARK    8  A    between atoms: C_20  and  C_21
REMARK    9  A    between atoms: C_21  and  C_22
REMARK                            x       y       z     vdW  Elec       q    Type
REMARK                         _______ _______ _______ _____ _____    ______ ____
ROOT
ATOM      1  C   UNL     1      47.205   3.358  16.864  0.00  0.00    +0.000 C 
ENDROOT
BRANCH   1   2
ATOM      2  C   UNL     1      48.683   3.259  17.143  0.00  0.00    +0.000 A 
ATOM      3  C   UNL     1      49.377   4.339  17.709  0.00  0.00    +0.000 A 
ATOM      4  C   UNL     1      50.743   4.236  18.000  0.00  0.00    +0.000 A 
ATOM      5  C   UNL     1      51.427   3.053  17.730  0.00  0.00    +0.000 A 
ATOM      6  C   UNL     1      50.762   2.003  17.099  0.00  0.00    +0.000 A 
ATOM      7  C   UNL     1      49.398   2.100  16.810  0.00  0.00    +0.000 A 
BRANCH   5   8
ATOM      8  O   UNL     1      52.742   2.821  18.024  0.00  0.00    +0.000 OA
BRANCH   8   9
ATOM      9  C   UNL     1      53.472   3.949  18.518  0.00  0.00    +0.000 C 
BRANCH   9  10
ATOM     10  C   UNL     1      54.416   4.416  17.410  0.00  0.00    +0.000 C 
BRANCH  10  11
ATOM     11  C   UNL     1      54.706   5.932  17.433  0.00  0.00    +0.000 C 
ATOM     12  C   UNL     1      53.442   6.805  17.424  0.00  0.00    +0.000 C 
ATOM     13  C   UNL     1      52.705   6.715  16.089  0.00  0.00    +0.000 C 
ATOM     14  N   UNL     1      53.567   7.113  14.974  0.00  0.00    +0.000 NA
ATOM     15  C   UNL     1      54.788   6.305  14.915  0.00  0.00    +0.000 C 
ATOM     16  C   UNL     1      55.574   6.339  16.229  0.00  0.00    +0.000 C 
ATOM     17  H   UNL     1      53.828   8.092  15.093  0.00  0.00    +0.000 HD
ENDBRANCH  10  11
ENDBRANCH   9  10
ENDBRANCH   8   9
ENDBRANCH   5   8
ENDBRANCH   1   2
BRANCH   1  20
ATOM     18  C   UNL     1      46.961   4.193  14.562  0.00  0.00    +0.000 C 
ATOM     19  O   UNL     1      47.241   3.093  14.094  0.00  0.00    +0.000 OA
ATOM     20  N   UNL     1      46.924   4.401  15.913  0.00  0.00    +0.000 N 
ATOM     21  H   UNL     1      46.749   5.326  16.280  0.00  0.00    +0.000 HD
BRANCH  18  29
ATOM     22  C   UNL     1      44.197   5.071  12.709  0.00  0.00    +0.000 A 
ATOM     23  N   UNL     1      43.276   5.639  11.909  0.00  0.00    +0.000 NA
ATOM     24  C   UNL     1      43.590   6.791  11.310  0.00  0.00    +0.000 A 
ATOM     25  N   UNL     1      44.734   7.462  11.414  0.00  0.00    +0.000 NA
ATOM     26  C   UNL     1      45.621   6.865  12.227  0.00  0.00    +0.000 A 
ATOM     27  S   UNL     1      47.138   7.583  12.480  0.00  0.00    +0.000 S 
ATOM     28  C   UNL     1      47.615   6.326  13.520  0.00  0.00    +0.000 A 
ATOM     29  C   UNL     1      46.646   5.343  13.697  0.00  0.00    +0.000 A 
ATOM     30  C   UNL     1      45.450   5.672  12.925  0.00  0.00    +0.000 A 
BRANCH  22  32
ATOM     31  C   UNL     1      43.699   2.800  12.458  0.00  0.00    +0.000 C 
ATOM     32  O   UNL     1      43.858   3.899  13.353  0.00  0.00    +0.000 OA
ENDBRANCH  22  32
ENDBRANCH  18  29
ENDBRANCH   1  20
TORSDOF 8
ENDMDL
MODEL 3
REMARK VINA RESULT:    -6.673      1.933      3.286
REMARK INTER + INTRA:         -11.035
REMARK INTER:                  -9.778
REMARK INTRA:                  -1.257
REMARK UNBOUND:                -1.241
REMARK  Name = 
REMARK  9 active torsions:
REMARK  status: ('A' for Active; 'I' for Inactive)
REMARK    1  A    between atoms: C_1  and  O_2
REMARK    2  A    between atoms: O_2  and  C_3
REMARK    3  A    between atoms: C_10  and  C_11
REMARK    4  A    between atoms: N_13  and  C_14
REMARK    5  A    between atoms: C_14  and  C_15
REMARK    6  A    between atoms: C_18  and  O_19
REMARK    7  A    between atoms: O_19  and  C_20
REMARK    8  A    between atoms: C_20  and  C_21
REMARK    9  A    between atoms: C_21  and  C_22
REMARK                            x       y       z     vdW  Elec       q    Type
REMARK                         _______ _______ _______ _____ _____    ______ ____
ROOT
ATOM      1  C   UNL     1      47.703   3.800  17.302  0.00  0.00    +0.000 C 
ENDROOT
BRANCH   1   2
ATOM      2  C   UNL     1      47.542   4.505  15.978  0.00  0.00    +0.000 A 
ATOM      3  C   UNL     1      48.229   5.699  15.716  0.00  0.00    +0.000 A 
ATOM      4  C   UNL     1      48.106   6.336  14.475  0.00  0.00    +0.000 A 
ATOM      5  C   UNL     1      47.298   5.783  13.483  0.00  0.00    +0.000 A 
ATOM      6  C   UNL     1      46.555   4.637  13.762  0.00  0.00    +0.000 A 
ATOM      7  C   UNL     1      46.677   3.997  14.999  0.00  0.00    +0.000 A 
BRANCH   5   8
ATOM      8  O   UNL     1      47.150   6.285  12.220  0.00  0.00    +0.000 OA
BRANCH   8   9
ATOM      9  C   UNL     1      45.808   6.320  11.724  0.00  0.00    +0.000 C 
BRANCH   9  10
ATOM     10  C   UNL     1      45.743   5.422  10.488  0.00  0.00    +0.000 C 
BRANCH  10  11
ATOM     11  C   UNL     1      44.307   5.061  10.052  0.00  0.00    +0.000 C 
ATOM     12  C   UNL     1      43.422   4.545  11.198  0.00  0.00    +0.000 C 
ATOM     13  C   UNL     1      43.883   3.174  11.691  0.00  0.00    +0.000 C 
ATOM     14  N   UNL     1      43.884   2.188  10.609  0.00  0.00    +0.000 NA
ATOM     15  C   UNL     1      44.724   2.613   9.487  0.00  0.00    +0.000 C 
ATOM     16  C   UNL     1      44.326   3.990   8.948  0.00  0.00    +0.000 C 
ATOM     17  H   UNL     1      42.928   2.068  10.274  0.00  0.00    +0.000 HD
ENDBRANCH  10  11
ENDBRANCH   9  10
ENDBRANCH   8   9
ENDBRANCH   5   8
ENDBRANCH   1   2
BRANCH   1  20
ATOM     18  C   UNL     1      49.782   2.515  17.023  0.00  0.00    +0.000 C 
ATOM     19  O   UNL     1      49.244   1.747  16.230  0.00  0.00    +0.000 OA
ATOM     20  N   UNL     1      49.090   3.548  17.591  0.00  0.00    +0.000 N 
ATOM     21  H   UNL     1      49.531   4.135  18.285  0.00  0.00    +0.000 HD
BRANCH  18  29
ATOM     22  C   UNL     1      52.281   4.771  17.738  0.00  0.00    +0.000 A 
ATOM     23  N   UNL     1      53.420   5.419  18.047  0.00  0.00    +0.000 NA
ATOM     24  C   UNL     1      54.510   4.688  18.296  0.00  0.00    +0.000 A 
ATOM     25  N   UNL     1      54.606   3.361  18.277  0.00  0.00    +0.000 NA
ATOM     26  C   UNL     1      53.447   2.754  17.973  0.00  0.00    +0.000 A 
ATOM     27  S   UNL     1      53.382   1.060  17.904  0.00  0.00    +0.000 S 
ATOM     28  C   UNL     1      51.734   1.089  17.492  0.00  0.00    +0.000 A 
ATOM     29  C   UNL     1      51.200   2.371  17.397  0.00  0.00    +0.000 A 
ATOM     30  C   UNL     1      52.228   3.366  17.692  0.00  0.00    +0.000 A 
BRANCH  22  32
ATOM     31  C   UNL     1      50.905   6.480  18.547  0.00  0.00    +0.000 C 
ATOM     32  O   UNL     1      51.149   5.527  17.515  0.00  0.00    +0.000 OA
ENDBRANCH  22  32
ENDBRANCH  18  29
ENDBRANCH   1  20
TORSDOF 8
ENDMDL
MODEL 4
REMARK VINA RESULT:    -6.582      3.673      8.808
REMARK INTER + INTRA:         -10.901
REMARK INTER:                  -9.049
REMARK INTRA:                  -1.852
REMARK UNBOUND:                -1.241
REMARK  Name = 
REMARK  9 active torsions:
REMARK  status: ('A' for Active; 'I' for Inactive)
REMARK    1  A    between atoms: C_1  and  O_2
REMARK    2  A    between atoms: O_2  and  C_3
REMARK    3  A    between atoms: C_10  and  C_11
REMARK    4  A    between atoms: N_13  and  C_14
REMARK    5  A    between atoms: C_14  and  C_15
REMARK    6  A    between atoms: C_18  and  O_19
REMARK    7  A    between atoms: O_19  and  C_20
REMARK    8  A    between atoms: C_20  and  C_21
REMARK    9  A    between atoms: C_21  and  C_22
REMARK                            x       y       z     vdW  Elec       q    Type
REMARK                         _______ _______ _______ _____ _____    ______ ____
ROOT
ATOM      1  C   UNL     1      47.157   3.340  16.931  0.00  0.00    +0.000 C 
ENDROOT
BRANCH   1   2
ATOM      2  C   UNL     1      48.455   3.642  17.637  0.00  0.00    +0.000 A 
ATOM      3  C   UNL     1      49.662   3.094  17.181  0.00  0.00    +0.000 A 
ATOM      4  C   UNL     1      50.872   3.401  17.815  0.00  0.00    +0.000 A 
ATOM      5  C   UNL     1      50.886   4.262  18.912  0.00  0.00    +0.000 A 
ATOM      6  C   UNL     1      49.682   4.751  19.416  0.00  0.00    +0.000 A 
ATOM      7  C   UNL     1      48.473   4.449  18.783  0.00  0.00    +0.000 A 
BRANCH   5   8
ATOM      8  O   UNL     1      52.009   4.677  19.571  0.00  0.00    +0.000 OA
BRANCH   8   9
ATOM      9  C   UNL     1      52.174   6.095  19.677  0.00  0.00    +0.000 C 
BRANCH   9  10
ATOM     10  C   UNL     1      52.705   6.605  18.337  0.00  0.00    +0.000 C 
BRANCH  10  11
ATOM     11  C   UNL     1      51.979   7.862  17.814  0.00  0.00    +0.000 C 
ATOM     12  C   UNL     1      50.519   7.610  17.407  0.00  0.00    +0.000 C 
ATOM     13  C   UNL     1      50.426   6.733  16.159  0.00  0.00    +0.000 C 
ATOM     14  N   UNL     1      51.139   7.332  15.029  0.00  0.00    +0.000 NA
ATOM     15  C   UNL     1      52.547   7.585  15.346  0.00  0.00    +0.000 C 
ATOM     16  C   UNL     1      52.716   8.451  16.598  0.00  0.00    +0.000 C 
ATOM     17  H   UNL     1      50.693   8.219  14.792  0.00  0.00    +0.000 HD
ENDBRANCH  10  11
ENDBRANCH   9  10
ENDBRANCH   8   9
ENDBRANCH   5   8
ENDBRANCH   1   2
BRANCH   1  20
ATOM     18  C   UNL     1      46.995   4.236  14.645  0.00  0.00    +0.000 C 
ATOM     19  O   UNL     1      47.452   3.202  14.167  0.00  0.00    +0.000 OA
ATOM     20  N   UNL     1      46.821   4.379  15.994  0.00  0.00    +0.000 N 
ATOM     21  H   UNL     1      46.499   5.258  16.374  0.00  0.00    +0.000 HD
BRANCH  18  29
ATOM     22  C   UNL     1      44.256   4.872  12.661  0.00  0.00    +0.000 A 
ATOM     23  N   UNL     1      43.323   5.364  11.824  0.00  0.00    +0.000 NA
ATOM     24  C   UNL     1      43.541   6.562  11.275  0.00  0.00    +0.000 A 
ATOM     25  N   UNL     1      44.598   7.348  11.462  0.00  0.00    +0.000 NA
ATOM     26  C   UNL     1      45.500   6.824  12.308  0.00  0.00    +0.000 A 
ATOM     27  S   UNL     1      46.914   7.691  12.667  0.00  0.00    +0.000 S 
ATOM     28  C   UNL     1      47.468   6.459  13.698  0.00  0.00    +0.000 A 
ATOM     29  C   UNL     1      46.603   5.373  13.794  0.00  0.00    +0.000 A 
ATOM     30  C   UNL     1      45.422   5.597  12.964  0.00  0.00    +0.000 A 
BRANCH  22  32
ATOM     31  C   UNL     1      43.513   2.679  12.336  0.00  0.00    +0.000 C 
ATOM     32  O   UNL     1      44.012   3.651  13.253  0.00  0.00    +0.000 OA
ENDBRANCH  22  32
ENDBRANCH  18  29
ENDBRANCH   1  20
TORSDOF 8
ENDMDL
MODEL 5
REMARK VINA RESULT:    -6.541      2.730      4.237
REMARK INTER + INTRA:         -10.841
REMARK INTER:                  -9.562
REMARK INTRA:                  -1.280
REMARK UNBOUND:                -1.241
REMARK  Name = 
REMARK  9 active torsions:
REMARK  status: ('A' for Active; 'I' for Inactive)
REMARK    1  A    between atoms: C_1  and  O_2
REMARK    2  A    between atoms: O_2  and  C_3
REMARK    3  A    between atoms: C_10  and  C_11
REMARK    4  A    between atoms: N_13  and  C_14
REMARK    5  A    between atoms: C_14  and  C_15
REMARK    6  A    between atoms: C_18  and  O_19
REMARK    7  A    between atoms: O_19  and  C_20
REMARK    8  A    between atoms: C_20  and  C_21
REMARK    9  A    between atoms: C_21  and  C_22
REMARK                            x       y       z     vdW  Elec       q    Type
REMARK                         _______ _______ _______ _____ _____    ______ ____
ROOT
ATOM      1  C   UNL     1      47.485   4.114  15.610  0.00  0.00    +0.000 C 
ENDROOT
BRANCH   1   2
ATOM      2  C   UNL     1      46.979   4.692  14.313  0.00  0.00    +0.000 A 
ATOM      3  C   UNL     1      47.498   5.897  13.817  0.00  0.00    +0.000 A 
ATOM      4  C   UNL     1      47.053   6.417  12.596  0.00  0.00    +0.000 A 
ATOM      5  C   UNL     1      46.086   5.736  11.857  0.00  0.00    +0.000 A 
ATOM      6  C   UNL     1      45.513   4.578  12.379  0.00  0.00    +0.000 A 
ATOM      7  C   UNL     1      45.957   4.054  13.597  0.00  0.00    +0.000 A 
BRANCH   5   8
ATOM      8  O   UNL     1      45.621   6.119  10.630  0.00  0.00    +0.000 OA
BRANCH   8   9
ATOM      9  C   UNL     1      45.018   5.082   9.848  0.00  0.00    +0.000 C 
BRANCH   9  10
ATOM     10  C   UNL     1      45.993   4.713   8.729  0.00  0.00    +0.000 C 
BRANCH  10  11
ATOM     11  C   UNL     1      45.372   3.835   7.622  0.00  0.00    +0.000 C 
ATOM     12  C   UNL     1      44.676   2.571   8.152  0.00  0.00    +0.000 C 
ATOM     13  C   UNL     1      45.682   1.573   8.725  0.00  0.00    +0.000 C 
ATOM     14  N   UNL     1      46.679   1.185   7.726  0.00  0.00    +0.000 NA
ATOM     15  C   UNL     1      47.394   2.346   7.190  0.00  0.00    +0.000 C 
ATOM     16  C   UNL     1      46.444   3.398   6.609  0.00  0.00    +0.000 C 
ATOM     17  H   UNL     1      46.207   0.709   6.958  0.00  0.00    +0.000 HD
ENDBRANCH  10  11
ENDBRANCH   9  10
ENDBRANCH   8   9
ENDBRANCH   5   8
ENDBRANCH   1   2
BRANCH   1  20
ATOM     18  C   UNL     1      48.325   5.111  17.697  0.00  0.00    +0.000 C 
ATOM     19  O   UNL     1      49.243   4.298  17.759  0.00  0.00    +0.000 OA
ATOM     20  N   UNL     1      47.421   5.084  16.671  0.00  0.00    +0.000 N 
ATOM     21  H   UNL     1      46.639   5.723  16.668  0.00  0.00    +0.000 HD
BRANCH  18  29
ATOM     22  C   UNL     1      48.412   8.549  17.591  0.00  0.00    +0.000 A 
ATOM     23  N   UNL     1      48.401   9.874  17.831  0.00  0.00    +0.000 NA
ATOM     24  C   UNL     1      48.196  10.282  19.086  0.00  0.00    +0.000 A 
ATOM     25  N   UNL     1      47.994   9.516  20.154  0.00  0.00    +0.000 NA
ATOM     26  C   UNL     1      48.005   8.203  19.870  0.00  0.00    +0.000 A 
ATOM     27  S   UNL     1      47.762   7.075  21.114  0.00  0.00    +0.000 S 
ATOM     28  C   UNL     1      47.916   5.774  20.032  0.00  0.00    +0.000 A 
ATOM     29  C   UNL     1      48.153   6.160  18.716  0.00  0.00    +0.000 A 
ATOM     30  C   UNL     1      48.200   7.617  18.622  0.00  0.00    +0.000 A 
BRANCH  22  32
ATOM     31  C   UNL     1      49.947   8.215  15.858  0.00  0.00    +0.000 C 
ATOM     32  O   UNL     1      48.590   8.131  16.288  0.00  0.00    +0.000 OA
ENDBRANCH  22  32
ENDBRANCH  18  29
ENDBRANCH   1  20
TORSDOF 8
ENDMDL
MODEL 6
REMARK VINA RESULT:    -6.415      1.748      2.623
REMARK INTER + INTRA:         -10.656
REMARK INTER:                  -9.631
REMARK INTRA:                  -1.024
REMARK UNBOUND:                -1.241
REMARK  Name = 
REMARK  9 active torsions:
REMARK  status: ('A' for Active; 'I' for Inactive)
REMARK    1  A    between atoms: C_1  and  O_2
REMARK    2  A    between atoms: O_2  and  C_3
REMARK    3  A    between atoms: C_10  and  C_11
REMARK    4  A    between atoms: N_13  and  C_14
REMARK    5  A    between atoms: C_14  and  C_15
REMARK    6  A    between atoms: C_18  and  O_19
REMARK    7  A    between atoms: O_19  and  C_20
REMARK    8  A    between atoms: C_20  and  C_21
REMARK    9  A    between atoms: C_21  and  C_22
REMARK                            x       y       z     vdW  Elec       q    Type
REMARK                         _______ _______ _______ _____ _____    ______ ____
ROOT
ATOM      1  C   UNL     1      50.736   7.733  16.161  0.00  0.00    +0.000 C 
ENDROOT
BRANCH   1   2
ATOM      2  C   UNL     1      49.859   7.379  14.986  0.00  0.00    +0.000 A 
ATOM      3  C   UNL     1      48.719   6.582  15.160  0.00  0.00    +0.000 A 
ATOM      4  C   UNL     1      47.887   6.280  14.075  0.00  0.00    +0.000 A 
ATOM      5  C   UNL     1      48.185   6.776  12.807  0.00  0.00    +0.000 A 
ATOM      6  C   UNL     1      49.356   7.506  12.613  0.00  0.00    +0.000 A 
ATOM      7  C   UNL     1      50.188   7.812  13.694  0.00  0.00    +0.000 A 
BRANCH   5   8
ATOM      8  O   UNL     1      47.415   6.595  11.692  0.00  0.00    +0.000 OA
BRANCH   8   9
ATOM      9  C   UNL     1      46.001   6.684  11.897  0.00  0.00    +0.000 C 
BRANCH   9  10
ATOM     10  C   UNL     1      45.434   5.265  11.857  0.00  0.00    +0.000 C 
BRANCH  10  11
ATOM     11  C   UNL     1      44.223   5.101  10.914  0.00  0.00    +0.000 C 
ATOM     12  C   UNL     1      43.041   4.352  11.547  0.00  0.00    +0.000 C 
ATOM     13  C   UNL     1      43.370   2.878  11.783  0.00  0.00    +0.000 C 
ATOM     14  N   UNL     1      43.748   2.207  10.538  0.00  0.00    +0.000 NA
ATOM     15  C   UNL     1      44.884   2.865   9.888  0.00  0.00    +0.000 C 
ATOM     16  C   UNL     1      44.629   4.353   9.632  0.00  0.00    +0.000 C 
ATOM     17  H   UNL     1      42.952   2.226   9.900  0.00  0.00    +0.000 HD
ENDBRANCH  10  11
ENDBRANCH   9  10
ENDBRANCH   8   9
ENDBRANCH   5   8
ENDBRANCH   1   2
BRANCH   1  20
ATOM     18  C   UNL     1      51.251   5.959  17.787  0.00  0.00    +0.000 C 
ATOM     19  O   UNL     1      50.355   6.335  18.537  0.00  0.00    +0.000 OA
ATOM     20  N   UNL     1      51.499   6.595  16.602  0.00  0.00    +0.000 N 
ATOM     21  H   UNL     1      52.277   6.309  16.025  0.00  0.00    +0.000 HD
BRANCH  18  29
ATOM     22  C   UNL     1      50.912   2.567  17.317  0.00  0.00    +0.000 A 
ATOM     23  N   UNL     1      51.030   1.226  17.270  0.00  0.00    +0.000 NA
ATOM     24  C   UNL     1      52.123   0.674  17.803  0.00  0.00    +0.000 A 
ATOM     25  N   UNL     1      53.135   1.306  18.391  0.00  0.00    +0.000 NA
ATOM     26  C   UNL     1      52.981   2.641  18.410  0.00  0.00    +0.000 A 
ATOM     27  S   UNL     1      54.178   3.612  19.119  0.00  0.00    +0.000 S 
ATOM     28  C   UNL     1      53.307   5.028  18.772  0.00  0.00    +0.000 A 
ATOM     29  C   UNL     1      52.100   4.801  18.117  0.00  0.00    +0.000 A 
ATOM     30  C   UNL     1      51.910   3.369  17.896  0.00  0.00    +0.000 A 
BRANCH  22  32
ATOM     31  C   UNL     1      48.680   3.196  17.616  0.00  0.00    +0.000 C 
ATOM     32  O   UNL     1      49.799   3.137  16.734  0.00  0.00    +0.000 OA
ENDBRANCH  22  32
ENDBRANCH  18  29
ENDBRANCH   1  20
TORSDOF 8
ENDMDL
MODEL 7
REMARK VINA RESULT:    -6.062      4.158      9.087
REMARK INTER + INTRA:         -10.137
REMARK INTER:                  -7.987
REMARK INTRA:                  -2.151
REMARK UNBOUND:                -1.241
REMARK  Name = 
REMARK  9 active torsions:
REMARK  status: ('A' for Active; 'I' for Inactive)
REMARK    1  A    between atoms: C_1  and  O_2
REMARK    2  A    between atoms: O_2  and  C_3
REMARK    3  A    between atoms: C_10  and  C_11
REMARK    4  A    between atoms: N_13  and  C_14
REMARK    5  A    between atoms: C_14  and  C_15
REMARK    6  A    between atoms: C_18  and  O_19
REMARK    7  A    between atoms: O_19  and  C_20
REMARK    8  A    between atoms: C_20  and  C_21
REMARK    9  A    between atoms: C_21  and  C_22
REMARK                            x       y       z     vdW  Elec       q    Type
REMARK                         _______ _______ _______ _____ _____    ______ ____
ROOT
ATOM      1  C   UNL     1      47.514   3.656  16.443  0.00  0.00    +0.000 C 
ENDROOT
BRANCH   1   2
ATOM      2  C   UNL     1      48.341   4.516  17.364  0.00  0.00    +0.000 A 
ATOM      3  C   UNL     1      49.736   4.374  17.415  0.00  0.00    +0.000 A 
ATOM      4  C   UNL     1      50.508   5.195  18.245  0.00  0.00    +0.000 A 
ATOM      5  C   UNL     1      49.893   6.169  19.031  0.00  0.00    +0.000 A 
ATOM      6  C   UNL     1      48.503   6.266  19.042  0.00  0.00    +0.000 A 
ATOM      7  C   UNL     1      47.729   5.450  18.211  0.00  0.00    +0.000 A 
BRANCH   5   8
ATOM      8  O   UNL     1      50.549   7.062  19.831  0.00  0.00    +0.000 OA
BRANCH   8   9
ATOM      9  C   UNL     1      49.955   8.361  19.923  0.00  0.00    +0.000 C 
BRANCH   9  10
ATOM     10  C   UNL     1      50.499   9.207  18.771  0.00  0.00    +0.000 C 
BRANCH  10  11
ATOM     11  C   UNL     1      49.636  10.443  18.440  0.00  0.00    +0.000 C 
ATOM     12  C   UNL     1      48.140  10.132  18.288  0.00  0.00    +0.000 C 
ATOM     13  C   UNL     1      47.863   9.296  17.039  0.00  0.00    +0.000 C 
ATOM     14  N   UNL     1      48.335   9.970  15.828  0.00  0.00    +0.000 NA
ATOM     15  C   UNL     1      49.764  10.282  15.901  0.00  0.00    +0.000 C 
ATOM     16  C   UNL     1      50.118  11.110  17.140  0.00  0.00    +0.000 C 
ATOM     17  H   UNL     1      47.816  10.840  15.713  0.00  0.00    +0.000 HD
ENDBRANCH  10  11
ENDBRANCH   9  10
ENDBRANCH   8   9
ENDBRANCH   5   8
ENDBRANCH   1   2
BRANCH   1  20
ATOM     18  C   UNL     1      46.786   4.202  14.157  0.00  0.00    +0.000 C 
ATOM     19  O   UNL     1      47.424   3.262  13.690  0.00  0.00    +0.000 OA
ATOM     20  N   UNL     1      46.781   4.459  15.500  0.00  0.00    +0.000 N 
ATOM     21  H   UNL     1      46.298   5.270  15.860  0.00  0.00    +0.000 HD
BRANCH  18  29
ATOM     22  C   UNL     1      46.987   7.551  13.394  0.00  0.00    +0.000 A 
ATOM     23  N   UNL     1      46.831   8.810  12.941  0.00  0.00    +0.000 NA
ATOM     24  C   UNL     1      45.808   9.058  12.119  0.00  0.00    +0.000 A 
ATOM     25  N   UNL     1      44.902   8.187  11.682  0.00  0.00    +0.000 NA
ATOM     26  C   UNL     1      45.099   6.944  12.151  0.00  0.00    +0.000 A 
ATOM     27  S   UNL     1      44.038   5.700  11.695  0.00  0.00    +0.000 S 
ATOM     28  C   UNL     1      44.891   4.563  12.628  0.00  0.00    +0.000 A 
ATOM     29  C   UNL     1      45.987   5.095  13.300  0.00  0.00    +0.000 A 
ATOM     30  C   UNL     1      46.113   6.520  13.007  0.00  0.00    +0.000 A 
BRANCH  22  32
ATOM     31  C   UNL     1      49.314   7.360  13.532  0.00  0.00    +0.000 C 
ATOM     32  O   UNL     1      48.064   7.291  14.216  0.00  0.00    +0.000 OA
ENDBRANCH  22  32
ENDBRANCH  18  29
ENDBRANCH   1  20
TORSDOF 8
ENDMDL
MODEL 8
REMARK VINA RESULT:    -6.008      3.717      8.595
REMARK INTER + INTRA:         -10.059
REMARK INTER:                  -8.046
REMARK INTRA:                  -2.013
REMARK UNBOUND:                -1.241
REMARK  Name = 
REMARK  9 active torsions:
REMARK  status: ('A' for Active; 'I' for Inactive)
REMARK    1  A    between atoms: C_1  and  O_2
REMARK    2  A    between atoms: O_2  and  C_3
REMARK    3  A    between atoms: C_10  and  C_11
REMARK    4  A    between atoms: N_13  and  C_14
REMARK    5  A    between atoms: C_14  and  C_15
REMARK    6  A    between atoms: C_18  and  O_19
REMARK    7  A    between atoms: O_19  and  C_20
REMARK    8  A    between atoms: C_20  and  C_21
REMARK    9  A    between atoms: C_21  and  C_22
REMARK                            x       y       z     vdW  Elec       q    Type
REMARK                         _______ _______ _______ _____ _____    ______ ____
ROOT
ATOM      1  C   UNL     1      48.252   8.711  14.152  0.00  0.00    +0.000 C 
ENDROOT
BRANCH   1   2
ATOM      2  C   UNL     1      48.784   8.477  15.543  0.00  0.00    +0.000 A 
ATOM      3  C   UNL     1      48.045   8.872  16.668  0.00  0.00    +0.000 A 
ATOM      4  C   UNL     1      48.524   8.625  17.960  0.00  0.00    +0.000 A 
ATOM      5  C   UNL     1      49.745   7.978  18.140  0.00  0.00    +0.000 A 
ATOM      6  C   UNL     1      50.519   7.650  17.029  0.00  0.00    +0.000 A 
ATOM      7  C   UNL     1      50.043   7.892  15.737  0.00  0.00    +0.000 A 
BRANCH   5   8
ATOM      8  O   UNL     1      50.281   7.634  19.350  0.00  0.00    +0.000 OA
BRANCH   8   9
ATOM      9  C   UNL     1      49.600   6.587  20.051  0.00  0.00    +0.000 C 
BRANCH   9  10
ATOM     10  C   UNL     1      49.735   5.308  19.225  0.00  0.00    +0.000 C 
BRANCH  10  11
ATOM     11  C   UNL     1      48.420   4.513  19.084  0.00  0.00    +0.000 C 
ATOM     12  C   UNL     1      48.626   3.033  18.724  0.00  0.00    +0.000 C 
ATOM     13  C   UNL     1      49.168   2.869  17.304  0.00  0.00    +0.000 C 
ATOM     14  N   UNL     1      48.276   3.479  16.317  0.00  0.00    +0.000 NA
ATOM     15  C   UNL     1      48.048   4.900  16.594  0.00  0.00    +0.000 C 
ATOM     16  C   UNL     1      47.516   5.142  18.009  0.00  0.00    +0.000 C 
ATOM     17  H   UNL     1      47.378   2.995  16.341  0.00  0.00    +0.000 HD
ENDBRANCH  10  11
ENDBRANCH   9  10
ENDBRANCH   8   9
ENDBRANCH   5   8
ENDBRANCH   1   2
BRANCH   1  20
ATOM     18  C   UNL     1      47.642   6.542  13.161  0.00  0.00    +0.000 C 
ATOM     19  O   UNL     1      48.812   6.303  12.877  0.00  0.00    +0.000 OA
ATOM     20  N   UNL     1      47.288   7.705  13.789  0.00  0.00    +0.000 N 
ATOM     21  H   UNL     1      46.315   7.912  13.963  0.00  0.00    +0.000 HD
BRANCH  18  29
ATOM     22  C   UNL     1      44.497   6.895  11.811  0.00  0.00    +0.000 A 
ATOM     23  N   UNL     1      43.249   6.751  11.326  0.00  0.00    +0.000 NA
ATOM     24  C   UNL     1      42.721   5.524  11.309  0.00  0.00    +0.000 A 
ATOM     25  N   UNL     1      43.295   4.399  11.725  0.00  0.00    +0.000 NA
ATOM     26  C   UNL     1      44.540   4.586  12.193  0.00  0.00    +0.000 A 
ATOM     27  S   UNL     1      45.428   3.257  12.766  0.00  0.00    +0.000 S 
ATOM     28  C   UNL     1      46.757   4.245  13.146  0.00  0.00    +0.000 A 
ATOM     29  C   UNL     1      46.561   5.591  12.851  0.00  0.00    +0.000 A 
ATOM     30  C   UNL     1      45.234   5.791  12.275  0.00  0.00    +0.000 A 
BRANCH  22  32
ATOM     31  C   UNL     1      44.240   9.114  11.119  0.00  0.00    +0.000 C 
ATOM     32  O   UNL     1      45.053   8.157  11.795  0.00  0.00    +0.000 OA
ENDBRANCH  22  32
ENDBRANCH  18  29
ENDBRANCH   1  20
TORSDOF 8
ENDMDL
MODEL 9
REMARK VINA RESULT:    -5.869      3.977      8.378
REMARK INTER + INTRA:          -9.854
REMARK INTER:                  -8.273
REMARK INTRA:                  -1.582
REMARK UNBOUND:                -1.241
REMARK  Name = 
REMARK  9 active torsions:
REMARK  status: ('A' for Active; 'I' for Inactive)
REMARK    1  A    between atoms: C_1  and  O_2
REMARK    2  A    between atoms: O_2  and  C_3
REMARK    3  A    between atoms: C_10  and  C_11
REMARK    4  A    between atoms: N_13  and  C_14
REMARK    5  A    between atoms: C_14  and  C_15
REMARK    6  A    between atoms: C_18  and  O_19
REMARK    7  A    between atoms: O_19  and  C_20
REMARK    8  A    between atoms: C_20  and  C_21
REMARK    9  A    between atoms: C_21  and  C_22
REMARK                            x       y       z     vdW  Elec       q    Type
REMARK                         _______ _______ _______ _____ _____    ______ ____
ROOT
ATOM      1  C   UNL     1      48.135   9.369  13.235  0.00  0.00    +0.000 C 
ENDROOT
BRANCH   1   2
ATOM      2  C   UNL     1      48.888   8.740  14.381  0.00  0.00    +0.000 A 
ATOM      3  C   UNL     1      50.157   8.180  14.180  0.00  0.00    +0.000 A 
ATOM      4  C   UNL     1      50.871   7.626  15.249  0.00  0.00    +0.000 A 
ATOM      5  C   UNL     1      50.322   7.629  16.531  0.00  0.00    +0.000 A 
ATOM      6  C   UNL     1      49.031   8.116  16.724  0.00  0.00    +0.000 A 
ATOM      7  C   UNL     1      48.317   8.673  15.659  0.00  0.00    +0.000 A 
BRANCH   5   8
ATOM      8  O   UNL     1      50.950   7.170  17.655  0.00  0.00    +0.000 OA
BRANCH   8   9
ATOM      9  C   UNL     1      51.442   5.827  17.583  0.00  0.00    +0.000 C 
BRANCH   9  10
ATOM     10  C   UNL     1      50.261   4.914  17.252  0.00  0.00    +0.000 C 
BRANCH  10  11
ATOM     11  C   UNL     1      49.634   4.230  18.486  0.00  0.00    +0.000 C 
ATOM     12  C   UNL     1      49.071   2.829  18.198  0.00  0.00    +0.000 C 
ATOM     13  C   UNL     1      47.839   2.892  17.297  0.00  0.00    +0.000 C 
ATOM     14  N   UNL     1      46.784   3.716  17.889  0.00  0.00    +0.000 NA
ATOM     15  C   UNL     1      47.251   5.075  18.175  0.00  0.00    +0.000 C 
ATOM     16  C   UNL     1      48.497   5.089  19.066  0.00  0.00    +0.000 C 
ATOM     17  H   UNL     1      46.481   3.285  18.763  0.00  0.00    +0.000 HD
ENDBRANCH  10  11
ENDBRANCH   9  10
ENDBRANCH   8   9
ENDBRANCH   5   8
ENDBRANCH   1   2
BRANCH   1  20
ATOM     18  C   UNL     1      46.866   7.589  12.106  0.00  0.00    +0.000 C 
ATOM     19  O   UNL     1      47.872   7.188  11.528  0.00  0.00    +0.000 OA
ATOM     20  N   UNL     1      46.915   8.656  12.961  0.00  0.00    +0.000 N 
ATOM     21  H   UNL     1      46.068   9.009  13.383  0.00  0.00    +0.000 HD
BRANCH  18  29
ATOM     22  C   UNL     1      45.686   4.416  12.723  0.00  0.00    +0.000 A 
ATOM     23  N   UNL     1      44.982   3.275  12.852  0.00  0.00    +0.000 NA
ATOM     24  C   UNL     1      43.708   3.276  12.452  0.00  0.00    +0.000 A 
ATOM     25  N   UNL     1      43.034   4.296  11.928  0.00  0.00    +0.000 NA
ATOM     26  C   UNL     1      43.770   5.415  11.823  0.00  0.00    +0.000 A 
ATOM     27  S   UNL     1      43.071   6.820  11.177  0.00  0.00    +0.000 S 
ATOM     28  C   UNL     1      44.520   7.688  11.366  0.00  0.00    +0.000 A 
ATOM     29  C   UNL     1      45.556   6.941  11.918  0.00  0.00    +0.000 A 
ATOM     30  C   UNL     1      45.102   5.581  12.196  0.00  0.00    +0.000 A 
BRANCH  22  32
ATOM     31  C   UNL     1      47.129   4.973  14.477  0.00  0.00    +0.000 C 
ATOM     32  O   UNL     1      46.992   4.422  13.169  0.00  0.00    +0.000 OA
ENDBRANCH  22  32
ENDBRANCH  18  29
ENDBRANCH   1  20
TORSDOF 8
ENDMDL
