MODEL 1
REMARK VINA RESULT:    -7.596      0.000      0.000
REMARK INTER + INTRA:         -10.493
REMARK INTER:                 -10.261
REMARK INTRA:                  -0.233
REMARK UNBOUND:                -0.233
REMARK  Name = 
REMARK  9 active torsions:
REMARK  status: ('A' for Active; 'I' for Inactive)
REMARK    1  A    between atoms: C_1  and  O_2
REMARK    2  A    between atoms: O_2  and  C_3
REMARK    3  A    between atoms: C_3  and  C_5
REMARK    4  A    between atoms: C_8  and  O_9
REMARK    5  A    between atoms: O_9  and  C_10
REMARK    6  A    between atoms: C_10  and  C_11
REMARK    7  A    between atoms: C_11  and  C_12
REMARK    8  A    between atoms: C_11  and  C_13
REMARK    9  A    between atoms: C_11  and  C_14
REMARK                            x       y       z     vdW  Elec       q    Type
REMARK                         _______ _______ _______ _____ _____    ______ ____
ROOT
ATOM      1  O   UNL     1      43.722   4.702   9.667  0.00  0.00    +0.000 OA
ENDROOT
BRANCH   1   5
ATOM      2  C   UNL     1      46.364   2.060   7.817  0.00  0.00    +0.000 A 
ATOM      3  C   UNL     1      46.470   3.424   7.523  0.00  0.00    +0.000 A 
ATOM      4  C   UNL     1      45.596   4.340   8.120  0.00  0.00    +0.000 A 
ATOM      5  C   UNL     1      44.618   3.901   9.012  0.00  0.00    +0.000 A 
ATOM      6  C   UNL     1      44.510   2.538   9.297  0.00  0.00    +0.000 A 
ATOM      7  C   UNL     1      45.385   1.619   8.712  0.00  0.00    +0.000 A 
BRANCH   2   8
ATOM      8  C   UNL     1      47.282   1.061   7.217  0.00  0.00    +0.000 C 
ATOM      9  O   UNL     1      47.089  -0.143   7.248  0.00  0.00    +0.000 OA
BRANCH   8  11
ATOM     10  C   UNL     1      47.981   2.233   5.323  0.00  0.00    +0.000 C 
ATOM     11  O   UNL     1      48.312   1.696   6.603  0.00  0.00    +0.000 OA
ENDBRANCH   8  11
ENDBRANCH   2   8
ENDBRANCH   1   5
BRANCH   1  12
ATOM     12  C   UNL     1      43.361   4.318  10.999  0.00  0.00    +0.000 C 
BRANCH  12  13
ATOM     13  C   UNL     1      43.698   5.447  12.019  0.00  0.00    +0.000 C 
ATOM     14  C   UNL     1      43.285   6.802  11.402  0.00  0.00    +0.000 C 
ATOM     15  C   UNL     1      42.823   5.185  13.268  0.00  0.00    +0.000 C 
BRANCH  13  16
ATOM     16  C   UNL     1      45.180   5.493  12.444  0.00  0.00    +0.000 A 
ATOM     17  C   UNL     1      46.100   6.406  11.912  0.00  0.00    +0.000 A 
ATOM     18  C   UNL     1      47.417   6.393  12.352  0.00  0.00    +0.000 A 
ATOM     19  N   UNL     1      47.896   5.532  13.272  0.00  0.00    +0.000 NA
ATOM     20  C   UNL     1      47.008   4.651  13.777  0.00  0.00    +0.000 A 
ATOM     21  C   UNL     1      45.672   4.596  13.405  0.00  0.00    +0.000 A 
ENDBRANCH  13  16
ENDBRANCH  12  13
ENDBRANCH   1  12
TORSDOF 6
ENDMDL
MODEL 2
REMARK VINA RESULT:    -6.680      1.131      2.218
REMARK INTER + INTRA:          -9.256
REMARK INTER:                  -8.905
REMARK INTRA:                  -0.351
REMARK UNBOUND:                -0.233
REMARK  Name = 
REMARK  9 active torsions:
REMARK  status: ('A' for Active; 'I' for Inactive)
REMARK    1  A    between atoms: C_1  and  O_2
REMARK    2  A    between atoms: O_2  and  C_3
REMARK    3  A    between atoms: C_3  and  C_5
REMARK    4  A    between atoms: C_8  and  O_9
REMARK    5  A    between atoms: O_9  and  C_10
REMARK    6  A    between atoms: C_10  and  C_11
REMARK    7  A    between atoms: C_11  and  C_12
REMARK    8  A    between atoms: C_11  and  C_13
REMARK    9  A    between atoms: C_11  and  C_14
REMARK                            x       y       z     vdW  Elec       q    Type
REMARK                         _______ _______ _______ _____ _____    ______ ____
ROOT
ATOM      1  O   UNL     1      44.118   5.014   9.661  0.00  0.00    +0.000 OA
ENDROOT
BRANCH   1   5
ATOM      2  C   UNL     1      46.450   2.090   7.818  0.00  0.00    +0.000 A 
ATOM      3  C   UNL     1      45.471   1.684   8.732  0.00  0.00    +0.000 A 
ATOM      4  C   UNL     1      44.673   2.638   9.375  0.00  0.00    +0.000 A 
ATOM      5  C   UNL     1      44.846   3.996   9.108  0.00  0.00    +0.000 A 
ATOM      6  C   UNL     1      45.830   4.398   8.200  0.00  0.00    +0.000 A 
ATOM      7  C   UNL     1      46.624   3.450   7.548  0.00  0.00    +0.000 A 
BRANCH   2   8
ATOM      8  C   UNL     1      47.303   1.109   7.105  0.00  0.00    +0.000 C 
ATOM      9  O   UNL     1      48.003   1.388   6.146  0.00  0.00    +0.000 OA
BRANCH   8  11
ATOM     10  C   UNL     1      46.459  -1.064   6.981  0.00  0.00    +0.000 C 
ATOM     11  O   UNL     1      47.216  -0.101   7.713  0.00  0.00    +0.000 OA
ENDBRANCH   8  11
ENDBRANCH   2   8
ENDBRANCH   1   5
BRANCH   1  12
ATOM     12  C   UNL     1      43.274   4.681  10.769  0.00  0.00    +0.000 C 
BRANCH  12  13
ATOM     13  C   UNL     1      44.014   4.897  12.124  0.00  0.00    +0.000 C 
ATOM     14  C   UNL     1      42.960   5.196  13.213  0.00  0.00    +0.000 C 
ATOM     15  C   UNL     1      44.708   3.556  12.463  0.00  0.00    +0.000 C 
BRANCH  13  16
ATOM     16  C   UNL     1      45.072   6.018  12.094  0.00  0.00    +0.000 A 
ATOM     17  C   UNL     1      46.447   5.774  12.194  0.00  0.00    +0.000 A 
ATOM     18  C   UNL     1      47.341   6.836  12.149  0.00  0.00    +0.000 A 
ATOM     19  N   UNL     1      46.973   8.127  12.026  0.00  0.00    +0.000 NA
ATOM     20  C   UNL     1      45.648   8.358  11.936  0.00  0.00    +0.000 A 
ATOM     21  C   UNL     1      44.682   7.361  11.962  0.00  0.00    +0.000 A 
ENDBRANCH  13  16
ENDBRANCH  12  13
ENDBRANCH   1  12
TORSDOF 6
ENDMDL
MODEL 3
REMARK VINA RESULT:    -6.440      3.275      6.884
REMARK INTER + INTRA:          -8.932
REMARK INTER:                  -8.342
REMARK INTRA:                  -0.590
REMARK UNBOUND:                -0.233
REMARK  Name = 
REMARK  9 active torsions:
REMARK  status: ('A' for Active; 'I' for Inactive)
REMARK    1  A    between atoms: C_1  and  O_2
REMARK    2  A    between atoms: O_2  and  C_3
REMARK    3  A    between atoms: C_3  and  C_5
REMARK    4  A    between atoms: C_8  and  O_9
REMARK    5  A    between atoms: O_9  and  C_10
REMARK    6  A    between atoms: C_10  and  C_11
REMARK    7  A    between atoms: C_11  and  C_12
REMARK    8  A    between atoms: C_11  and  C_13
REMARK    9  A    between atoms: C_11  and  C_14
REMARK                            x       y       z     vdW  Elec       q    Type
REMARK                         _______ _______ _______ _____ _____    ______ ____
ROOT
ATOM      1  O   UNL     1      44.915   4.871  10.880  0.00  0.00    +0.000 OA
ENDROOT
BRANCH   1   5
ATOM      2  C   UNL     1      47.412   5.656  14.125  0.00  0.00    +0.000 A 
ATOM      3  C   UNL     1      47.260   6.644  13.147  0.00  0.00    +0.000 A 
ATOM      4  C   UNL     1      46.434   6.414  12.040  0.00  0.00    +0.000 A 
ATOM      5  C   UNL     1      45.758   5.202  11.906  0.00  0.00    +0.000 A 
ATOM      6  C   UNL     1      45.919   4.214  12.881  0.00  0.00    +0.000 A 
ATOM      7  C   UNL     1      46.734   4.440  13.993  0.00  0.00    +0.000 A 
BRANCH   2   8
ATOM      8  C   UNL     1      48.265   5.868  15.320  0.00  0.00    +0.000 C 
ATOM      9  O   UNL     1      48.835   6.918  15.569  0.00  0.00    +0.000 OA
BRANCH   8  11
ATOM     10  C   UNL     1      48.121   5.013  17.487  0.00  0.00    +0.000 C 
ATOM     11  O   UNL     1      48.260   4.752  16.091  0.00  0.00    +0.000 OA
ENDBRANCH   8  11
ENDBRANCH   2   8
ENDBRANCH   1   5
BRANCH   1  12
ATOM     12  C   UNL     1      45.498   4.732   9.579  0.00  0.00    +0.000 C 
BRANCH  12  13
ATOM     13  C   UNL     1      44.978   3.447   8.865  0.00  0.00    +0.000 C 
ATOM     14  C   UNL     1      44.352   2.517   9.928  0.00  0.00    +0.000 C 
ATOM     15  C   UNL     1      43.866   3.906   7.892  0.00  0.00    +0.000 C 
BRANCH  13  16
ATOM     16  C   UNL     1      46.058   2.686   8.070  0.00  0.00    +0.000 A 
ATOM     17  C   UNL     1      46.981   3.321   7.230  0.00  0.00    +0.000 A 
ATOM     18  C   UNL     1      47.932   2.568   6.554  0.00  0.00    +0.000 A 
ATOM     19  N   UNL     1      48.028   1.226   6.637  0.00  0.00    +0.000 NA
ATOM     20  C   UNL     1      47.134   0.617   7.442  0.00  0.00    +0.000 A 
ATOM     21  C   UNL     1      46.155   1.288   8.164  0.00  0.00    +0.000 A 
ENDBRANCH  13  16
ENDBRANCH  12  13
ENDBRANCH   1  12
TORSDOF 6
ENDMDL
MODEL 4
REMARK VINA RESULT:    -6.369      3.528      6.477
REMARK INTER + INTRA:          -8.836
REMARK INTER:                  -7.975
REMARK INTRA:                  -0.861
REMARK UNBOUND:                -0.233
REMARK  Name = 
REMARK  9 active torsions:
REMARK  status: ('A' for Active; 'I' for Inactive)
REMARK    1  A    between atoms: C_1  and  O_2
REMARK    2  A    between atoms: O_2  and  C_3
REMARK    3  A    between atoms: C_3  and  C_5
REMARK    4  A    between atoms: C_8  and  O_9
REMARK    5  A    between atoms: O_9  and  C_10
REMARK    6  A    between atoms: C_10  and  C_11
REMARK    7  A    between atoms: C_11  and  C_12
REMARK    8  A    between atoms: C_11  and  C_13
REMARK    9  A    between atoms: C_11  and  C_14
REMARK                            x       y       z     vdW  Elec       q    Type
REMARK                         _______ _______ _______ _____ _____    ______ ____
ROOT
ATOM      1  O   UNL     1      44.720   6.066  12.746  0.00  0.00    +0.000 OA
ENDROOT
BRANCH   1   5
ATOM      2  C   UNL     1      47.855   8.725  12.050  0.00  0.00    +0.000 A 
ATOM      3  C   UNL     1      46.657   9.228  12.568  0.00  0.00    +0.000 A 
ATOM      4  C   UNL     1      45.580   8.367  12.809  0.00  0.00    +0.000 A 
ATOM      5  C   UNL     1      45.695   7.004  12.537  0.00  0.00    +0.000 A 
ATOM      6  C   UNL     1      46.891   6.506  12.012  0.00  0.00    +0.000 A 
ATOM      7  C   UNL     1      47.973   7.359  11.777  0.00  0.00    +0.000 A 
BRANCH   2   8
ATOM      8  C   UNL     1      49.023   9.604  11.797  0.00  0.00    +0.000 C 
ATOM      9  O   UNL     1      50.171   9.200  11.711  0.00  0.00    +0.000 OA
BRANCH   8  11
ATOM     10  C   UNL     1      48.992  11.461  10.383  0.00  0.00    +0.000 C 
ATOM     11  O   UNL     1      48.606  10.884  11.630  0.00  0.00    +0.000 OA
ENDBRANCH   8  11
ENDBRANCH   2   8
ENDBRANCH   1   5
BRANCH   1  12
ATOM     12  C   UNL     1      45.060   4.703  12.464  0.00  0.00    +0.000 C 
BRANCH  12  13
ATOM     13  C   UNL     1      44.117   4.103  11.378  0.00  0.00    +0.000 C 
ATOM     14  C   UNL     1      43.416   2.861  11.973  0.00  0.00    +0.000 C 
ATOM     15  C   UNL     1      43.047   5.180  11.081  0.00  0.00    +0.000 C 
BRANCH  13  16
ATOM     16  C   UNL     1      44.828   3.725  10.063  0.00  0.00    +0.000 A 
ATOM     17  C   UNL     1      45.361   4.674   9.182  0.00  0.00    +0.000 A 
ATOM     18  C   UNL     1      45.997   4.256   8.020  0.00  0.00    +0.000 A 
ATOM     19  N   UNL     1      46.134   2.965   7.658  0.00  0.00    +0.000 NA
ATOM     20  C   UNL     1      45.614   2.055   8.506  0.00  0.00    +0.000 A 
ATOM     21  C   UNL     1      44.970   2.378   9.693  0.00  0.00    +0.000 A 
ENDBRANCH  13  16
ENDBRANCH  12  13
ENDBRANCH   1  12
TORSDOF 6
ENDMDL
MODEL 5
REMARK VINA RESULT:    -6.238      3.813      6.218
REMARK INTER + INTRA:          -8.659
REMARK INTER:                  -8.067
REMARK INTRA:                  -0.592
REMARK UNBOUND:                -0.233
REMARK  Name = 
REMARK  9 active torsions:
REMARK  status: ('A' for Active; 'I' for Inactive)
REMARK    1  A    between atoms: C_1  and  O_2
REMARK    2  A    between atoms: O_2  and  C_3
REMARK    3  A    between atoms: C_3  and  C_5
REMARK    4  A    between atoms: C_8  and  O_9
REMARK    5  A    between atoms: O_9  and  C_10
REMARK    6  A    between atoms: C_10  and  C_11
REMARK    7  A    between atoms: C_11  and  C_12
REMARK    8  A    between atoms: C_11  and  C_13
REMARK    9  A    between atoms: C_11  and  C_14
REMARK                            x       y       z     vdW  Elec       q    Type
REMARK                         _______ _______ _______ _____ _____    ______ ____
ROOT
ATOM      1  O   UNL     1      47.879   5.046  14.699  0.00  0.00    +0.000 OA
ENDROOT
BRANCH   1   5
ATOM      2  C   UNL     1      45.020   4.717  11.681  0.00  0.00    +0.000 A 
ATOM      3  C   UNL     1      45.592   5.971  11.924  0.00  0.00    +0.000 A 
ATOM      4  C   UNL     1      46.551   6.121  12.933  0.00  0.00    +0.000 A 
ATOM      5  C   UNL     1      46.943   5.025  13.700  0.00  0.00    +0.000 A 
ATOM      6  C   UNL     1      46.364   3.776  13.460  0.00  0.00    +0.000 A 
ATOM      7  C   UNL     1      45.413   3.617  12.448  0.00  0.00    +0.000 A 
BRANCH   2   8
ATOM      8  C   UNL     1      44.014   4.515  10.611  0.00  0.00    +0.000 C 
ATOM      9  O   UNL     1      43.005   5.190  10.491  0.00  0.00    +0.000 OA
BRANCH   8  11
ATOM     10  C   UNL     1      44.861   3.975   8.503  0.00  0.00    +0.000 C 
ATOM     11  O   UNL     1      44.421   3.520   9.782  0.00  0.00    +0.000 OA
ENDBRANCH   8  11
ENDBRANCH   2   8
ENDBRANCH   1   5
BRANCH   1  12
ATOM     12  C   UNL     1      47.521   4.421  15.936  0.00  0.00    +0.000 C 
BRANCH  12  13
ATOM     13  C   UNL     1      48.459   4.885  17.092  0.00  0.00    +0.000 C 
ATOM     14  C   UNL     1      48.917   6.330  16.798  0.00  0.00    +0.000 C 
ATOM     15  C   UNL     1      47.600   4.890  18.379  0.00  0.00    +0.000 C 
BRANCH  13  16
ATOM     16  C   UNL     1      49.687   3.978  17.312  0.00  0.00    +0.000 A 
ATOM     17  C   UNL     1      50.927   4.463  17.746  0.00  0.00    +0.000 A 
ATOM     18  C   UNL     1      51.985   3.582  17.931  0.00  0.00    +0.000 A 
ATOM     19  N   UNL     1      51.911   2.256  17.704  0.00  0.00    +0.000 NA
ATOM     20  C   UNL     1      50.717   1.795  17.279  0.00  0.00    +0.000 A 
ATOM     21  C   UNL     1      49.602   2.597  17.075  0.00  0.00    +0.000 A 
ENDBRANCH  13  16
ENDBRANCH  12  13
ENDBRANCH   1  12
TORSDOF 6
ENDMDL
MODEL 6
REMARK VINA RESULT:    -6.034      4.192      7.588
REMARK INTER + INTRA:          -8.384
REMARK INTER:                  -7.723
REMARK INTRA:                  -0.661
REMARK UNBOUND:                -0.233
REMARK  Name = 
REMARK  9 active torsions:
REMARK  status: ('A' for Active; 'I' for Inactive)
REMARK    1  A    between atoms: C_1  and  O_2
REMARK    2  A    between atoms: O_2  and  C_3
REMARK    3  A    between atoms: C_3  and  C_5
REMARK    4  A    between atoms: C_8  and  O_9
REMARK    5  A    between atoms: O_9  and  C_10
REMARK    6  A    between atoms: C_10  and  C_11
REMARK    7  A    between atoms: C_11  and  C_12
REMARK    8  A    between atoms: C_11  and  C_13
REMARK    9  A    between atoms: C_11  and  C_14
REMARK                            x       y       z     vdW  Elec       q    Type
REMARK                         _______ _______ _______ _____ _____    ______ ____
ROOT
ATOM      1  O   UNL     1      46.302   4.650  12.925  0.00  0.00    +0.000 OA
ENDROOT
BRANCH   1   5
ATOM      2  C   UNL     1      48.550   5.907  16.204  0.00  0.00    +0.000 A 
ATOM      3  C   UNL     1      48.575   6.684  15.041  0.00  0.00    +0.000 A 
ATOM      4  C   UNL     1      47.838   6.291  13.918  0.00  0.00    +0.000 A 
ATOM      5  C   UNL     1      47.074   5.125  13.952  0.00  0.00    +0.000 A 
ATOM      6  C   UNL     1      47.057   4.347  15.112  0.00  0.00    +0.000 A 
ATOM      7  C   UNL     1      47.783   4.739  16.240  0.00  0.00    +0.000 A 
BRANCH   2   8
ATOM      8  C   UNL     1      49.304   6.300  17.419  0.00  0.00    +0.000 C 
ATOM      9  O   UNL     1      50.476   6.638  17.412  0.00  0.00    +0.000 OA
BRANCH   8  11
ATOM     10  C   UNL     1      49.053   5.648  19.647  0.00  0.00    +0.000 C 
ATOM     11  O   UNL     1      48.482   6.272  18.498  0.00  0.00    +0.000 OA
ENDBRANCH   8  11
ENDBRANCH   2   8
ENDBRANCH   1   5
BRANCH   1  12
ATOM     12  C   UNL     1      44.884   4.792  13.060  0.00  0.00    +0.000 C 
BRANCH  12  13
ATOM     13  C   UNL     1      44.235   5.245  11.716  0.00  0.00    +0.000 C 
ATOM     14  C   UNL     1      42.701   5.274  11.901  0.00  0.00    +0.000 C 
ATOM     15  C   UNL     1      44.729   6.687  11.454  0.00  0.00    +0.000 C 
BRANCH  13  16
ATOM     16  C   UNL     1      44.602   4.360  10.508  0.00  0.00    +0.000 A 
ATOM     17  C   UNL     1      44.270   3.002  10.425  0.00  0.00    +0.000 A 
ATOM     18  C   UNL     1      44.627   2.272   9.299  0.00  0.00    +0.000 A 
ATOM     19  N   UNL     1      45.302   2.785   8.251  0.00  0.00    +0.000 NA
ATOM     20  C   UNL     1      45.625   4.091   8.338  0.00  0.00    +0.000 A 
ATOM     21  C   UNL     1      45.303   4.901   9.418  0.00  0.00    +0.000 A 
ENDBRANCH  13  16
ENDBRANCH  12  13
ENDBRANCH   1  12
TORSDOF 6
ENDMDL
MODEL 7
REMARK VINA RESULT:    -5.998      3.605      6.154
REMARK INTER + INTRA:          -8.335
REMARK INTER:                  -7.626
REMARK INTRA:                  -0.708
REMARK UNBOUND:                -0.233
REMARK  Name = 
REMARK  9 active torsions:
REMARK  status: ('A' for Active; 'I' for Inactive)
REMARK    1  A    between atoms: C_1  and  O_2
REMARK    2  A    between atoms: O_2  and  C_3
REMARK    3  A    between atoms: C_3  and  C_5
REMARK    4  A    between atoms: C_8  and  O_9
REMARK    5  A    between atoms: O_9  and  C_10
REMARK    6  A    between atoms: C_10  and  C_11
REMARK    7  A    between atoms: C_11  and  C_12
REMARK    8  A    between atoms: C_11  and  C_13
REMARK    9  A    between atoms: C_11  and  C_14
REMARK                            x       y       z     vdW  Elec       q    Type
REMARK                         _______ _______ _______ _____ _____    ______ ____
ROOT
ATOM      1  O   UNL     1      48.438   5.877  13.882  0.00  0.00    +0.000 OA
ENDROOT
BRANCH   1   5
ATOM      2  C   UNL     1      45.105   4.752  11.644  0.00  0.00    +0.000 A 
ATOM      3  C   UNL     1      45.782   5.923  11.288  0.00  0.00    +0.000 A 
ATOM      4  C   UNL     1      46.901   6.336  12.020  0.00  0.00    +0.000 A 
ATOM      5  C   UNL     1      47.350   5.583  13.104  0.00  0.00    +0.000 A 
ATOM      6  C   UNL     1      46.667   4.417  13.461  0.00  0.00    +0.000 A 
ATOM      7  C   UNL     1      45.554   3.995  12.729  0.00  0.00    +0.000 A 
BRANCH   2   8
ATOM      8  C   UNL     1      43.925   4.274  10.882  0.00  0.00    +0.000 C 
ATOM      9  O   UNL     1      43.752   3.110  10.559  0.00  0.00    +0.000 OA
BRANCH   8  11
ATOM     10  C   UNL     1      42.235   5.614  11.773  0.00  0.00    +0.000 C 
ATOM     11  O   UNL     1      43.073   5.306  10.661  0.00  0.00    +0.000 OA
ENDBRANCH   8  11
ENDBRANCH   2   8
ENDBRANCH   1   5
BRANCH   1  12
ATOM     12  C   UNL     1      48.317   6.992  14.772  0.00  0.00    +0.000 C 
BRANCH  12  13
ATOM     13  C   UNL     1      49.111   6.746  16.091  0.00  0.00    +0.000 C 
ATOM     14  C   UNL     1      50.618   6.894  15.788  0.00  0.00    +0.000 C 
ATOM     15  C   UNL     1      48.691   7.868  17.071  0.00  0.00    +0.000 C 
BRANCH  13  16
ATOM     16  C   UNL     1      48.838   5.378  16.747  0.00  0.00    +0.000 A 
ATOM     17  C   UNL     1      49.857   4.522  17.183  0.00  0.00    +0.000 A 
ATOM     18  C   UNL     1      49.532   3.308  17.775  0.00  0.00    +0.000 A 
ATOM     19  N   UNL     1      48.270   2.871  17.954  0.00  0.00    +0.000 NA
ATOM     20  C   UNL     1      47.292   3.695  17.527  0.00  0.00    +0.000 A 
ATOM     21  C   UNL     1      47.520   4.929  16.933  0.00  0.00    +0.000 A 
ENDBRANCH  13  16
ENDBRANCH  12  13
ENDBRANCH   1  12
TORSDOF 6
ENDMDL
MODEL 8
REMARK VINA RESULT:    -5.861      3.257      5.647
REMARK INTER + INTRA:          -8.149
REMARK INTER:                  -7.392
REMARK INTRA:                  -0.757
REMARK UNBOUND:                -0.233
REMARK  Name = 
REMARK  9 active torsions:
REMARK  status: ('A' for Active; 'I' for Inactive)
REMARK    1  A    between atoms: C_1  and  O_2
REMARK    2  A    between atoms: O_2  and  C_3
REMARK    3  A    between atoms: C_3  and  C_5
REMARK    4  A    between atoms: C_8  and  O_9
REMARK    5  A    between atoms: O_9  and  C_10
REMARK    6  A    between atoms: C_10  and  C_11
REMARK    7  A    between atoms: C_11  and  C_12
REMARK    8  A    between atoms: C_11  and  C_13
REMARK    9  A    between atoms: C_11  and  C_14
REMARK                            x       y       z     vdW  Elec       q    Type
REMARK                         _______ _______ _______ _____ _____    ______ ____
ROOT
ATOM      1  O   UNL     1      47.342   7.019  13.410  0.00  0.00    +0.000 OA
ENDROOT
BRANCH   1   5
ATOM      2  C   UNL     1      44.860   4.255  11.517  0.00  0.00    +0.000 A 
ATOM      3  C   UNL     1      45.382   3.931  12.774  0.00  0.00    +0.000 A 
ATOM      4  C   UNL     1      46.224   4.831  13.437  0.00  0.00    +0.000 A 
ATOM      5  C   UNL     1      46.546   6.056  12.853  0.00  0.00    +0.000 A 
ATOM      6  C   UNL     1      46.029   6.373  11.593  0.00  0.00    +0.000 A 
ATOM      7  C   UNL     1      45.180   5.482  10.930  0.00  0.00    +0.000 A 
BRANCH   2   8
ATOM      8  C   UNL     1      43.952   3.335  10.791  0.00  0.00    +0.000 C 
ATOM      9  O   UNL     1      43.033   2.731  11.320  0.00  0.00    +0.000 OA
BRANCH   8  11
ATOM     10  C   UNL     1      45.001   2.163   9.067  0.00  0.00    +0.000 C 
ATOM     11  O   UNL     1      44.272   3.320   9.473  0.00  0.00    +0.000 OA
ENDBRANCH   8  11
ENDBRANCH   2   8
ENDBRANCH   1   5
BRANCH   1  12
ATOM     12  C   UNL     1      48.650   6.615  13.833  0.00  0.00    +0.000 C 
BRANCH  12  13
ATOM     13  C   UNL     1      49.071   7.353  15.140  0.00  0.00    +0.000 C 
ATOM     14  C   UNL     1      50.600   7.572  15.106  0.00  0.00    +0.000 C 
ATOM     15  C   UNL     1      48.373   8.734  15.108  0.00  0.00    +0.000 C 
BRANCH  13  16
ATOM     16  C   UNL     1      48.674   6.618  16.436  0.00  0.00    +0.000 A 
ATOM     17  C   UNL     1      48.664   7.235  17.693  0.00  0.00    +0.000 A 
ATOM     18  C   UNL     1      48.284   6.510  18.814  0.00  0.00    +0.000 A 
ATOM     19  N   UNL     1      47.925   5.212  18.786  0.00  0.00    +0.000 NA
ATOM     20  C   UNL     1      47.941   4.619  17.575  0.00  0.00    +0.000 A 
ATOM     21  C   UNL     1      48.298   5.266  16.399  0.00  0.00    +0.000 A 
ENDBRANCH  13  16
ENDBRANCH  12  13
ENDBRANCH   1  12
TORSDOF 6
ENDMDL
MODEL 9
REMARK VINA RESULT:    -5.667      3.410      5.833
REMARK INTER + INTRA:          -7.887
REMARK INTER:                  -7.335
REMARK INTRA:                  -0.552
REMARK UNBOUND:                -0.233
REMARK  Name = 
REMARK  9 active torsions:
REMARK  status: ('A' for Active; 'I' for Inactive)
REMARK    1  A    between atoms: C_1  and  O_2
REMARK    2  A    between atoms: O_2  and  C_3
REMARK    3  A    between atoms: C_3  and  C_5
REMARK    4  A    between atoms: C_8  and  O_9
REMARK    5  A    between atoms: O_9  and  C_10
REMARK    6  A    between atoms: C_10  and  C_11
REMARK    7  A    between atoms: C_11  and  C_12
REMARK    8  A    between atoms: C_11  and  C_13
REMARK    9  A    between atoms: C_11  and  C_14
REMARK                            x       y       z     vdW  Elec       q    Type
REMARK                         _______ _______ _______ _____ _____    ______ ____
ROOT
ATOM      1  O   UNL     1      47.674   4.022  14.846  0.00  0.00    +0.000 OA
ENDROOT
BRANCH   1   5
ATOM      2  C   UNL     1      45.298   4.701  11.488  0.00  0.00    +0.000 A 
ATOM      3  C   UNL     1      46.072   5.757  11.981  0.00  0.00    +0.000 A 
ATOM      4  C   UNL     1      46.877   5.568  13.110  0.00  0.00    +0.000 A 
ATOM      5  C   UNL     1      46.915   4.329  13.748  0.00  0.00    +0.000 A 
ATOM      6  C   UNL     1      46.135   3.279  13.258  0.00  0.00    +0.000 A 
ATOM      7  C   UNL     1      45.335   3.458  12.125  0.00  0.00    +0.000 A 
BRANCH   2   8
ATOM      8  C   UNL     1      44.445   4.858  10.284  0.00  0.00    +0.000 C 
ATOM      9  O   UNL     1      43.246   5.080  10.326  0.00  0.00    +0.000 OA
BRANCH   8  11
ATOM     10  C   UNL     1      44.870   3.672   8.319  0.00  0.00    +0.000 C 
ATOM     11  O   UNL     1      45.209   4.769   9.166  0.00  0.00    +0.000 OA
ENDBRANCH   8  11
ENDBRANCH   2   8
ENDBRANCH   1   5
BRANCH   1  12
ATOM     12  C   UNL     1      47.125   4.352  16.127  0.00  0.00    +0.000 C 
BRANCH  12  13
ATOM     13  C   UNL     1      48.251   4.564  17.183  0.00  0.00    +0.000 C 
ATOM     14  C   UNL     1      47.602   5.047  18.499  0.00  0.00    +0.000 C 
ATOM     15  C   UNL     1      48.890   3.175  17.428  0.00  0.00    +0.000 C 
BRANCH  13  16
ATOM     16  C   UNL     1      49.350   5.552  16.745  0.00  0.00    +0.000 A 
ATOM     17  C   UNL     1      50.702   5.389  17.073  0.00  0.00    +0.000 A 
ATOM     18  C   UNL     1      51.636   6.317  16.633  0.00  0.00    +0.000 A 
ATOM     19  N   UNL     1      51.329   7.406  15.901  0.00  0.00    +0.000 NA
ATOM     20  C   UNL     1      50.027   7.563  15.591  0.00  0.00    +0.000 A 
ATOM     21  C   UNL     1      49.024   6.683  15.979  0.00  0.00    +0.000 A 
ENDBRANCH  13  16
ENDBRANCH  12  13
ENDBRANCH   1  12
TORSDOF 6
ENDMDL
