MODEL 1
REMARK VINA RESULT:    -8.903      0.000      0.000
REMARK INTER + INTRA:         -13.591
REMARK INTER:                 -12.546
REMARK INTRA:                  -1.045
REMARK UNBOUND:                -1.045
REMARK  Name = 
REMARK  7 active torsions:
REMARK  status: ('A' for Active; 'I' for Inactive)
REMARK    1  A    between atoms: C_2  and  C_4
REMARK    2  A    between atoms: C_7  and  O_8
REMARK    3  A    between atoms: O_8  and  C_9
REMARK    4  A    between atoms: C_9  and  C_10
REMARK    5  A    between atoms: C_10  and  C_13
REMARK    6  A    between atoms: C_17  and  N_18
REMARK    7  A    between atoms: N_18  and  C_19
REMARK                            x       y       z     vdW  Elec       q    Type
REMARK                         _______ _______ _______ _____ _____    ______ ____
ROOT
ATOM      1  C   UNL     1      43.770   4.328  12.425  0.00  0.00    +0.000 C 
ATOM      2  F   UNL     1      42.780   4.903  13.170  0.00  0.00    +0.000 F 
ATOM      3  F   UNL     1      43.775   3.009  12.780  0.00  0.00    +0.000 F 
ENDROOT
BRANCH   1   4
ATOM      4  C   UNL     1      45.116   4.983  12.687  0.00  0.00    +0.000 A 
ATOM      5  C   UNL     1      45.725   5.775  11.702  0.00  0.00    +0.000 A 
ATOM      6  C   UNL     1      46.968   6.358  11.938  0.00  0.00    +0.000 A 
ATOM      7  C   UNL     1      47.627   6.150  13.155  0.00  0.00    +0.000 A 
ATOM      8  C   UNL     1      47.043   5.366  14.153  0.00  0.00    +0.000 A 
ATOM      9  C   UNL     1      45.782   4.800  13.911  0.00  0.00    +0.000 A 
BRANCH   8  10
ATOM     10  N   UNL     1      47.637   5.166  15.418  0.00  0.00    +0.000 N 
ATOM     11  H   UNL     1      48.653   5.217  15.323  0.00  0.00    +0.000 HD
BRANCH  10  12
ATOM     12  C   UNL     1      47.219   4.176  16.385  0.00  0.00    +0.000 C 
ATOM     13  C   UNL     1      47.620   4.538  17.824  0.00  0.00    +0.000 C 
ATOM     14  O   UNL     1      48.345   3.294  17.983  0.00  0.00    +0.000 OA
ATOM     15  C   UNL     1      48.151   2.977  16.583  0.00  0.00    +0.000 C 
ENDBRANCH  10  12
ENDBRANCH   8  10
ENDBRANCH   1   4
BRANCH   1  16
ATOM     16  C   UNL     1      43.392   4.440  10.936  0.00  0.00    +0.000 C 
BRANCH  16  17
ATOM     17  O   UNL     1      43.533   3.168  10.280  0.00  0.00    +0.000 OA
BRANCH  17  21
ATOM     18  C   UNL     1      46.526   2.608   7.420  0.00  0.00    +0.000 A 
ATOM     19  C   UNL     1      45.975   3.886   7.572  0.00  0.00    +0.000 A 
ATOM     20  C   UNL     1      44.971   4.113   8.520  0.00  0.00    +0.000 A 
ATOM     21  C   UNL     1      44.507   3.069   9.322  0.00  0.00    +0.000 A 
ATOM     22  C   UNL     1      45.050   1.791   9.159  0.00  0.00    +0.000 A 
ATOM     23  C   UNL     1      46.051   1.556   8.210  0.00  0.00    +0.000 A 
BRANCH  18  25
ATOM     24  N   UNL     1      47.590   3.103   5.286  0.00  0.00    +0.000 N 
ATOM     25  C   UNL     1      47.585   2.332   6.415  0.00  0.00    +0.000 C 
ATOM     26  O   UNL     1      48.439   1.476   6.598  0.00  0.00    +0.000 OA
ATOM     27  H   UNL     1      48.376   2.973   4.661  0.00  0.00    +0.000 HD
ATOM     28  H   UNL     1      47.083   3.974   5.223  0.00  0.00    +0.000 HD
ENDBRANCH  18  25
ENDBRANCH  17  21
ENDBRANCH  16  17
ENDBRANCH   1  16
TORSDOF 7
ENDMDL
MODEL 2
REMARK VINA RESULT:    -8.119      1.445      2.004
REMARK INTER + INTRA:         -12.487
REMARK INTER:                 -11.557
REMARK INTRA:                  -0.929
REMARK UNBOUND:                -1.045
REMARK  Name = 
REMARK  7 active torsions:
REMARK  status: ('A' for Active; 'I' for Inactive)
REMARK    1  A    between atoms: C_2  and  C_4
REMARK    2  A    between atoms: C_7  and  O_8
REMARK    3  A    between atoms: O_8  and  C_9
REMARK    4  A    between atoms: C_9  and  C_10
REMARK    5  A    between atoms: C_10  and  C_13
REMARK    6  A    between atoms: C_17  and  N_18
REMARK    7  A    between atoms: N_18  and  C_19
REMARK                            x       y       z     vdW  Elec       q    Type
REMARK                         _______ _______ _______ _____ _____    ______ ____
ROOT
ATOM      1  C   UNL     1      43.344   4.645  12.434  0.00  0.00    +0.000 C 
ATOM      2  F   UNL     1      42.236   5.179  11.840  0.00  0.00    +0.000 F 
ATOM      3  F   UNL     1      42.958   4.323  13.704  0.00  0.00    +0.000 F 
ENDROOT
BRANCH   1   4
ATOM      4  C   UNL     1      44.504   5.627  12.434  0.00  0.00    +0.000 A 
ATOM      5  C   UNL     1      44.419   6.827  11.712  0.00  0.00    +0.000 A 
ATOM      6  C   UNL     1      45.491   7.717  11.698  0.00  0.00    +0.000 A 
ATOM      7  C   UNL     1      46.668   7.416  12.393  0.00  0.00    +0.000 A 
ATOM      8  C   UNL     1      46.779   6.227  13.119  0.00  0.00    +0.000 A 
ATOM      9  C   UNL     1      45.685   5.349  13.143  0.00  0.00    +0.000 A 
BRANCH   8  10
ATOM     10  N   UNL     1      47.921   5.898  13.882  0.00  0.00    +0.000 N 
ATOM     11  H   UNL     1      47.956   4.885  14.012  0.00  0.00    +0.000 HD
BRANCH  10  12
ATOM     12  C   UNL     1      48.380   6.623  15.045  0.00  0.00    +0.000 C 
ATOM     13  C   UNL     1      49.864   7.015  14.959  0.00  0.00    +0.000 C 
ATOM     14  O   UNL     1      50.164   6.329  16.199  0.00  0.00    +0.000 OA
ATOM     15  C   UNL     1      48.824   5.781  16.245  0.00  0.00    +0.000 C 
ENDBRANCH  10  12
ENDBRANCH   8  10
ENDBRANCH   1   4
BRANCH   1  16
ATOM     16  C   UNL     1      43.726   3.352  11.689  0.00  0.00    +0.000 C 
BRANCH  16  17
ATOM     17  O   UNL     1      43.423   3.465  10.288  0.00  0.00    +0.000 OA
BRANCH  17  21
ATOM     18  C   UNL     1      46.444   2.621   7.529  0.00  0.00    +0.000 A 
ATOM     19  C   UNL     1      45.931   1.573   8.302  0.00  0.00    +0.000 A 
ATOM     20  C   UNL     1      44.918   1.816   9.237  0.00  0.00    +0.000 A 
ATOM     21  C   UNL     1      44.410   3.105   9.409  0.00  0.00    +0.000 A 
ATOM     22  C   UNL     1      44.933   4.152   8.643  0.00  0.00    +0.000 A 
ATOM     23  C   UNL     1      45.949   3.916   7.711  0.00  0.00    +0.000 A 
BRANCH  18  25
ATOM     24  N   UNL     1      47.467   3.118   5.376  0.00  0.00    +0.000 N 
ATOM     25  C   UNL     1      47.526   2.398   6.537  0.00  0.00    +0.000 C 
ATOM     26  O   UNL     1      48.454   1.630   6.755  0.00  0.00    +0.000 OA
ATOM     27  H   UNL     1      48.263   3.033   4.756  0.00  0.00    +0.000 HD
ATOM     28  H   UNL     1      46.884   3.937   5.276  0.00  0.00    +0.000 HD
ENDBRANCH  18  25
ENDBRANCH  17  21
ENDBRANCH  16  17
ENDBRANCH   1  16
TORSDOF 7
ENDMDL
MODEL 3
REMARK VINA RESULT:    -7.489      2.460      3.776
REMARK INTER + INTRA:         -11.598
REMARK INTER:                 -10.744
REMARK INTRA:                  -0.854
REMARK UNBOUND:                -1.045
REMARK  Name = 
REMARK  7 active torsions:
REMARK  status: ('A' for Active; 'I' for Inactive)
REMARK    1  A    between atoms: C_2  and  C_4
REMARK    2  A    between atoms: C_7  and  O_8
REMARK    3  A    between atoms: O_8  and  C_9
REMARK    4  A    between atoms: C_9  and  C_10
REMARK    5  A    between atoms: C_10  and  C_13
REMARK    6  A    between atoms: C_17  and  N_18
REMARK    7  A    between atoms: N_18  and  C_19
REMARK                            x       y       z     vdW  Elec       q    Type
REMARK                         _______ _______ _______ _____ _____    ______ ____
ROOT
ATOM      1  C   UNL     1      44.335   4.876  12.523  0.00  0.00    +0.000 C 
ATOM      2  F   UNL     1      43.228   5.296  13.205  0.00  0.00    +0.000 F 
ATOM      3  F   UNL     1      44.216   3.517  12.437  0.00  0.00    +0.000 F 
ENDROOT
BRANCH   1   4
ATOM      4  C   UNL     1      45.614   5.282  13.235  0.00  0.00    +0.000 A 
ATOM      5  C   UNL     1      46.194   4.437  14.194  0.00  0.00    +0.000 A 
ATOM      6  C   UNL     1      47.356   4.822  14.859  0.00  0.00    +0.000 A 
ATOM      7  C   UNL     1      47.951   6.058  14.586  0.00  0.00    +0.000 A 
ATOM      8  C   UNL     1      47.394   6.919  13.636  0.00  0.00    +0.000 A 
ATOM      9  C   UNL     1      46.235   6.512  12.958  0.00  0.00    +0.000 A 
BRANCH   8  10
ATOM     10  N   UNL     1      47.981   8.153  13.282  0.00  0.00    +0.000 N 
ATOM     11  H   UNL     1      47.851   8.818  14.047  0.00  0.00    +0.000 HD
BRANCH  10  12
ATOM     12  C   UNL     1      47.881   8.778  11.982  0.00  0.00    +0.000 C 
ATOM     13  C   UNL     1      49.227   9.317  11.471  0.00  0.00    +0.000 C 
ATOM     14  O   UNL     1      48.687  10.652  11.322  0.00  0.00    +0.000 OA
ATOM     15  C   UNL     1      47.452  10.248  11.960  0.00  0.00    +0.000 C 
ENDBRANCH  10  12
ENDBRANCH   8  10
ENDBRANCH   1   4
BRANCH   1  16
ATOM     16  C   UNL     1      44.291   5.468  11.102  0.00  0.00    +0.000 C 
BRANCH  16  17
ATOM     17  O   UNL     1      43.710   4.532  10.179  0.00  0.00    +0.000 OA
BRANCH  17  21
ATOM     18  C   UNL     1      46.444   2.483   7.775  0.00  0.00    +0.000 A 
ATOM     19  C   UNL     1      45.590   1.742   8.600  0.00  0.00    +0.000 A 
ATOM     20  C   UNL     1      44.660   2.392   9.419  0.00  0.00    +0.000 A 
ATOM     21  C   UNL     1      44.575   3.786   9.424  0.00  0.00    +0.000 A 
ATOM     22  C   UNL     1      45.438   4.524   8.608  0.00  0.00    +0.000 A 
ATOM     23  C   UNL     1      46.373   3.880   7.791  0.00  0.00    +0.000 A 
BRANCH  18  25
ATOM     24  N   UNL     1      48.436   2.614   6.381  0.00  0.00    +0.000 N 
ATOM     25  C   UNL     1      47.449   1.824   6.903  0.00  0.00    +0.000 C 
ATOM     26  O   UNL     1      47.423   0.620   6.684  0.00  0.00    +0.000 OA
ATOM     27  H   UNL     1      49.170   2.134   5.874  0.00  0.00    +0.000 HD
ATOM     28  H   UNL     1      48.644   3.532   6.745  0.00  0.00    +0.000 HD
ENDBRANCH  18  25
ENDBRANCH  17  21
ENDBRANCH  16  17
ENDBRANCH   1  16
TORSDOF 7
ENDMDL
MODEL 4
REMARK VINA RESULT:    -6.967      2.168      8.182
REMARK INTER + INTRA:         -10.863
REMARK INTER:                 -10.207
REMARK INTRA:                  -0.656
REMARK UNBOUND:                -1.045
REMARK  Name = 
REMARK  7 active torsions:
REMARK  status: ('A' for Active; 'I' for Inactive)
REMARK    1  A    between atoms: C_2  and  C_4
REMARK    2  A    between atoms: C_7  and  O_8
REMARK    3  A    between atoms: O_8  and  C_9
REMARK    4  A    between atoms: C_9  and  C_10
REMARK    5  A    between atoms: C_10  and  C_13
REMARK    6  A    between atoms: C_17  and  N_18
REMARK    7  A    between atoms: N_18  and  C_19
REMARK                            x       y       z     vdW  Elec       q    Type
REMARK                         _______ _______ _______ _____ _____    ______ ____
ROOT
ATOM      1  C   UNL     1      45.365   6.160  11.523  0.00  0.00    +0.000 C 
ATOM      2  F   UNL     1      44.336   7.056  11.463  0.00  0.00    +0.000 F 
ATOM      3  F   UNL     1      46.455   6.821  11.031  0.00  0.00    +0.000 F 
ENDROOT
BRANCH   1   4
ATOM      4  C   UNL     1      45.060   4.907  10.719  0.00  0.00    +0.000 A 
ATOM      5  C   UNL     1      44.292   3.873  11.277  0.00  0.00    +0.000 A 
ATOM      6  C   UNL     1      44.029   2.718  10.544  0.00  0.00    +0.000 A 
ATOM      7  C   UNL     1      44.539   2.571   9.249  0.00  0.00    +0.000 A 
ATOM      8  C   UNL     1      45.307   3.585   8.670  0.00  0.00    +0.000 A 
ATOM      9  C   UNL     1      45.547   4.753   9.410  0.00  0.00    +0.000 A 
BRANCH   8  10
ATOM     10  N   UNL     1      45.801   3.514   7.349  0.00  0.00    +0.000 N 
ATOM     11  H   UNL     1      45.106   3.056   6.756  0.00  0.00    +0.000 HD
BRANCH  10  12
ATOM     12  C   UNL     1      47.156   3.166   6.987  0.00  0.00    +0.000 C 
ATOM     13  C   UNL     1      47.294   2.752   5.513  0.00  0.00    +0.000 C 
ATOM     14  O   UNL     1      47.861   1.471   5.878  0.00  0.00    +0.000 OA
ATOM     15  C   UNL     1      47.594   1.727   7.278  0.00  0.00    +0.000 C 
ENDBRANCH  10  12
ENDBRANCH   8  10
ENDBRANCH   1   4
BRANCH   1  16
ATOM     16  C   UNL     1      45.624   5.808  13.000  0.00  0.00    +0.000 C 
BRANCH  16  17
ATOM     17  O   UNL     1      47.021   5.936  13.315  0.00  0.00    +0.000 OA
BRANCH  17  21
ATOM     18  C   UNL     1      48.459   4.446  16.943  0.00  0.00    +0.000 A 
ATOM     19  C   UNL     1      47.596   3.647  16.185  0.00  0.00    +0.000 A 
ATOM     20  C   UNL     1      47.095   4.111  14.964  0.00  0.00    +0.000 A 
ATOM     21  C   UNL     1      47.447   5.376  14.490  0.00  0.00    +0.000 A 
ATOM     22  C   UNL     1      48.299   6.178  15.256  0.00  0.00    +0.000 A 
ATOM     23  C   UNL     1      48.799   5.721  16.480  0.00  0.00    +0.000 A 
BRANCH  18  25
ATOM     24  N   UNL     1      48.193   3.190  19.013  0.00  0.00    +0.000 N 
ATOM     25  C   UNL     1      48.999   3.988  18.249  0.00  0.00    +0.000 C 
ATOM     26  O   UNL     1      50.129   4.279  18.617  0.00  0.00    +0.000 OA
ATOM     27  H   UNL     1      48.612   2.803  19.849  0.00  0.00    +0.000 HD
ATOM     28  H   UNL     1      47.384   2.719  18.635  0.00  0.00    +0.000 HD
ENDBRANCH  18  25
ENDBRANCH  17  21
ENDBRANCH  16  17
ENDBRANCH   1  16
TORSDOF 7
ENDMDL
MODEL 5
REMARK VINA RESULT:    -6.654      2.594      8.638
REMARK INTER + INTRA:         -10.422
REMARK INTER:                  -9.760
REMARK INTRA:                  -0.662
REMARK UNBOUND:                -1.045
REMARK  Name = 
REMARK  7 active torsions:
REMARK  status: ('A' for Active; 'I' for Inactive)
REMARK    1  A    between atoms: C_2  and  C_4
REMARK    2  A    between atoms: C_7  and  O_8
REMARK    3  A    between atoms: O_8  and  C_9
REMARK    4  A    between atoms: C_9  and  C_10
REMARK    5  A    between atoms: C_10  and  C_13
REMARK    6  A    between atoms: C_17  and  N_18
REMARK    7  A    between atoms: N_18  and  C_19
REMARK                            x       y       z     vdW  Elec       q    Type
REMARK                         _______ _______ _______ _____ _____    ______ ____
ROOT
ATOM      1  C   UNL     1      46.603   6.120  12.668  0.00  0.00    +0.000 C 
ATOM      2  F   UNL     1      46.163   7.148  13.452  0.00  0.00    +0.000 F 
ATOM      3  F   UNL     1      47.341   6.707  11.678  0.00  0.00    +0.000 F 
ENDROOT
BRANCH   1   4
ATOM      4  C   UNL     1      45.445   5.317  12.101  0.00  0.00    +0.000 A 
ATOM      5  C   UNL     1      44.519   4.702  12.958  0.00  0.00    +0.000 A 
ATOM      6  C   UNL     1      43.469   3.950  12.436  0.00  0.00    +0.000 A 
ATOM      7  C   UNL     1      43.334   3.790  11.052  0.00  0.00    +0.000 A 
ATOM      8  C   UNL     1      44.243   4.390  10.177  0.00  0.00    +0.000 A 
ATOM      9  C   UNL     1      45.284   5.163  10.713  0.00  0.00    +0.000 A 
BRANCH   8  10
ATOM     10  N   UNL     1      44.124   4.307   8.772  0.00  0.00    +0.000 N 
ATOM     11  H   UNL     1      43.178   4.581   8.499  0.00  0.00    +0.000 HD
BRANCH  10  12
ATOM     12  C   UNL     1      44.648   3.235   7.956  0.00  0.00    +0.000 C 
ATOM     13  C   UNL     1      45.387   2.165   8.777  0.00  0.00    +0.000 C 
ATOM     14  O   UNL     1      46.596   2.338   7.999  0.00  0.00    +0.000 OA
ATOM     15  C   UNL     1      46.016   3.473   7.310  0.00  0.00    +0.000 C 
ENDBRANCH  10  12
ENDBRANCH   8  10
ENDBRANCH   1   4
BRANCH   1  16
ATOM     16  C   UNL     1      47.529   5.221  13.509  0.00  0.00    +0.000 C 
BRANCH  16  17
ATOM     17  O   UNL     1      48.324   6.011  14.409  0.00  0.00    +0.000 OA
BRANCH  17  21
ATOM     18  C   UNL     1      48.341   5.194  18.506  0.00  0.00    +0.000 A 
ATOM     19  C   UNL     1      47.581   4.376  17.663  0.00  0.00    +0.000 A 
ATOM     20  C   UNL     1      47.551   4.617  16.284  0.00  0.00    +0.000 A 
ATOM     21  C   UNL     1      48.276   5.677  15.736  0.00  0.00    +0.000 A 
ATOM     22  C   UNL     1      49.025   6.501  16.583  0.00  0.00    +0.000 A 
ATOM     23  C   UNL     1      49.055   6.267  17.962  0.00  0.00    +0.000 A 
BRANCH  18  25
ATOM     24  N   UNL     1      48.574   3.687  20.404  0.00  0.00    +0.000 N 
ATOM     25  C   UNL     1      48.386   4.971  19.973  0.00  0.00    +0.000 C 
ATOM     26  O   UNL     1      48.293   5.896  20.769  0.00  0.00    +0.000 OA
ATOM     27  H   UNL     1      48.705   3.565  21.401  0.00  0.00    +0.000 HD
ATOM     28  H   UNL     1      48.916   2.957  19.797  0.00  0.00    +0.000 HD
ENDBRANCH  18  25
ENDBRANCH  17  21
ENDBRANCH  16  17
ENDBRANCH   1  16
TORSDOF 7
ENDMDL
MODEL 6
REMARK VINA RESULT:    -6.603      2.787      7.564
REMARK INTER + INTRA:         -10.349
REMARK INTER:                  -9.549
REMARK INTRA:                  -0.800
REMARK UNBOUND:                -1.045
REMARK  Name = 
REMARK  7 active torsions:
REMARK  status: ('A' for Active; 'I' for Inactive)
REMARK    1  A    between atoms: C_2  and  C_4
REMARK    2  A    between atoms: C_7  and  O_8
REMARK    3  A    between atoms: O_8  and  C_9
REMARK    4  A    between atoms: C_9  and  C_10
REMARK    5  A    between atoms: C_10  and  C_13
REMARK    6  A    between atoms: C_17  and  N_18
REMARK    7  A    between atoms: N_18  and  C_19
REMARK                            x       y       z     vdW  Elec       q    Type
REMARK                         _______ _______ _______ _____ _____    ______ ____
ROOT
ATOM      1  C   UNL     1      44.477   6.072  11.353  0.00  0.00    +0.000 C 
ATOM      2  F   UNL     1      43.170   6.419  11.552  0.00  0.00    +0.000 F 
ATOM      3  F   UNL     1      45.045   7.138  10.715  0.00  0.00    +0.000 F 
ENDROOT
BRANCH   1   4
ATOM      4  C   UNL     1      44.595   4.800  10.531  0.00  0.00    +0.000 A 
ATOM      5  C   UNL     1      43.937   3.628  10.936  0.00  0.00    +0.000 A 
ATOM      6  C   UNL     1      44.064   2.457  10.191  0.00  0.00    +0.000 A 
ATOM      7  C   UNL     1      44.857   2.436   9.038  0.00  0.00    +0.000 A 
ATOM      8  C   UNL     1      45.523   3.588   8.613  0.00  0.00    +0.000 A 
ATOM      9  C   UNL     1      45.371   4.766   9.360  0.00  0.00    +0.000 A 
BRANCH   8  10
ATOM     10  N   UNL     1      46.292   3.638   7.430  0.00  0.00    +0.000 N 
ATOM     11  H   UNL     1      46.088   4.508   6.934  0.00  0.00    +0.000 HD
BRANCH  10  12
ATOM     12  C   UNL     1      46.507   2.525   6.532  0.00  0.00    +0.000 C 
ATOM     13  C   UNL     1      47.595   1.558   7.028  0.00  0.00    +0.000 C 
ATOM     14  O   UNL     1      48.357   1.718   5.807  0.00  0.00    +0.000 OA
ATOM     15  C   UNL     1      47.464   2.767   5.361  0.00  0.00    +0.000 C 
ENDBRANCH  10  12
ENDBRANCH   8  10
ENDBRANCH   1   4
BRANCH   1  16
ATOM     16  C   UNL     1      45.153   5.898  12.726  0.00  0.00    +0.000 C 
BRANCH  16  17
ATOM     17  O   UNL     1      46.485   5.378  12.573  0.00  0.00    +0.000 OA
BRANCH  17  21
ATOM     18  C   UNL     1      49.643   8.009  13.315  0.00  0.00    +0.000 A 
ATOM     19  C   UNL     1      49.137   7.920  12.014  0.00  0.00    +0.000 A 
ATOM     20  C   UNL     1      48.079   7.051  11.726  0.00  0.00    +0.000 A 
ATOM     21  C   UNL     1      47.519   6.262  12.732  0.00  0.00    +0.000 A 
ATOM     22  C   UNL     1      48.035   6.344  14.030  0.00  0.00    +0.000 A 
ATOM     23  C   UNL     1      49.096   7.208  14.322  0.00  0.00    +0.000 A 
BRANCH  18  25
ATOM     24  N   UNL     1      50.458  10.135  14.179  0.00  0.00    +0.000 N 
ATOM     25  C   UNL     1      50.773   8.914  13.651  0.00  0.00    +0.000 C 
ATOM     26  O   UNL     1      51.938   8.575  13.496  0.00  0.00    +0.000 OA
ATOM     27  H   UNL     1      51.237  10.698  14.497  0.00  0.00    +0.000 HD
ATOM     28  H   UNL     1      49.547  10.341  14.563  0.00  0.00    +0.000 HD
ENDBRANCH  18  25
ENDBRANCH  17  21
ENDBRANCH  16  17
ENDBRANCH   1  16
TORSDOF 7
ENDMDL
MODEL 7
REMARK VINA RESULT:    -6.223      3.540      5.293
REMARK INTER + INTRA:          -9.814
REMARK INTER:                  -9.038
REMARK INTRA:                  -0.775
REMARK UNBOUND:                -1.045
REMARK  Name = 
REMARK  7 active torsions:
REMARK  status: ('A' for Active; 'I' for Inactive)
REMARK    1  A    between atoms: C_2  and  C_4
REMARK    2  A    between atoms: C_7  and  O_8
REMARK    3  A    between atoms: O_8  and  C_9
REMARK    4  A    between atoms: C_9  and  C_10
REMARK    5  A    between atoms: C_10  and  C_13
REMARK    6  A    between atoms: C_17  and  N_18
REMARK    7  A    between atoms: N_18  and  C_19
REMARK                            x       y       z     vdW  Elec       q    Type
REMARK                         _______ _______ _______ _____ _____    ______ ____
ROOT
ATOM      1  C   UNL     1      49.142   7.778  14.061  0.00  0.00    +0.000 C 
ATOM      2  F   UNL     1      49.781   7.469  12.894  0.00  0.00    +0.000 F 
ATOM      3  F   UNL     1      49.269   9.131  14.200  0.00  0.00    +0.000 F 
ENDROOT
BRANCH   1   4
ATOM      4  C   UNL     1      49.747   7.036  15.240  0.00  0.00    +0.000 A 
ATOM      5  C   UNL     1      51.098   7.216  15.577  0.00  0.00    +0.000 A 
ATOM      6  C   UNL     1      51.655   6.519  16.647  0.00  0.00    +0.000 A 
ATOM      7  C   UNL     1      50.877   5.624  17.389  0.00  0.00    +0.000 A 
ATOM      8  C   UNL     1      49.530   5.425  17.075  0.00  0.00    +0.000 A 
ATOM      9  C   UNL     1      48.975   6.147  16.008  0.00  0.00    +0.000 A 
BRANCH   8  10
ATOM     10  N   UNL     1      48.685   4.575  17.822  0.00  0.00    +0.000 N 
ATOM     11  H   UNL     1      48.768   4.807  18.813  0.00  0.00    +0.000 HD
BRANCH  10  12
ATOM     12  C   UNL     1      48.525   3.156  17.596  0.00  0.00    +0.000 C 
ATOM     13  C   UNL     1      49.852   2.446  17.284  0.00  0.00    +0.000 C 
ATOM     14  O   UNL     1      49.339   1.941  16.028  0.00  0.00    +0.000 OA
ATOM     15  C   UNL     1      48.133   2.729  16.178  0.00  0.00    +0.000 C 
ENDBRANCH  10  12
ENDBRANCH   8  10
ENDBRANCH   1   4
BRANCH   1  16
ATOM     16  C   UNL     1      47.648   7.433  13.910  0.00  0.00    +0.000 C 
BRANCH  16  17
ATOM     17  O   UNL     1      47.309   7.241  12.526  0.00  0.00    +0.000 OA
BRANCH  17  21
ATOM     18  C   UNL     1      44.928   4.014  11.358  0.00  0.00    +0.000 A 
ATOM     19  C   UNL     1      45.479   4.008  12.644  0.00  0.00    +0.000 A 
ATOM     20  C   UNL     1      46.282   5.072  13.072  0.00  0.00    +0.000 A 
ATOM     21  C   UNL     1      46.542   6.148  12.221  0.00  0.00    +0.000 A 
ATOM     22  C   UNL     1      45.999   6.145  10.932  0.00  0.00    +0.000 A 
ATOM     23  C   UNL     1      45.201   5.082  10.497  0.00  0.00    +0.000 A 
BRANCH  18  25
ATOM     24  N   UNL     1      44.565   2.157   9.825  0.00  0.00    +0.000 N 
ATOM     25  C   UNL     1      44.081   2.895  10.869  0.00  0.00    +0.000 C 
ATOM     26  O   UNL     1      43.012   2.618  11.395  0.00  0.00    +0.000 OA
ATOM     27  H   UNL     1      44.028   1.337   9.571  0.00  0.00    +0.000 HD
ATOM     28  H   UNL     1      45.536   2.181   9.548  0.00  0.00    +0.000 HD
ENDBRANCH  18  25
ENDBRANCH  17  21
ENDBRANCH  16  17
ENDBRANCH   1  16
TORSDOF 7
ENDMDL
MODEL 8
REMARK VINA RESULT:    -5.997      4.122      6.433
REMARK INTER + INTRA:          -9.496
REMARK INTER:                  -8.966
REMARK INTRA:                  -0.530
REMARK UNBOUND:                -1.045
REMARK  Name = 
REMARK  7 active torsions:
REMARK  status: ('A' for Active; 'I' for Inactive)
REMARK    1  A    between atoms: C_2  and  C_4
REMARK    2  A    between atoms: C_7  and  O_8
REMARK    3  A    between atoms: O_8  and  C_9
REMARK    4  A    between atoms: C_9  and  C_10
REMARK    5  A    between atoms: C_10  and  C_13
REMARK    6  A    between atoms: C_17  and  N_18
REMARK    7  A    between atoms: N_18  and  C_19
REMARK                            x       y       z     vdW  Elec       q    Type
REMARK                         _______ _______ _______ _____ _____    ______ ____
ROOT
ATOM      1  C   UNL     1      48.200   3.168  16.731  0.00  0.00    +0.000 C 
ATOM      2  F   UNL     1      47.421   2.683  17.743  0.00  0.00    +0.000 F 
ATOM      3  F   UNL     1      48.504   2.087  15.954  0.00  0.00    +0.000 F 
ENDROOT
BRANCH   1   4
ATOM      4  C   UNL     1      49.452   3.841  17.267  0.00  0.00    +0.000 A 
ATOM      5  C   UNL     1      49.579   5.239  17.232  0.00  0.00    +0.000 A 
ATOM      6  C   UNL     1      50.736   5.853  17.706  0.00  0.00    +0.000 A 
ATOM      7  C   UNL     1      51.789   5.081  18.210  0.00  0.00    +0.000 A 
ATOM      8  C   UNL     1      51.690   3.688  18.256  0.00  0.00    +0.000 A 
ATOM      9  C   UNL     1      50.511   3.083  17.795  0.00  0.00    +0.000 A 
BRANCH   8  10
ATOM     10  N   UNL     1      52.698   2.864  18.803  0.00  0.00    +0.000 N 
ATOM     11  H   UNL     1      53.198   3.384  19.527  0.00  0.00    +0.000 HD
BRANCH  10  12
ATOM     12  C   UNL     1      53.568   1.999  18.040  0.00  0.00    +0.000 C 
ATOM     13  C   UNL     1      52.954   0.614  17.778  0.00  0.00    +0.000 C 
ATOM     14  O   UNL     1      54.079  -0.053  18.399  0.00  0.00    +0.000 OA
ATOM     15  C   UNL     1      54.622   1.218  18.832  0.00  0.00    +0.000 C 
ENDBRANCH  10  12
ENDBRANCH   8  10
ENDBRANCH   1   4
BRANCH   1  16
ATOM     16  C   UNL     1      47.364   4.158  15.899  0.00  0.00    +0.000 C 
BRANCH  16  17
ATOM     17  O   UNL     1      47.601   3.968  14.494  0.00  0.00    +0.000 OA
BRANCH  17  21
ATOM     18  C   UNL     1      44.400   4.924  11.986  0.00  0.00    +0.000 A 
ATOM     19  C   UNL     1      44.819   3.591  12.059  0.00  0.00    +0.000 A 
ATOM     20  C   UNL     1      45.887   3.231  12.888  0.00  0.00    +0.000 A 
ATOM     21  C   UNL     1      46.547   4.197  13.650  0.00  0.00    +0.000 A 
ATOM     22  C   UNL     1      46.134   5.531  13.566  0.00  0.00    +0.000 A 
ATOM     23  C   UNL     1      45.070   5.897  12.735  0.00  0.00    +0.000 A 
BRANCH  18  25
ATOM     24  N   UNL     1      42.257   6.041  11.688  0.00  0.00    +0.000 N 
ATOM     25  C   UNL     1      43.277   5.340  11.107  0.00  0.00    +0.000 C 
ATOM     26  O   UNL     1      43.273   5.098   9.908  0.00  0.00    +0.000 OA
ATOM     27  H   UNL     1      41.552   6.406  11.060  0.00  0.00    +0.000 HD
ATOM     28  H   UNL     1      42.349   6.482  12.591  0.00  0.00    +0.000 HD
ENDBRANCH  18  25
ENDBRANCH  17  21
ENDBRANCH  16  17
ENDBRANCH   1  16
TORSDOF 7
ENDMDL
