MODEL 1
REMARK VINA RESULT:    -6.605      0.000      0.000
REMARK INTER + INTRA:          -9.725
REMARK INTER:                  -9.115
REMARK INTRA:                  -0.610
REMARK UNBOUND:                -0.610
REMARK  Name = 
REMARK  10 active torsions:
REMARK  status: ('A' for Active; 'I' for Inactive)
REMARK    1  A    between atoms: C_1  and  C_2
REMARK    2  A    between atoms: C_2  and  C_3
REMARK    3  A    between atoms: C_2  and  C_4
REMARK    4  A    between atoms: C_2  and  C_5
REMARK    5  A    between atoms: N_7  and  C_8
REMARK    6  A    between atoms: C_8  and  C_9
REMARK    7  A    between atoms: C_12  and  N_13
REMARK    8  A    between atoms: N_13  and  C_14
REMARK    9  A    between atoms: C_14  and  C_15
REMARK   10  A    between atoms: C_15  and  N_16
REMARK                            x       y       z     vdW  Elec       q    Type
REMARK                         _______ _______ _______ _____ _____    ______ ____
ROOT
ATOM      1  C   UNL     1      43.934   6.001  11.373  0.00  0.00    +0.000 C 
ENDROOT
BRANCH   1   4
ATOM      2  C   UNL     1      46.803   7.984  12.450  0.00  0.00    +0.000 A 
ATOM      3  C   UNL     1      45.619   7.813  11.750  0.00  0.00    +0.000 A 
ATOM      4  N   UNL     1      45.090   6.583  12.049  0.00  0.00    +0.000 N 
ATOM      5  C   UNL     1      45.871   5.953  12.994  0.00  0.00    +0.000 A 
ATOM      6  C   UNL     1      45.723   4.704  13.622  0.00  0.00    +0.000 A 
ATOM      7  C   UNL     1      46.691   4.304  14.543  0.00  0.00    +0.000 A 
ATOM      8  C   UNL     1      47.775   5.122  14.834  0.00  0.00    +0.000 A 
ATOM      9  C   UNL     1      47.913   6.364  14.204  0.00  0.00    +0.000 A 
ATOM     10  C   UNL     1      46.950   6.803  13.267  0.00  0.00    +0.000 A 
BRANCH   2  12
ATOM     11  C   UNL     1      48.243   9.655  13.723  0.00  0.00    +0.000 C 
ATOM     12  C   UNL     1      47.767   9.167  12.333  0.00  0.00    +0.000 C 
ATOM     13  C   UNL     1      47.060  10.356  11.651  0.00  0.00    +0.000 C 
ATOM     14  C   UNL     1      49.029   8.791  11.532  0.00  0.00    +0.000 C 
ENDBRANCH   2  12
ENDBRANCH   1   4
BRANCH   1  15
ATOM     15  C   UNL     1      44.343   4.866  10.472  0.00  0.00    +0.000 A 
ATOM     16  C   UNL     1      43.835   3.586  10.668  0.00  0.00    +0.000 A 
ATOM     17  C   UNL     1      44.311   2.541   9.875  0.00  0.00    +0.000 A 
ATOM     18  C   UNL     1      45.312   2.768   8.930  0.00  0.00    +0.000 A 
ATOM     19  C   UNL     1      45.676   4.099   8.743  0.00  0.00    +0.000 A 
ATOM     20  N   UNL     1      45.229   5.142   9.487  0.00  0.00    +0.000 NA
BRANCH  18  21
ATOM     21  N   UNL     1      45.811   1.696   8.182  0.00  0.00    +0.000 N 
ATOM     22  H   UNL     1      45.716   0.804   8.666  0.00  0.00    +0.000 HD
BRANCH  21  23
ATOM     23  C   UNL     1      47.159   1.817   7.602  0.00  0.00    +0.000 C 
BRANCH  23  24
ATOM     24  C   UNL     1      47.133   2.124   6.089  0.00  0.00    +0.000 C 
BRANCH  24  25
ATOM     25  N   UNL     1      48.448   1.965   5.452  0.00  0.00    +0.000 NA
ATOM     26  H   UNL     1      48.905   2.878   5.446  0.00  0.00    +0.000 HD
ATOM     27  H   UNL     1      48.304   1.735   4.469  0.00  0.00    +0.000 HD
ENDBRANCH  24  25
ENDBRANCH  23  24
ENDBRANCH  21  23
ENDBRANCH  18  21
ENDBRANCH   1  15
TORSDOF 7
ENDMDL
MODEL 2
REMARK VINA RESULT:    -6.546      1.356      3.053
REMARK INTER + INTRA:          -9.643
REMARK INTER:                  -9.092
REMARK INTRA:                  -0.551
REMARK UNBOUND:                -0.610
REMARK  Name = 
REMARK  10 active torsions:
REMARK  status: ('A' for Active; 'I' for Inactive)
REMARK    1  A    between atoms: C_1  and  C_2
REMARK    2  A    between atoms: C_2  and  C_3
REMARK    3  A    between atoms: C_2  and  C_4
REMARK    4  A    between atoms: C_2  and  C_5
REMARK    5  A    between atoms: N_7  and  C_8
REMARK    6  A    between atoms: C_8  and  C_9
REMARK    7  A    between atoms: C_12  and  N_13
REMARK    8  A    between atoms: N_13  and  C_14
REMARK    9  A    between atoms: C_14  and  C_15
REMARK   10  A    between atoms: C_15  and  N_16
REMARK                            x       y       z     vdW  Elec       q    Type
REMARK                         _______ _______ _______ _____ _____    ______ ____
ROOT
ATOM      1  C   UNL     1      44.543   5.584  12.230  0.00  0.00    +0.000 C 
ENDROOT
BRANCH   1   4
ATOM      2  C   UNL     1      47.269   7.668  13.475  0.00  0.00    +0.000 A 
ATOM      3  C   UNL     1      46.651   6.444  13.269  0.00  0.00    +0.000 A 
ATOM      4  N   UNL     1      45.525   6.628  12.507  0.00  0.00    +0.000 N 
ATOM      5  C   UNL     1      45.417   7.953  12.141  0.00  0.00    +0.000 A 
ATOM      6  C   UNL     1      44.457   8.610  11.352  0.00  0.00    +0.000 A 
ATOM      7  C   UNL     1      44.586   9.986  11.157  0.00  0.00    +0.000 A 
ATOM      8  C   UNL     1      45.639  10.688  11.730  0.00  0.00    +0.000 A 
ATOM      9  C   UNL     1      46.589  10.023  12.514  0.00  0.00    +0.000 A 
ATOM     10  C   UNL     1      46.492   8.630  12.730  0.00  0.00    +0.000 A 
BRANCH   2  12
ATOM     11  C   UNL     1      48.240   9.084  15.357  0.00  0.00    +0.000 C 
ATOM     12  C   UNL     1      48.494   7.933  14.353  0.00  0.00    +0.000 C 
ATOM     13  C   UNL     1      49.690   8.353  13.473  0.00  0.00    +0.000 C 
ATOM     14  C   UNL     1      48.877   6.690  15.180  0.00  0.00    +0.000 C 
ENDBRANCH   2  12
ENDBRANCH   1   4
BRANCH   1  15
ATOM     15  C   UNL     1      44.875   4.845  10.961  0.00  0.00    +0.000 A 
ATOM     16  C   UNL     1      45.608   5.461   9.951  0.00  0.00    +0.000 A 
ATOM     17  C   UNL     1      45.812   4.779   8.751  0.00  0.00    +0.000 A 
ATOM     18  C   UNL     1      45.254   3.516   8.550  0.00  0.00    +0.000 A 
ATOM     19  C   UNL     1      44.627   2.949   9.657  0.00  0.00    +0.000 A 
ATOM     20  N   UNL     1      44.419   3.576  10.842  0.00  0.00    +0.000 NA
BRANCH  18  21
ATOM     21  N   UNL     1      45.428   2.872   7.320  0.00  0.00    +0.000 N 
ATOM     22  H   UNL     1      45.338   1.860   7.393  0.00  0.00    +0.000 HD
BRANCH  21  23
ATOM     23  C   UNL     1      46.607   3.221   6.510  0.00  0.00    +0.000 C 
BRANCH  23  24
ATOM     24  C   UNL     1      47.852   2.384   6.879  0.00  0.00    +0.000 C 
BRANCH  24  25
ATOM     25  N   UNL     1      48.497   1.774   5.707  0.00  0.00    +0.000 NA
ATOM     26  H   UNL     1      47.833   1.119   5.291  0.00  0.00    +0.000 HD
ATOM     27  H   UNL     1      49.272   1.196   6.031  0.00  0.00    +0.000 HD
ENDBRANCH  24  25
ENDBRANCH  23  24
ENDBRANCH  21  23
ENDBRANCH  18  21
ENDBRANCH   1  15
TORSDOF 7
ENDMDL
MODEL 3
REMARK VINA RESULT:    -5.727      3.598      8.137
REMARK INTER + INTRA:          -8.513
REMARK INTER:                  -7.789
REMARK INTRA:                  -0.723
REMARK UNBOUND:                -0.610
REMARK  Name = 
REMARK  10 active torsions:
REMARK  status: ('A' for Active; 'I' for Inactive)
REMARK    1  A    between atoms: C_1  and  C_2
REMARK    2  A    between atoms: C_2  and  C_3
REMARK    3  A    between atoms: C_2  and  C_4
REMARK    4  A    between atoms: C_2  and  C_5
REMARK    5  A    between atoms: N_7  and  C_8
REMARK    6  A    between atoms: C_8  and  C_9
REMARK    7  A    between atoms: C_12  and  N_13
REMARK    8  A    between atoms: N_13  and  C_14
REMARK    9  A    between atoms: C_14  and  C_15
REMARK   10  A    between atoms: C_15  and  N_16
REMARK                            x       y       z     vdW  Elec       q    Type
REMARK                         _______ _______ _______ _____ _____    ______ ____
ROOT
ATOM      1  C   UNL     1      48.654   6.851  13.532  0.00  0.00    +0.000 C 
ENDROOT
BRANCH   1   4
ATOM      2  C   UNL     1      45.429   5.774  12.205  0.00  0.00    +0.000 A 
ATOM      3  C   UNL     1      46.624   5.546  12.870  0.00  0.00    +0.000 A 
ATOM      4  N   UNL     1      47.292   6.735  13.021  0.00  0.00    +0.000 N 
ATOM      5  C   UNL     1      46.527   7.769  12.525  0.00  0.00    +0.000 A 
ATOM      6  C   UNL     1      46.775   9.153  12.479  0.00  0.00    +0.000 A 
ATOM      7  C   UNL     1      45.817   9.980  11.893  0.00  0.00    +0.000 A 
ATOM      8  C   UNL     1      44.646   9.449  11.368  0.00  0.00    +0.000 A 
ATOM      9  C   UNL     1      44.409   8.071  11.419  0.00  0.00    +0.000 A 
ATOM     10  C   UNL     1      45.356   7.202  12.008  0.00  0.00    +0.000 A 
BRANCH   2  12
ATOM     11  C   UNL     1      43.023   4.950  12.347  0.00  0.00    +0.000 C 
ATOM     12  C   UNL     1      44.428   4.713  11.742  0.00  0.00    +0.000 C 
ATOM     13  C   UNL     1      44.892   3.315  12.202  0.00  0.00    +0.000 C 
ATOM     14  C   UNL     1      44.265   4.721  10.209  0.00  0.00    +0.000 C 
ENDBRANCH   2  12
ENDBRANCH   1   4
BRANCH   1  15
ATOM     15  C   UNL     1      48.679   6.808  15.036  0.00  0.00    +0.000 A 
ATOM     16  C   UNL     1      48.698   7.984  15.780  0.00  0.00    +0.000 A 
ATOM     17  C   UNL     1      48.818   7.904  17.169  0.00  0.00    +0.000 A 
ATOM     18  C   UNL     1      48.962   6.667  17.797  0.00  0.00    +0.000 A 
ATOM     19  C   UNL     1      48.828   5.551  16.974  0.00  0.00    +0.000 A 
ATOM     20  N   UNL     1      48.699   5.589  15.625  0.00  0.00    +0.000 NA
BRANCH  18  21
ATOM     21  N   UNL     1      49.134   6.614  19.185  0.00  0.00    +0.000 N 
ATOM     22  H   UNL     1      50.066   6.301  19.451  0.00  0.00    +0.000 HD
BRANCH  21  23
ATOM     23  C   UNL     1      48.117   5.915  19.988  0.00  0.00    +0.000 C 
BRANCH  23  24
ATOM     24  C   UNL     1      48.710   4.771  20.839  0.00  0.00    +0.000 C 
BRANCH  24  25
ATOM     25  N   UNL     1      48.376   3.439  20.314  0.00  0.00    +0.000 NA
ATOM     26  H   UNL     1      48.154   3.540  19.323  0.00  0.00    +0.000 HD
ATOM     27  H   UNL     1      47.507   3.130  20.750  0.00  0.00    +0.000 HD
ENDBRANCH  24  25
ENDBRANCH  23  24
ENDBRANCH  21  23
ENDBRANCH  18  21
ENDBRANCH   1  15
TORSDOF 7
ENDMDL
MODEL 4
REMARK VINA RESULT:    -5.553      2.208      4.832
REMARK INTER + INTRA:          -8.273
REMARK INTER:                  -7.976
REMARK INTRA:                  -0.297
REMARK UNBOUND:                -0.610
REMARK  Name = 
REMARK  10 active torsions:
REMARK  status: ('A' for Active; 'I' for Inactive)
REMARK    1  A    between atoms: C_1  and  C_2
REMARK    2  A    between atoms: C_2  and  C_3
REMARK    3  A    between atoms: C_2  and  C_4
REMARK    4  A    between atoms: C_2  and  C_5
REMARK    5  A    between atoms: N_7  and  C_8
REMARK    6  A    between atoms: C_8  and  C_9
REMARK    7  A    between atoms: C_12  and  N_13
REMARK    8  A    between atoms: N_13  and  C_14
REMARK    9  A    between atoms: C_14  and  C_15
REMARK   10  A    between atoms: C_15  and  N_16
REMARK                            x       y       z     vdW  Elec       q    Type
REMARK                         _______ _______ _______ _____ _____    ______ ____
ROOT
ATOM      1  C   UNL     1      47.891   7.192  14.039  0.00  0.00    +0.000 C 
ENDROOT
BRANCH   1   4
ATOM      2  C   UNL     1      50.385   8.426  11.677  0.00  0.00    +0.000 A 
ATOM      3  C   UNL     1      49.882   7.473  12.549  0.00  0.00    +0.000 A 
ATOM      4  N   UNL     1      48.644   7.869  12.988  0.00  0.00    +0.000 N 
ATOM      5  C   UNL     1      48.281   9.045  12.367  0.00  0.00    +0.000 A 
ATOM      6  C   UNL     1      47.108   9.814  12.475  0.00  0.00    +0.000 A 
ATOM      7  C   UNL     1      47.014  10.991  11.730  0.00  0.00    +0.000 A 
ATOM      8  C   UNL     1      48.055  11.392  10.903  0.00  0.00    +0.000 A 
ATOM      9  C   UNL     1      49.218  10.619  10.804  0.00  0.00    +0.000 A 
ATOM     10  C   UNL     1      49.347   9.420  11.541  0.00  0.00    +0.000 A 
BRANCH   2  12
ATOM     11  C   UNL     1      52.896   8.362  12.101  0.00  0.00    +0.000 C 
ATOM     12  C   UNL     1      51.775   8.431  11.035  0.00  0.00    +0.000 C 
ATOM     13  C   UNL     1      51.982   9.736  10.240  0.00  0.00    +0.000 C 
ATOM     14  C   UNL     1      51.969   7.222  10.099  0.00  0.00    +0.000 C 
ENDBRANCH   2  12
ENDBRANCH   1   4
BRANCH   1  15
ATOM     15  C   UNL     1      47.089   6.045  13.483  0.00  0.00    +0.000 A 
ATOM     16  C   UNL     1      45.955   6.280  12.712  0.00  0.00    +0.000 A 
ATOM     17  C   UNL     1      45.183   5.194  12.296  0.00  0.00    +0.000 A 
ATOM     18  C   UNL     1      45.519   3.897  12.683  0.00  0.00    +0.000 A 
ATOM     19  C   UNL     1      46.725   3.763  13.366  0.00  0.00    +0.000 A 
ATOM     20  N   UNL     1      47.507   4.792  13.778  0.00  0.00    +0.000 NA
BRANCH  18  21
ATOM     21  N   UNL     1      44.701   2.828  12.298  0.00  0.00    +0.000 N 
ATOM     22  H   UNL     1      45.209   1.947  12.248  0.00  0.00    +0.000 HD
BRANCH  21  23
ATOM     23  C   UNL     1      43.851   2.994  11.108  0.00  0.00    +0.000 C 
BRANCH  23  24
ATOM     24  C   UNL     1      44.602   2.691   9.792  0.00  0.00    +0.000 C 
BRANCH  24  25
ATOM     25  N   UNL     1      44.274   3.639   8.718  0.00  0.00    +0.000 NA
ATOM     26  H   UNL     1      44.765   4.513   8.911  0.00  0.00    +0.000 HD
ATOM     27  H   UNL     1      43.282   3.871   8.786  0.00  0.00    +0.000 HD
ENDBRANCH  24  25
ENDBRANCH  23  24
ENDBRANCH  21  23
ENDBRANCH  18  21
ENDBRANCH   1  15
TORSDOF 7
ENDMDL
MODEL 5
REMARK VINA RESULT:    -5.461      3.567      6.597
REMARK INTER + INTRA:          -8.146
REMARK INTER:                  -7.596
REMARK INTRA:                  -0.550
REMARK UNBOUND:                -0.610
REMARK  Name = 
REMARK  10 active torsions:
REMARK  status: ('A' for Active; 'I' for Inactive)
REMARK    1  A    between atoms: C_1  and  C_2
REMARK    2  A    between atoms: C_2  and  C_3
REMARK    3  A    between atoms: C_2  and  C_4
REMARK    4  A    between atoms: C_2  and  C_5
REMARK    5  A    between atoms: N_7  and  C_8
REMARK    6  A    between atoms: C_8  and  C_9
REMARK    7  A    between atoms: C_12  and  N_13
REMARK    8  A    between atoms: N_13  and  C_14
REMARK    9  A    between atoms: C_14  and  C_15
REMARK   10  A    between atoms: C_15  and  N_16
REMARK                            x       y       z     vdW  Elec       q    Type
REMARK                         _______ _______ _______ _____ _____    ______ ____
ROOT
ATOM      1  C   UNL     1      49.229   7.024  14.627  0.00  0.00    +0.000 C 
ENDROOT
BRANCH   1   4
ATOM      2  C   UNL     1      48.898   6.185  18.164  0.00  0.00    +0.000 A 
ATOM      3  C   UNL     1      49.281   5.900  16.862  0.00  0.00    +0.000 A 
ATOM      4  N   UNL     1      49.086   7.010  16.079  0.00  0.00    +0.000 N 
ATOM      5  C   UNL     1      48.639   8.058  16.855  0.00  0.00    +0.000 A 
ATOM      6  C   UNL     1      48.326   9.385  16.510  0.00  0.00    +0.000 A 
ATOM      7  C   UNL     1      47.871  10.243  17.513  0.00  0.00    +0.000 A 
ATOM      8  C   UNL     1      47.731   9.795  18.820  0.00  0.00    +0.000 A 
ATOM      9  C   UNL     1      48.044   8.472  19.152  0.00  0.00    +0.000 A 
ATOM     10  C   UNL     1      48.512   7.576  18.163  0.00  0.00    +0.000 A 
BRANCH   2  12
ATOM     11  C   UNL     1      50.170   5.232  20.154  0.00  0.00    +0.000 C 
ATOM     12  C   UNL     1      48.856   5.203  19.336  0.00  0.00    +0.000 C 
ATOM     13  C   UNL     1      48.679   3.763  18.810  0.00  0.00    +0.000 C 
ATOM     14  C   UNL     1      47.711   5.537  20.313  0.00  0.00    +0.000 C 
ENDBRANCH   2  12
ENDBRANCH   1   4
BRANCH   1  15
ATOM     15  C   UNL     1      47.929   6.687  13.947  0.00  0.00    +0.000 A 
ATOM     16  C   UNL     1      47.125   7.689  13.413  0.00  0.00    +0.000 A 
ATOM     17  C   UNL     1      45.883   7.347  12.877  0.00  0.00    +0.000 A 
ATOM     18  C   UNL     1      45.434   6.027  12.916  0.00  0.00    +0.000 A 
ATOM     19  C   UNL     1      46.354   5.089  13.378  0.00  0.00    +0.000 A 
ATOM     20  N   UNL     1      47.573   5.381  13.896  0.00  0.00    +0.000 NA
BRANCH  18  21
ATOM     21  N   UNL     1      44.163   5.715  12.421  0.00  0.00    +0.000 N 
ATOM     22  H   UNL     1      43.474   6.436  12.631  0.00  0.00    +0.000 HD
BRANCH  21  23
ATOM     23  C   UNL     1      43.608   4.383  12.712  0.00  0.00    +0.000 C 
BRANCH  23  24
ATOM     24  C   UNL     1      43.345   3.553  11.436  0.00  0.00    +0.000 C 
BRANCH  24  25
ATOM     25  N   UNL     1      43.037   2.145  11.725  0.00  0.00    +0.000 NA
ATOM     26  H   UNL     1      42.093   2.105  12.111  0.00  0.00    +0.000 HD
ATOM     27  H   UNL     1      43.647   1.831  12.480  0.00  0.00    +0.000 HD
ENDBRANCH  24  25
ENDBRANCH  23  24
ENDBRANCH  21  23
ENDBRANCH  18  21
ENDBRANCH   1  15
TORSDOF 7
ENDMDL
MODEL 6
REMARK VINA RESULT:    -5.220      3.472      5.584
REMARK INTER + INTRA:          -7.814
REMARK INTER:                  -7.096
REMARK INTRA:                  -0.718
REMARK UNBOUND:                -0.610
REMARK  Name = 
REMARK  10 active torsions:
REMARK  status: ('A' for Active; 'I' for Inactive)
REMARK    1  A    between atoms: C_1  and  C_2
REMARK    2  A    between atoms: C_2  and  C_3
REMARK    3  A    between atoms: C_2  and  C_4
REMARK    4  A    between atoms: C_2  and  C_5
REMARK    5  A    between atoms: N_7  and  C_8
REMARK    6  A    between atoms: C_8  and  C_9
REMARK    7  A    between atoms: C_12  and  N_13
REMARK    8  A    between atoms: N_13  and  C_14
REMARK    9  A    between atoms: C_14  and  C_15
REMARK   10  A    between atoms: C_15  and  N_16
REMARK                            x       y       z     vdW  Elec       q    Type
REMARK                         _______ _______ _______ _____ _____    ______ ____
ROOT
ATOM      1  C   UNL     1      48.980   6.992  14.570  0.00  0.00    +0.000 C 
ENDROOT
BRANCH   1   4
ATOM      2  C   UNL     1      48.420   8.627  17.785  0.00  0.00    +0.000 A 
ATOM      3  C   UNL     1      48.421   8.606  16.399  0.00  0.00    +0.000 A 
ATOM      4  N   UNL     1      48.732   7.342  15.965  0.00  0.00    +0.000 N 
ATOM      5  C   UNL     1      48.873   6.497  17.045  0.00  0.00    +0.000 A 
ATOM      6  C   UNL     1      49.163   5.122  17.101  0.00  0.00    +0.000 A 
ATOM      7  C   UNL     1      49.267   4.515  18.354  0.00  0.00    +0.000 A 
ATOM      8  C   UNL     1      49.087   5.253  19.516  0.00  0.00    +0.000 A 
ATOM      9  C   UNL     1      48.800   6.622  19.449  0.00  0.00    +0.000 A 
ATOM     10  C   UNL     1      48.684   7.269  18.197  0.00  0.00    +0.000 A 
BRANCH   2  12
ATOM     11  C   UNL     1      49.479  10.141  19.538  0.00  0.00    +0.000 C 
ATOM     12  C   UNL     1      48.224   9.855  18.677  0.00  0.00    +0.000 C 
ATOM     13  C   UNL     1      47.050   9.616  19.649  0.00  0.00    +0.000 C 
ATOM     14  C   UNL     1      47.952  11.121  17.843  0.00  0.00    +0.000 C 
ENDBRANCH   2  12
ENDBRANCH   1   4
BRANCH   1  15
ATOM     15  C   UNL     1      47.739   6.449  13.914  0.00  0.00    +0.000 A 
ATOM     16  C   UNL     1      46.836   7.302  13.287  0.00  0.00    +0.000 A 
ATOM     17  C   UNL     1      45.650   6.774  12.775  0.00  0.00    +0.000 A 
ATOM     18  C   UNL     1      45.354   5.419  12.928  0.00  0.00    +0.000 A 
ATOM     19  C   UNL     1      46.367   4.637  13.478  0.00  0.00    +0.000 A 
ATOM     20  N   UNL     1      47.535   5.112  13.976  0.00  0.00    +0.000 NA
BRANCH  18  21
ATOM     21  N   UNL     1      44.135   4.921  12.454  0.00  0.00    +0.000 N 
ATOM     22  H   UNL     1      43.996   3.940  12.690  0.00  0.00    +0.000 HD
BRANCH  21  23
ATOM     23  C   UNL     1      43.786   5.158  11.043  0.00  0.00    +0.000 C 
BRANCH  23  24
ATOM     24  C   UNL     1      44.652   4.330  10.067  0.00  0.00    +0.000 C 
BRANCH  24  25
ATOM     25  N   UNL     1      44.128   4.340   8.693  0.00  0.00    +0.000 NA
ATOM     26  H   UNL     1      44.759   3.783   8.115  0.00  0.00    +0.000 HD
ATOM     27  H   UNL     1      44.203   5.290   8.328  0.00  0.00    +0.000 HD
ENDBRANCH  24  25
ENDBRANCH  23  24
ENDBRANCH  21  23
ENDBRANCH  18  21
ENDBRANCH   1  15
TORSDOF 7
ENDMDL
MODEL 7
REMARK VINA RESULT:    -5.216      3.804      7.315
REMARK INTER + INTRA:          -7.808
REMARK INTER:                  -7.655
REMARK INTRA:                  -0.154
REMARK UNBOUND:                -0.610
REMARK  Name = 
REMARK  10 active torsions:
REMARK  status: ('A' for Active; 'I' for Inactive)
REMARK    1  A    between atoms: C_1  and  C_2
REMARK    2  A    between atoms: C_2  and  C_3
REMARK    3  A    between atoms: C_2  and  C_4
REMARK    4  A    between atoms: C_2  and  C_5
REMARK    5  A    between atoms: N_7  and  C_8
REMARK    6  A    between atoms: C_8  and  C_9
REMARK    7  A    between atoms: C_12  and  N_13
REMARK    8  A    between atoms: N_13  and  C_14
REMARK    9  A    between atoms: C_14  and  C_15
REMARK   10  A    between atoms: C_15  and  N_16
REMARK                            x       y       z     vdW  Elec       q    Type
REMARK                         _______ _______ _______ _____ _____    ______ ____
ROOT
ATOM      1  C   UNL     1      47.119   3.204  14.144  0.00  0.00    +0.000 C 
ENDROOT
BRANCH   1   4
ATOM      2  C   UNL     1      46.752   6.680  13.091  0.00  0.00    +0.000 A 
ATOM      3  C   UNL     1      47.478   5.626  13.624  0.00  0.00    +0.000 A 
ATOM      4  N   UNL     1      46.736   4.475  13.537  0.00  0.00    +0.000 N 
ATOM      5  C   UNL     1      45.546   4.732  12.889  0.00  0.00    +0.000 A 
ATOM      6  C   UNL     1      44.485   3.875  12.548  0.00  0.00    +0.000 A 
ATOM      7  C   UNL     1      43.375   4.419  11.899  0.00  0.00    +0.000 A 
ATOM      8  C   UNL     1      43.322   5.773  11.597  0.00  0.00    +0.000 A 
ATOM      9  C   UNL     1      44.384   6.617  11.942  0.00  0.00    +0.000 A 
ATOM     10  C   UNL     1      45.526   6.101  12.597  0.00  0.00    +0.000 A 
BRANCH   2  12
ATOM     11  C   UNL     1      47.885   8.556  14.389  0.00  0.00    +0.000 C 
ATOM     12  C   UNL     1      47.163   8.154  13.080  0.00  0.00    +0.000 C 
ATOM     13  C   UNL     1      45.911   9.048  12.959  0.00  0.00    +0.000 C 
ATOM     14  C   UNL     1      48.129   8.463  11.920  0.00  0.00    +0.000 C 
ENDBRANCH   2  12
ENDBRANCH   1   4
BRANCH   1  15
ATOM     15  C   UNL     1      47.548   3.390  15.575  0.00  0.00    +0.000 A 
ATOM     16  C   UNL     1      48.647   2.705  16.082  0.00  0.00    +0.000 A 
ATOM     17  C   UNL     1      48.956   2.828  17.437  0.00  0.00    +0.000 A 
ATOM     18  C   UNL     1      48.148   3.592  18.281  0.00  0.00    +0.000 A 
ATOM     19  C   UNL     1      47.136   4.316  17.655  0.00  0.00    +0.000 A 
ATOM     20  N   UNL     1      46.813   4.231  16.341  0.00  0.00    +0.000 NA
BRANCH  18  21
ATOM     21  N   UNL     1      48.446   3.659  19.646  0.00  0.00    +0.000 N 
ATOM     22  H   UNL     1      47.732   3.217  20.223  0.00  0.00    +0.000 HD
BRANCH  21  23
ATOM     23  C   UNL     1      48.822   4.964  20.215  0.00  0.00    +0.000 C 
BRANCH  23  24
ATOM     24  C   UNL     1      50.254   5.394  19.825  0.00  0.00    +0.000 C 
BRANCH  24  25
ATOM     25  N   UNL     1      51.263   4.377  20.154  0.00  0.00    +0.000 NA
ATOM     26  H   UNL     1      50.805   3.465  20.139  0.00  0.00    +0.000 HD
ATOM     27  H   UNL     1      51.552   4.513  21.123  0.00  0.00    +0.000 HD
ENDBRANCH  24  25
ENDBRANCH  23  24
ENDBRANCH  21  23
ENDBRANCH  18  21
ENDBRANCH   1  15
TORSDOF 7
ENDMDL
MODEL 8
REMARK VINA RESULT:    -5.196      3.299      6.179
REMARK INTER + INTRA:          -7.781
REMARK INTER:                  -7.285
REMARK INTRA:                  -0.496
REMARK UNBOUND:                -0.610
REMARK  Name = 
REMARK  10 active torsions:
REMARK  status: ('A' for Active; 'I' for Inactive)
REMARK    1  A    between atoms: C_1  and  C_2
REMARK    2  A    between atoms: C_2  and  C_3
REMARK    3  A    between atoms: C_2  and  C_4
REMARK    4  A    between atoms: C_2  and  C_5
REMARK    5  A    between atoms: N_7  and  C_8
REMARK    6  A    between atoms: C_8  and  C_9
REMARK    7  A    between atoms: C_12  and  N_13
REMARK    8  A    between atoms: N_13  and  C_14
REMARK    9  A    between atoms: C_14  and  C_15
REMARK   10  A    between atoms: C_15  and  N_16
REMARK                            x       y       z     vdW  Elec       q    Type
REMARK                         _______ _______ _______ _____ _____    ______ ____
ROOT
ATOM      1  C   UNL     1      48.528   8.337  14.384  0.00  0.00    +0.000 C 
ENDROOT
BRANCH   1   4
ATOM      2  C   UNL     1      49.062   5.515  16.636  0.00  0.00    +0.000 A 
ATOM      3  C   UNL     1      48.273   6.290  15.800  0.00  0.00    +0.000 A 
ATOM      4  N   UNL     1      49.052   7.247  15.201  0.00  0.00    +0.000 N 
ATOM      5  C   UNL     1      50.369   7.080  15.573  0.00  0.00    +0.000 A 
ATOM      6  C   UNL     1      51.523   7.793  15.203  0.00  0.00    +0.000 A 
ATOM      7  C   UNL     1      52.746   7.411  15.757  0.00  0.00    +0.000 A 
ATOM      8  C   UNL     1      52.819   6.351  16.651  0.00  0.00    +0.000 A 
ATOM      9  C   UNL     1      51.664   5.648  17.013  0.00  0.00    +0.000 A 
ATOM     10  C   UNL     1      50.409   6.005  16.469  0.00  0.00    +0.000 A 
BRANCH   2  12
ATOM     11  C   UNL     1      49.461   3.136  17.454  0.00  0.00    +0.000 C 
ATOM     12  C   UNL     1      48.579   4.403  17.571  0.00  0.00    +0.000 C 
ATOM     13  C   UNL     1      47.139   3.991  17.200  0.00  0.00    +0.000 C 
ATOM     14  C   UNL     1      48.622   4.847  19.046  0.00  0.00    +0.000 C 
ENDBRANCH   2  12
ENDBRANCH   1   4
BRANCH   1  15
ATOM     15  C   UNL     1      47.498   7.839  13.405  0.00  0.00    +0.000 A 
ATOM     16  C   UNL     1      46.257   8.460  13.303  0.00  0.00    +0.000 A 
ATOM     17  C   UNL     1      45.294   7.911  12.455  0.00  0.00    +0.000 A 
ATOM     18  C   UNL     1      45.556   6.734  11.753  0.00  0.00    +0.000 A 
ATOM     19  C   UNL     1      46.859   6.252  11.847  0.00  0.00    +0.000 A 
ATOM     20  N   UNL     1      47.825   6.763  12.651  0.00  0.00    +0.000 NA
BRANCH  18  21
ATOM     21  N   UNL     1      44.557   6.173  10.950  0.00  0.00    +0.000 N 
ATOM     22  H   UNL     1      44.213   6.822  10.244  0.00  0.00    +0.000 HD
BRANCH  21  23
ATOM     23  C   UNL     1      43.429   5.496  11.610  0.00  0.00    +0.000 C 
BRANCH  23  24
ATOM     24  C   UNL     1      43.785   4.070  12.087  0.00  0.00    +0.000 C 
BRANCH  24  25
ATOM     25  N   UNL     1      42.944   3.036  11.468  0.00  0.00    +0.000 NA
ATOM     26  H   UNL     1      42.505   2.499  12.218  0.00  0.00    +0.000 HD
ATOM     27  H   UNL     1      43.552   2.372  10.988  0.00  0.00    +0.000 HD
ENDBRANCH  24  25
ENDBRANCH  23  24
ENDBRANCH  21  23
ENDBRANCH  18  21
ENDBRANCH   1  15
TORSDOF 7
ENDMDL
MODEL 9
REMARK VINA RESULT:    -5.096      4.553      7.546
REMARK INTER + INTRA:          -7.642
REMARK INTER:                  -7.092
REMARK INTRA:                  -0.550
REMARK UNBOUND:                -0.610
REMARK  Name = 
REMARK  10 active torsions:
REMARK  status: ('A' for Active; 'I' for Inactive)
REMARK    1  A    between atoms: C_1  and  C_2
REMARK    2  A    between atoms: C_2  and  C_3
REMARK    3  A    between atoms: C_2  and  C_4
REMARK    4  A    between atoms: C_2  and  C_5
REMARK    5  A    between atoms: N_7  and  C_8
REMARK    6  A    between atoms: C_8  and  C_9
REMARK    7  A    between atoms: C_12  and  N_13
REMARK    8  A    between atoms: N_13  and  C_14
REMARK    9  A    between atoms: C_14  and  C_15
REMARK   10  A    between atoms: C_15  and  N_16
REMARK                            x       y       z     vdW  Elec       q    Type
REMARK                         _______ _______ _______ _____ _____    ______ ____
ROOT
ATOM      1  C   UNL     1      47.940   3.219  16.957  0.00  0.00    +0.000 C 
ENDROOT
BRANCH   1   4
ATOM      2  C   UNL     1      51.244   3.974  18.311  0.00  0.00    +0.000 A 
ATOM      3  C   UNL     1      50.399   3.360  17.400  0.00  0.00    +0.000 A 
ATOM      4  N   UNL     1      49.112   3.780  17.622  0.00  0.00    +0.000 N 
ATOM      5  C   UNL     1      49.093   4.721  18.630  0.00  0.00    +0.000 A 
ATOM      6  C   UNL     1      48.024   5.446  19.186  0.00  0.00    +0.000 A 
ATOM      7  C   UNL     1      48.296   6.336  20.227  0.00  0.00    +0.000 A 
ATOM      8  C   UNL     1      49.591   6.500  20.700  0.00  0.00    +0.000 A 
ATOM      9  C   UNL     1      50.647   5.773  20.139  0.00  0.00    +0.000 A 
ATOM     10  C   UNL     1      50.410   4.865  19.081  0.00  0.00    +0.000 A 
BRANCH   2  12
ATOM     11  C   UNL     1      53.595   4.781  17.753  0.00  0.00    +0.000 C 
ATOM     12  C   UNL     1      52.743   3.714  18.482  0.00  0.00    +0.000 C 
ATOM     13  C   UNL     1      53.111   2.344  17.873  0.00  0.00    +0.000 C 
ATOM     14  C   UNL     1      53.156   3.744  19.966  0.00  0.00    +0.000 C 
ENDBRANCH   2  12
ENDBRANCH   1   4
BRANCH   1  15
ATOM     15  C   UNL     1      47.668   3.915  15.651  0.00  0.00    +0.000 A 
ATOM     16  C   UNL     1      47.841   5.290  15.529  0.00  0.00    +0.000 A 
ATOM     17  C   UNL     1      47.486   5.914  14.332  0.00  0.00    +0.000 A 
ATOM     18  C   UNL     1      46.926   5.177  13.288  0.00  0.00    +0.000 A 
ATOM     19  C   UNL     1      46.891   3.797  13.474  0.00  0.00    +0.000 A 
ATOM     20  N   UNL     1      47.236   3.154  14.618  0.00  0.00    +0.000 NA
BRANCH  18  21
ATOM     21  N   UNL     1      46.529   5.831  12.117  0.00  0.00    +0.000 N 
ATOM     22  H   UNL     1      47.280   6.382  11.704  0.00  0.00    +0.000 HD
BRANCH  21  23
ATOM     23  C   UNL     1      45.281   6.611  12.142  0.00  0.00    +0.000 C 
BRANCH  23  24
ATOM     24  C   UNL     1      44.023   5.730  11.970  0.00  0.00    +0.000 C 
BRANCH  24  25
ATOM     25  N   UNL     1      43.254   5.586  13.215  0.00  0.00    +0.000 NA
ATOM     26  H   UNL     1      42.961   4.611  13.290  0.00  0.00    +0.000 HD
ATOM     27  H   UNL     1      42.388   6.118  13.121  0.00  0.00    +0.000 HD
ENDBRANCH  24  25
ENDBRANCH  23  24
ENDBRANCH  21  23
ENDBRANCH  18  21
ENDBRANCH   1  15
TORSDOF 7
ENDMDL
