MODEL 1
REMARK VINA RESULT:    -8.449      0.000      0.000
REMARK INTER + INTRA:         -12.256
REMARK INTER:                 -11.166
REMARK INTRA:                  -1.090
REMARK UNBOUND:                -1.090
REMARK  Name = 
REMARK  7 active torsions:
REMARK  status: ('A' for Active; 'I' for Inactive)
REMARK    1  A    between atoms: C_1  and  C_2
REMARK    2  A    between atoms: C_2  and  C_3
REMARK    3  A    between atoms: C_7  and  C_8
REMARK    4  A    between atoms: C_8  and  C_9
REMARK    5  A    between atoms: C_9  and  N_10
REMARK    6  A    between atoms: C_14  and  C_15
REMARK    7  A    between atoms: C_23  and  O_24
REMARK                            x       y       z     vdW  Elec       q    Type
REMARK                         _______ _______ _______ _____ _____    ______ ____
ROOT
ATOM      1  C   UNL     1      43.880   6.027  11.855  0.00  0.00    +0.000 C 
ENDROOT
BRANCH   1   6
ATOM      2  C   UNL     1      47.522   6.841  12.656  0.00  0.00    +0.000 A 
ATOM      3  C   UNL     1      47.840   5.790  13.536  0.00  0.00    +0.000 A 
ATOM      4  C   UNL     1      46.915   4.792  13.836  0.00  0.00    +0.000 A 
ATOM      5  C   UNL     1      45.640   4.828  13.276  0.00  0.00    +0.000 A 
ATOM      6  C   UNL     1      45.274   5.876  12.425  0.00  0.00    +0.000 A 
ATOM      7  C   UNL     1      46.225   6.861  12.118  0.00  0.00    +0.000 A 
BRANCH   2   9
ATOM      8  C   UNL     1      49.611   7.378  11.441  0.00  0.00    +0.000 C 
ATOM      9  C   UNL     1      48.546   7.956  12.398  0.00  0.00    +0.000 C 
ATOM     10  C   UNL     1      47.882   9.221  11.792  0.00  0.00    +0.000 C 
ATOM     11  C   UNL     1      47.692  10.236  12.930  0.00  0.00    +0.000 C 
ATOM     12  C   UNL     1      48.296   9.609  14.177  0.00  0.00    +0.000 C 
ATOM     13  C   UNL     1      49.252   8.547  13.645  0.00  0.00    +0.000 C 
BRANCH  12  14
ATOM     14  O   UNL     1      47.284   9.056  15.006  0.00  0.00    +0.000 OA
ATOM     15  H   UNL     1      46.763   9.785  15.389  0.00  0.00    +0.000 HD
ENDBRANCH  12  14
ENDBRANCH   2   9
ENDBRANCH   1   6
BRANCH   1  16
ATOM     16  C   UNL     1      43.453   4.823  11.020  0.00  0.00    +0.000 C 
BRANCH  16  17
ATOM     17  N   UNL     1      43.798   4.989   9.614  0.00  0.00    +0.000 N 
ATOM     18  C   UNL     1      44.629   4.002   9.089  0.00  0.00    +0.000 A 
ATOM     19  C   UNL     1      44.651   2.676   9.549  0.00  0.00    +0.000 A 
ATOM     20  N   UNL     1      45.454   1.699   9.062  0.00  0.00    +0.000 NA
ATOM     21  C   UNL     1      46.234   2.083   8.021  0.00  0.00    +0.000 A 
ATOM     22  C   UNL     1      46.225   3.392   7.544  0.00  0.00    +0.000 A 
ATOM     23  N   UNL     1      45.430   4.371   8.072  0.00  0.00    +0.000 NA
ATOM     24  H   UNL     1      44.223   5.880   9.361  0.00  0.00    +0.000 HD
BRANCH  21  25
ATOM     25  C   UNL     1      47.086   1.022   7.390  0.00  0.00    +0.000 C 
ATOM     26  N   UNL     1      46.797  -0.300   7.673  0.00  0.00    +0.000 N 
ATOM     27  O   UNL     1      48.005   1.285   6.649  0.00  0.00    +0.000 OA
ATOM     28  H   UNL     1      46.058  -0.615   8.281  0.00  0.00    +0.000 HD
ATOM     29  H   UNL     1      47.410  -0.983   7.249  0.00  0.00    +0.000 HD
ENDBRANCH  21  25
ENDBRANCH  16  17
ENDBRANCH   1  16
TORSDOF 6
ENDMDL
MODEL 2
REMARK VINA RESULT:    -7.382      1.555      2.186
REMARK INTER + INTRA:         -10.845
REMARK INTER:                 -10.732
REMARK INTRA:                  -0.113
REMARK UNBOUND:                -1.090
REMARK  Name = 
REMARK  7 active torsions:
REMARK  status: ('A' for Active; 'I' for Inactive)
REMARK    1  A    between atoms: C_1  and  C_2
REMARK    2  A    between atoms: C_2  and  C_3
REMARK    3  A    between atoms: C_7  and  C_8
REMARK    4  A    between atoms: C_8  and  C_9
REMARK    5  A    between atoms: C_9  and  N_10
REMARK    6  A    between atoms: C_14  and  C_15
REMARK    7  A    between atoms: C_23  and  O_24
REMARK                            x       y       z     vdW  Elec       q    Type
REMARK                         _______ _______ _______ _____ _____    ______ ____
ROOT
ATOM      1  C   UNL     1      43.259   5.141  12.178  0.00  0.00    +0.000 C 
ENDROOT
BRANCH   1   6
ATOM      2  C   UNL     1      46.515   6.937  13.039  0.00  0.00    +0.000 A 
ATOM      3  C   UNL     1      47.154   5.962  13.825  0.00  0.00    +0.000 A 
ATOM      4  C   UNL     1      46.576   4.712  14.040  0.00  0.00    +0.000 A 
ATOM      5  C   UNL     1      45.333   4.412  13.488  0.00  0.00    +0.000 A 
ATOM      6  C   UNL     1      44.649   5.368  12.730  0.00  0.00    +0.000 A 
ATOM      7  C   UNL     1      45.256   6.613  12.507  0.00  0.00    +0.000 A 
BRANCH   2   9
ATOM      8  C   UNL     1      46.020   9.301  12.492  0.00  0.00    +0.000 C 
ATOM      9  C   UNL     1      47.153   8.325  12.876  0.00  0.00    +0.000 C 
ATOM     10  C   UNL     1      47.869   8.787  14.173  0.00  0.00    +0.000 C 
ATOM     11  C   UNL     1      49.374   8.537  13.987  0.00  0.00    +0.000 C 
ATOM     12  C   UNL     1      49.554   7.998  12.576  0.00  0.00    +0.000 C 
ATOM     13  C   UNL     1      48.297   8.440  11.836  0.00  0.00    +0.000 C 
BRANCH  12  14
ATOM     14  O   UNL     1      49.702   6.586  12.590  0.00  0.00    +0.000 OA
ATOM     15  H   UNL     1      50.527   6.356  12.125  0.00  0.00    +0.000 HD
ENDBRANCH  12  14
ENDBRANCH   2   9
ENDBRANCH   1   6
BRANCH   1  16
ATOM     16  C   UNL     1      43.273   4.502  10.792  0.00  0.00    +0.000 C 
BRANCH  16  17
ATOM     17  N   UNL     1      44.137   3.329  10.745  0.00  0.00    +0.000 N 
ATOM     18  C   UNL     1      44.907   3.208   9.590  0.00  0.00    +0.000 A 
ATOM     19  C   UNL     1      45.357   4.302   8.836  0.00  0.00    +0.000 A 
ATOM     20  N   UNL     1      46.100   4.213   7.706  0.00  0.00    +0.000 NA
ATOM     21  C   UNL     1      46.442   2.947   7.359  0.00  0.00    +0.000 A 
ATOM     22  C   UNL     1      46.011   1.847   8.096  0.00  0.00    +0.000 A 
ATOM     23  N   UNL     1      45.234   1.957   9.216  0.00  0.00    +0.000 NA
ATOM     24  H   UNL     1      43.674   2.429  10.871  0.00  0.00    +0.000 HD
BRANCH  21  25
ATOM     25  C   UNL     1      47.331   2.793   6.161  0.00  0.00    +0.000 C 
ATOM     26  N   UNL     1      48.656   2.459   6.371  0.00  0.00    +0.000 N 
ATOM     27  O   UNL     1      46.928   2.948   5.032  0.00  0.00    +0.000 OA
ATOM     28  H   UNL     1      49.082   2.316   7.273  0.00  0.00    +0.000 HD
ATOM     29  H   UNL     1      49.227   2.390   5.540  0.00  0.00    +0.000 HD
ENDBRANCH  21  25
ENDBRANCH  16  17
ENDBRANCH   1  16
TORSDOF 6
ENDMDL
MODEL 3
REMARK VINA RESULT:    -7.278      1.178      2.100
REMARK INTER + INTRA:         -10.709
REMARK INTER:                 -10.191
REMARK INTRA:                  -0.518
REMARK UNBOUND:                -1.090
REMARK  Name = 
REMARK  7 active torsions:
REMARK  status: ('A' for Active; 'I' for Inactive)
REMARK    1  A    between atoms: C_1  and  C_2
REMARK    2  A    between atoms: C_2  and  C_3
REMARK    3  A    between atoms: C_7  and  C_8
REMARK    4  A    between atoms: C_8  and  C_9
REMARK    5  A    between atoms: C_9  and  N_10
REMARK    6  A    between atoms: C_14  and  C_15
REMARK    7  A    between atoms: C_23  and  O_24
REMARK                            x       y       z     vdW  Elec       q    Type
REMARK                         _______ _______ _______ _____ _____    ______ ____
ROOT
ATOM      1  C   UNL     1      42.995   5.518  12.014  0.00  0.00    +0.000 C 
ENDROOT
BRANCH   1   6
ATOM      2  C   UNL     1      46.480   6.758  12.954  0.00  0.00    +0.000 A 
ATOM      3  C   UNL     1      46.479   8.029  12.352  0.00  0.00    +0.000 A 
ATOM      4  C   UNL     1      45.354   8.516  11.691  0.00  0.00    +0.000 A 
ATOM      5  C   UNL     1      44.203   7.736  11.600  0.00  0.00    +0.000 A 
ATOM      6  C   UNL     1      44.177   6.453  12.155  0.00  0.00    +0.000 A 
ATOM      7  C   UNL     1      45.313   5.987  12.834  0.00  0.00    +0.000 A 
BRANCH   2   9
ATOM      8  C   UNL     1      47.775   4.699  13.419  0.00  0.00    +0.000 C 
ATOM      9  C   UNL     1      47.760   6.230  13.620  0.00  0.00    +0.000 C 
ATOM     10  C   UNL     1      49.034   6.882  13.020  0.00  0.00    +0.000 C 
ATOM     11  C   UNL     1      49.490   7.986  13.986  0.00  0.00    +0.000 C 
ATOM     12  C   UNL     1      48.540   7.944  15.174  0.00  0.00    +0.000 C 
ATOM     13  C   UNL     1      47.934   6.545  15.128  0.00  0.00    +0.000 C 
BRANCH  12  14
ATOM     14  O   UNL     1      47.556   8.961  15.070  0.00  0.00    +0.000 OA
ATOM     15  H   UNL     1      47.446   9.377  15.944  0.00  0.00    +0.000 HD
ENDBRANCH  12  14
ENDBRANCH   2   9
ENDBRANCH   1   6
BRANCH   1  16
ATOM     16  C   UNL     1      43.281   4.344  11.081  0.00  0.00    +0.000 C 
BRANCH  16  17
ATOM     17  N   UNL     1      43.706   4.792   9.761  0.00  0.00    +0.000 N 
ATOM     18  C   UNL     1      44.618   3.957   9.119  0.00  0.00    +0.000 A 
ATOM     19  C   UNL     1      44.678   2.569   9.318  0.00  0.00    +0.000 A 
ATOM     20  N   UNL     1      45.558   1.735   8.713  0.00  0.00    +0.000 NA
ATOM     21  C   UNL     1      46.383   2.341   7.824  0.00  0.00    +0.000 A 
ATOM     22  C   UNL     1      46.338   3.717   7.606  0.00  0.00    +0.000 A 
ATOM     23  N   UNL     1      45.463   4.545   8.252  0.00  0.00    +0.000 NA
ATOM     24  H   UNL     1      44.102   5.730   9.715  0.00  0.00    +0.000 HD
BRANCH  21  25
ATOM     25  C   UNL     1      47.326   1.455   7.065  0.00  0.00    +0.000 C 
ATOM     26  N   UNL     1      48.395   2.044   6.417  0.00  0.00    +0.000 N 
ATOM     27  O   UNL     1      47.181   0.256   7.007  0.00  0.00    +0.000 OA
ATOM     28  H   UNL     1      48.593   3.032   6.404  0.00  0.00    +0.000 HD
ATOM     29  H   UNL     1      48.992   1.416   5.896  0.00  0.00    +0.000 HD
ENDBRANCH  21  25
ENDBRANCH  16  17
ENDBRANCH   1  16
TORSDOF 6
ENDMDL
MODEL 4
REMARK VINA RESULT:    -7.143      5.068      7.683
REMARK INTER + INTRA:         -10.530
REMARK INTER:                  -9.689
REMARK INTRA:                  -0.841
REMARK UNBOUND:                -1.090
REMARK  Name = 
REMARK  7 active torsions:
REMARK  status: ('A' for Active; 'I' for Inactive)
REMARK    1  A    between atoms: C_1  and  C_2
REMARK    2  A    between atoms: C_2  and  C_3
REMARK    3  A    between atoms: C_7  and  C_8
REMARK    4  A    between atoms: C_8  and  C_9
REMARK    5  A    between atoms: C_9  and  N_10
REMARK    6  A    between atoms: C_14  and  C_15
REMARK    7  A    between atoms: C_23  and  O_24
REMARK                            x       y       z     vdW  Elec       q    Type
REMARK                         _______ _______ _______ _____ _____    ______ ____
ROOT
ATOM      1  C   UNL     1      48.708   6.884  14.187  0.00  0.00    +0.000 C 
ENDROOT
BRANCH   1   6
ATOM      2  C   UNL     1      45.667   6.402  11.932  0.00  0.00    +0.000 A 
ATOM      3  C   UNL     1      45.064   7.669  12.029  0.00  0.00    +0.000 A 
ATOM      4  C   UNL     1      45.649   8.695  12.767  0.00  0.00    +0.000 A 
ATOM      5  C   UNL     1      46.846   8.475  13.444  0.00  0.00    +0.000 A 
ATOM      6  C   UNL     1      47.458   7.219  13.403  0.00  0.00    +0.000 A 
ATOM      7  C   UNL     1      46.865   6.203  12.638  0.00  0.00    +0.000 A 
BRANCH   2   9
ATOM      8  C   UNL     1      45.555   5.265   9.736  0.00  0.00    +0.000 C 
ATOM      9  C   UNL     1      44.961   5.277  11.161  0.00  0.00    +0.000 C 
ATOM     10  C   UNL     1      45.145   3.899  11.852  0.00  0.00    +0.000 C 
ATOM     11  C   UNL     1      43.857   3.597  12.635  0.00  0.00    +0.000 C 
ATOM     12  C   UNL     1      42.900   4.747  12.358  0.00  0.00    +0.000 C 
ATOM     13  C   UNL     1      43.416   5.370  11.065  0.00  0.00    +0.000 C 
BRANCH  12  14
ATOM     14  O   UNL     1      42.893   5.670  13.435  0.00  0.00    +0.000 OA
ATOM     15  H   UNL     1      41.974   5.943  13.606  0.00  0.00    +0.000 HD
ENDBRANCH  12  14
ENDBRANCH   2   9
ENDBRANCH   1   6
BRANCH   1  16
ATOM     16  C   UNL     1      48.533   7.089  15.689  0.00  0.00    +0.000 C 
BRANCH  16  17
ATOM     17  N   UNL     1      47.998   5.900  16.339  0.00  0.00    +0.000 N 
ATOM     18  C   UNL     1      48.947   4.939  16.686  0.00  0.00    +0.000 A 
ATOM     19  C   UNL     1      50.278   5.240  17.010  0.00  0.00    +0.000 A 
ATOM     20  N   UNL     1      51.222   4.326  17.343  0.00  0.00    +0.000 NA
ATOM     21  C   UNL     1      50.769   3.049  17.397  0.00  0.00    +0.000 A 
ATOM     22  C   UNL     1      49.450   2.727  17.084  0.00  0.00    +0.000 A 
ATOM     23  N   UNL     1      48.522   3.662  16.719  0.00  0.00    +0.000 NA
ATOM     24  H   UNL     1      47.267   5.404  15.831  0.00  0.00    +0.000 HD
BRANCH  21  25
ATOM     25  C   UNL     1      51.751   2.004  17.837  0.00  0.00    +0.000 C 
ATOM     26  N   UNL     1      51.353   0.680  17.804  0.00  0.00    +0.000 N 
ATOM     27  O   UNL     1      52.866   2.280  18.213  0.00  0.00    +0.000 OA
ATOM     28  H   UNL     1      50.444   0.355  17.513  0.00  0.00    +0.000 HD
ATOM     29  H   UNL     1      52.034   0.009  18.132  0.00  0.00    +0.000 HD
ENDBRANCH  21  25
ENDBRANCH  16  17
ENDBRANCH   1  16
TORSDOF 6
ENDMDL
MODEL 5
REMARK VINA RESULT:    -6.911      4.366      7.331
REMARK INTER + INTRA:         -10.224
REMARK INTER:                  -9.021
REMARK INTRA:                  -1.203
REMARK UNBOUND:                -1.090
REMARK  Name = 
REMARK  7 active torsions:
REMARK  status: ('A' for Active; 'I' for Inactive)
REMARK    1  A    between atoms: C_1  and  C_2
REMARK    2  A    between atoms: C_2  and  C_3
REMARK    3  A    between atoms: C_7  and  C_8
REMARK    4  A    between atoms: C_8  and  C_9
REMARK    5  A    between atoms: C_9  and  N_10
REMARK    6  A    between atoms: C_14  and  C_15
REMARK    7  A    between atoms: C_23  and  O_24
REMARK                            x       y       z     vdW  Elec       q    Type
REMARK                         _______ _______ _______ _____ _____    ______ ____
ROOT
ATOM      1  C   UNL     1      47.456   8.929  13.763  0.00  0.00    +0.000 C 
ENDROOT
BRANCH   1   6
ATOM      2  C   UNL     1      45.101   6.934  11.518  0.00  0.00    +0.000 A 
ATOM      3  C   UNL     1      44.216   7.945  11.101  0.00  0.00    +0.000 A 
ATOM      4  C   UNL     1      44.396   9.271  11.489  0.00  0.00    +0.000 A 
ATOM      5  C   UNL     1      45.458   9.618  12.320  0.00  0.00    +0.000 A 
ATOM      6  C   UNL     1      46.339   8.637  12.786  0.00  0.00    +0.000 A 
ATOM      7  C   UNL     1      46.154   7.311  12.368  0.00  0.00    +0.000 A 
BRANCH   2   9
ATOM      8  C   UNL     1      45.408   5.282   9.699  0.00  0.00    +0.000 C 
ATOM      9  C   UNL     1      44.835   5.475  11.120  0.00  0.00    +0.000 C 
ATOM     10  C   UNL     1      45.481   4.478  12.119  0.00  0.00    +0.000 C 
ATOM     11  C   UNL     1      44.372   3.982  13.061  0.00  0.00    +0.000 C 
ATOM     12  C   UNL     1      43.077   4.623  12.586  0.00  0.00    +0.000 C 
ATOM     13  C   UNL     1      43.355   5.013  11.138  0.00  0.00    +0.000 C 
BRANCH  12  14
ATOM     14  O   UNL     1      42.742   5.743  13.390  0.00  0.00    +0.000 OA
ATOM     15  H   UNL     1      42.156   6.329  12.879  0.00  0.00    +0.000 HD
ENDBRANCH  12  14
ENDBRANCH   2   9
ENDBRANCH   1   6
BRANCH   1  16
ATOM     16  C   UNL     1      48.711   8.105  13.484  0.00  0.00    +0.000 C 
BRANCH  16  17
ATOM     17  N   UNL     1      49.445   7.804  14.706  0.00  0.00    +0.000 N 
ATOM     18  C   UNL     1      48.933   6.747  15.456  0.00  0.00    +0.000 A 
ATOM     19  C   UNL     1      48.242   5.660  14.900  0.00  0.00    +0.000 A 
ATOM     20  N   UNL     1      47.729   4.623  15.606  0.00  0.00    +0.000 NA
ATOM     21  C   UNL     1      47.979   4.675  16.938  0.00  0.00    +0.000 A 
ATOM     22  C   UNL     1      48.668   5.741  17.511  0.00  0.00    +0.000 A 
ATOM     23  N   UNL     1      49.150   6.794  16.784  0.00  0.00    +0.000 NA
ATOM     24  H   UNL     1      49.565   8.579  15.356  0.00  0.00    +0.000 HD
BRANCH  21  25
ATOM     25  C   UNL     1      47.503   3.513  17.759  0.00  0.00    +0.000 C 
ATOM     26  N   UNL     1      48.216   3.183  18.897  0.00  0.00    +0.000 N 
ATOM     27  O   UNL     1      46.525   2.868  17.462  0.00  0.00    +0.000 OA
ATOM     28  H   UNL     1      49.044   3.658  19.220  0.00  0.00    +0.000 HD
ATOM     29  H   UNL     1      47.878   2.379  19.408  0.00  0.00    +0.000 HD
ENDBRANCH  21  25
ENDBRANCH  16  17
ENDBRANCH   1  16
TORSDOF 6
ENDMDL
MODEL 6
REMARK VINA RESULT:    -6.644      3.699      5.658
REMARK INTER + INTRA:          -9.870
REMARK INTER:                  -8.832
REMARK INTRA:                  -1.038
REMARK UNBOUND:                -1.090
REMARK  Name = 
REMARK  7 active torsions:
REMARK  status: ('A' for Active; 'I' for Inactive)
REMARK    1  A    between atoms: C_1  and  C_2
REMARK    2  A    between atoms: C_2  and  C_3
REMARK    3  A    between atoms: C_7  and  C_8
REMARK    4  A    between atoms: C_8  and  C_9
REMARK    5  A    between atoms: C_9  and  N_10
REMARK    6  A    between atoms: C_14  and  C_15
REMARK    7  A    between atoms: C_23  and  O_24
REMARK                            x       y       z     vdW  Elec       q    Type
REMARK                         _______ _______ _______ _____ _____    ______ ____
ROOT
ATOM      1  C   UNL     1      48.768   7.316  13.396  0.00  0.00    +0.000 C 
ENDROOT
BRANCH   1   6
ATOM      2  C   UNL     1      49.135   6.002  16.960  0.00  0.00    +0.000 A 
ATOM      3  C   UNL     1      50.454   6.394  17.251  0.00  0.00    +0.000 A 
ATOM      4  C   UNL     1      51.212   7.122  16.336  0.00  0.00    +0.000 A 
ATOM      5  C   UNL     1      50.674   7.463  15.097  0.00  0.00    +0.000 A 
ATOM      6  C   UNL     1      49.379   7.060  14.755  0.00  0.00    +0.000 A 
ATOM      7  C   UNL     1      48.624   6.345  15.697  0.00  0.00    +0.000 A 
BRANCH   2   9
ATOM      8  C   UNL     1      47.729   6.117  18.995  0.00  0.00    +0.000 C 
ATOM      9  C   UNL     1      48.353   5.147  17.968  0.00  0.00    +0.000 C 
ATOM     10  C   UNL     1      47.258   4.293  17.274  0.00  0.00    +0.000 C 
ATOM     11  C   UNL     1      47.807   2.865  17.128  0.00  0.00    +0.000 C 
ATOM     12  C   UNL     1      49.179   2.856  17.786  0.00  0.00    +0.000 C 
ATOM     13  C   UNL     1      49.159   4.059  18.723  0.00  0.00    +0.000 C 
BRANCH  12  14
ATOM     14  O   UNL     1      50.207   2.950  16.812  0.00  0.00    +0.000 OA
ATOM     15  H   UNL     1      50.554   3.860  16.812  0.00  0.00    +0.000 HD
ENDBRANCH  12  14
ENDBRANCH   2   9
ENDBRANCH   1   6
BRANCH   1  16
ATOM     16  C   UNL     1      47.288   7.681  13.476  0.00  0.00    +0.000 C 
BRANCH  16  17
ATOM     17  N   UNL     1      46.641   7.614  12.172  0.00  0.00    +0.000 N 
ATOM     18  C   UNL     1      45.992   6.412  11.896  0.00  0.00    +0.000 A 
ATOM     19  C   UNL     1      45.421   5.591  12.880  0.00  0.00    +0.000 A 
ATOM     20  N   UNL     1      44.791   4.415  12.640  0.00  0.00    +0.000 NA
ATOM     21  C   UNL     1      44.695   4.089  11.327  0.00  0.00    +0.000 A 
ATOM     22  C   UNL     1      45.250   4.892  10.333  0.00  0.00    +0.000 A 
ATOM     23  N   UNL     1      45.910   6.059  10.599  0.00  0.00    +0.000 NA
ATOM     24  H   UNL     1      47.239   7.803  11.368  0.00  0.00    +0.000 HD
BRANCH  21  25
ATOM     25  C   UNL     1      43.938   2.837  10.997  0.00  0.00    +0.000 C 
ATOM     26  N   UNL     1      44.372   2.076   9.928  0.00  0.00    +0.000 N 
ATOM     27  O   UNL     1      42.974   2.477  11.631  0.00  0.00    +0.000 OA
ATOM     28  H   UNL     1      45.159   2.298   9.339  0.00  0.00    +0.000 HD
ATOM     29  H   UNL     1      43.820   1.254   9.722  0.00  0.00    +0.000 HD
ENDBRANCH  21  25
ENDBRANCH  16  17
ENDBRANCH   1  16
TORSDOF 6
ENDMDL
MODEL 7
REMARK VINA RESULT:    -6.511      3.020      4.831
REMARK INTER + INTRA:          -9.695
REMARK INTER:                  -8.233
REMARK INTRA:                  -1.462
REMARK UNBOUND:                -1.090
REMARK  Name = 
REMARK  7 active torsions:
REMARK  status: ('A' for Active; 'I' for Inactive)
REMARK    1  A    between atoms: C_1  and  C_2
REMARK    2  A    between atoms: C_2  and  C_3
REMARK    3  A    between atoms: C_7  and  C_8
REMARK    4  A    between atoms: C_8  and  C_9
REMARK    5  A    between atoms: C_9  and  N_10
REMARK    6  A    between atoms: C_14  and  C_15
REMARK    7  A    between atoms: C_23  and  O_24
REMARK                            x       y       z     vdW  Elec       q    Type
REMARK                         _______ _______ _______ _____ _____    ______ ____
ROOT
ATOM      1  C   UNL     1      48.525   4.680  16.489  0.00  0.00    +0.000 C 
ENDROOT
BRANCH   1   6
ATOM      2  C   UNL     1      49.025   8.095  14.861  0.00  0.00    +0.000 A 
ATOM      3  C   UNL     1      48.896   8.941  15.978  0.00  0.00    +0.000 A 
ATOM      4  C   UNL     1      48.703   8.426  17.258  0.00  0.00    +0.000 A 
ATOM      5  C   UNL     1      48.615   7.049  17.452  0.00  0.00    +0.000 A 
ATOM      6  C   UNL     1      48.702   6.177  16.363  0.00  0.00    +0.000 A 
ATOM      7  C   UNL     1      48.917   6.713  15.084  0.00  0.00    +0.000 A 
BRANCH   2   9
ATOM      8  C   UNL     1      50.609   9.264  13.360  0.00  0.00    +0.000 C 
ATOM      9  C   UNL     1      49.175   8.702  13.458  0.00  0.00    +0.000 C 
ATOM     10  C   UNL     1      48.911   7.653  12.345  0.00  0.00    +0.000 C 
ATOM     11  C   UNL     1      47.481   7.873  11.828  0.00  0.00    +0.000 C 
ATOM     12  C   UNL     1      46.929   9.078  12.577  0.00  0.00    +0.000 C 
ATOM     13  C   UNL     1      48.166   9.816  13.076  0.00  0.00    +0.000 C 
BRANCH  12  14
ATOM     14  O   UNL     1      46.081   8.668  13.639  0.00  0.00    +0.000 OA
ATOM     15  H   UNL     1      45.870   9.446  14.185  0.00  0.00    +0.000 HD
ENDBRANCH  12  14
ENDBRANCH   2   9
ENDBRANCH   1   6
BRANCH   1  16
ATOM     16  C   UNL     1      47.150   4.209  16.022  0.00  0.00    +0.000 C 
BRANCH  16  17
ATOM     17  N   UNL     1      47.221   3.506  14.748  0.00  0.00    +0.000 N 
ATOM     18  C   UNL     1      46.301   3.926  13.789  0.00  0.00    +0.000 A 
ATOM     19  C   UNL     1      45.795   5.232  13.714  0.00  0.00    +0.000 A 
ATOM     20  N   UNL     1      44.895   5.665  12.798  0.00  0.00    +0.000 NA
ATOM     21  C   UNL     1      44.534   4.731  11.884  0.00  0.00    +0.000 A 
ATOM     22  C   UNL     1      45.028   3.429  11.936  0.00  0.00    +0.000 A 
ATOM     23  N   UNL     1      45.911   3.004  12.889  0.00  0.00    +0.000 NA
ATOM     24  H   UNL     1      47.138   2.491  14.793  0.00  0.00    +0.000 HD
BRANCH  21  25
ATOM     25  C   UNL     1      43.601   5.176  10.798  0.00  0.00    +0.000 C 
ATOM     26  N   UNL     1      43.846   4.742   9.508  0.00  0.00    +0.000 N 
ATOM     27  O   UNL     1      42.650   5.891  11.014  0.00  0.00    +0.000 OA
ATOM     28  H   UNL     1      44.615   4.151   9.232  0.00  0.00    +0.000 HD
ATOM     29  H   UNL     1      43.210   5.085   8.802  0.00  0.00    +0.000 HD
ENDBRANCH  21  25
ENDBRANCH  16  17
ENDBRANCH   1  16
TORSDOF 6
ENDMDL
MODEL 8
REMARK VINA RESULT:    -6.086      5.703      8.357
REMARK INTER + INTRA:          -9.133
REMARK INTER:                  -8.290
REMARK INTRA:                  -0.843
REMARK UNBOUND:                -1.090
REMARK  Name = 
REMARK  7 active torsions:
REMARK  status: ('A' for Active; 'I' for Inactive)
REMARK    1  A    between atoms: C_1  and  C_2
REMARK    2  A    between atoms: C_2  and  C_3
REMARK    3  A    between atoms: C_7  and  C_8
REMARK    4  A    between atoms: C_8  and  C_9
REMARK    5  A    between atoms: C_9  and  N_10
REMARK    6  A    between atoms: C_14  and  C_15
REMARK    7  A    between atoms: C_23  and  O_24
REMARK                            x       y       z     vdW  Elec       q    Type
REMARK                         _______ _______ _______ _____ _____    ______ ____
ROOT
ATOM      1  C   UNL     1      47.271   3.791  15.274  0.00  0.00    +0.000 C 
ENDROOT
BRANCH   1   6
ATOM      2  C   UNL     1      45.922   5.488  12.133  0.00  0.00    +0.000 A 
ATOM      3  C   UNL     1      46.524   6.755  12.239  0.00  0.00    +0.000 A 
ATOM      4  C   UNL     1      47.400   7.056  13.279  0.00  0.00    +0.000 A 
ATOM      5  C   UNL     1      47.685   6.101  14.252  0.00  0.00    +0.000 A 
ATOM      6  C   UNL     1      47.079   4.842  14.203  0.00  0.00    +0.000 A 
ATOM      7  C   UNL     1      46.215   4.550  13.136  0.00  0.00    +0.000 A 
BRANCH   2   9
ATOM      8  C   UNL     1      45.641   5.485   9.673  0.00  0.00    +0.000 C 
ATOM      9  C   UNL     1      44.914   5.214  11.008  0.00  0.00    +0.000 C 
ATOM     10  C   UNL     1      44.372   3.760  11.060  0.00  0.00    +0.000 C 
ATOM     11  C   UNL     1      42.984   3.806  11.719  0.00  0.00    +0.000 C 
ATOM     12  C   UNL     1      42.680   5.271  11.993  0.00  0.00    +0.000 C 
ATOM     13  C   UNL     1      43.599   6.034  11.044  0.00  0.00    +0.000 C 
BRANCH  12  14
ATOM     14  O   UNL     1      42.924   5.593  13.353  0.00  0.00    +0.000 OA
ATOM     15  H   UNL     1      42.071   5.635  13.821  0.00  0.00    +0.000 HD
ENDBRANCH  12  14
ENDBRANCH   2   9
ENDBRANCH   1   6
BRANCH   1  16
ATOM     16  C   UNL     1      47.590   4.395  16.639  0.00  0.00    +0.000 C 
BRANCH  16  17
ATOM     17  N   UNL     1      48.394   3.495  17.456  0.00  0.00    +0.000 N 
ATOM     18  C   UNL     1      49.750   3.808  17.519  0.00  0.00    +0.000 A 
ATOM     19  C   UNL     1      50.255   5.113  17.408  0.00  0.00    +0.000 A 
ATOM     20  N   UNL     1      51.568   5.444  17.459  0.00  0.00    +0.000 NA
ATOM     21  C   UNL     1      52.401   4.398  17.686  0.00  0.00    +0.000 A 
ATOM     22  C   UNL     1      51.921   3.095  17.805  0.00  0.00    +0.000 A 
ATOM     23  N   UNL     1      50.594   2.778  17.718  0.00  0.00    +0.000 NA
ATOM     24  H   UNL     1      48.343   2.507  17.212  0.00  0.00    +0.000 HD
BRANCH  21  25
ATOM     25  C   UNL     1      53.859   4.716  17.830  0.00  0.00    +0.000 C 
ATOM     26  N   UNL     1      54.216   6.018  18.127  0.00  0.00    +0.000 N 
ATOM     27  O   UNL     1      54.721   3.878  17.699  0.00  0.00    +0.000 OA
ATOM     28  H   UNL     1      53.571   6.783  18.248  0.00  0.00    +0.000 HD
ATOM     29  H   UNL     1      55.209   6.197  18.191  0.00  0.00    +0.000 HD
ENDBRANCH  21  25
ENDBRANCH  16  17
ENDBRANCH   1  16
TORSDOF 6
ENDMDL
MODEL 9
REMARK VINA RESULT:    -5.820      4.312      6.809
REMARK INTER + INTRA:          -8.782
REMARK INTER:                  -7.809
REMARK INTRA:                  -0.973
REMARK UNBOUND:                -1.090
REMARK  Name = 
REMARK  7 active torsions:
REMARK  status: ('A' for Active; 'I' for Inactive)
REMARK    1  A    between atoms: C_1  and  C_2
REMARK    2  A    between atoms: C_2  and  C_3
REMARK    3  A    between atoms: C_7  and  C_8
REMARK    4  A    between atoms: C_8  and  C_9
REMARK    5  A    between atoms: C_9  and  N_10
REMARK    6  A    between atoms: C_14  and  C_15
REMARK    7  A    between atoms: C_23  and  O_24
REMARK                            x       y       z     vdW  Elec       q    Type
REMARK                         _______ _______ _______ _____ _____    ______ ____
ROOT
ATOM      1  C   UNL     1      46.938   9.462  12.554  0.00  0.00    +0.000 C 
ENDROOT
BRANCH   1   6
ATOM      2  C   UNL     1      45.781   5.865  12.019  0.00  0.00    +0.000 A 
ATOM      3  C   UNL     1      46.582   5.188  12.957  0.00  0.00    +0.000 A 
ATOM      4  C   UNL     1      47.452   5.878  13.798  0.00  0.00    +0.000 A 
ATOM      5  C   UNL     1      47.558   7.264  13.710  0.00  0.00    +0.000 A 
ATOM      6  C   UNL     1      46.806   7.970  12.765  0.00  0.00    +0.000 A 
ATOM      7  C   UNL     1      45.920   7.260  11.941  0.00  0.00    +0.000 A 
BRANCH   2   9
ATOM      8  C   UNL     1      45.516   5.151   9.663  0.00  0.00    +0.000 C 
ATOM      9  C   UNL     1      44.879   5.065  11.067  0.00  0.00    +0.000 C 
ATOM     10  C   UNL     1      44.729   3.588  11.519  0.00  0.00    +0.000 C 
ATOM     11  C   UNL     1      43.375   3.458  12.235  0.00  0.00    +0.000 C 
ATOM     12  C   UNL     1      42.704   4.820  12.148  0.00  0.00    +0.000 C 
ATOM     13  C   UNL     1      43.398   5.513  10.980  0.00  0.00    +0.000 C 
BRANCH  12  14
ATOM     14  O   UNL     1      42.854   5.536  13.365  0.00  0.00    +0.000 OA
ATOM     15  H   UNL     1      43.728   5.328  13.742  0.00  0.00    +0.000 HD
ENDBRANCH  12  14
ENDBRANCH   2   9
ENDBRANCH   1   6
BRANCH   1  16
ATOM     16  C   UNL     1      48.335   9.982  12.887  0.00  0.00    +0.000 C 
BRANCH  16  17
ATOM     17  N   UNL     1      49.022  10.484  11.705  0.00  0.00    +0.000 N 
ATOM     18  C   UNL     1      50.091   9.704  11.267  0.00  0.00    +0.000 A 
ATOM     19  C   UNL     1      50.167   8.314  11.448  0.00  0.00    +0.000 A 
ATOM     20  N   UNL     1      51.197   7.534  11.040  0.00  0.00    +0.000 NA
ATOM     21  C   UNL     1      52.171   8.198  10.369  0.00  0.00    +0.000 A 
ATOM     22  C   UNL     1      52.114   9.576  10.173  0.00  0.00    +0.000 A 
ATOM     23  N   UNL     1      51.080  10.350  10.622  0.00  0.00    +0.000 NA
ATOM     24  H   UNL     1      49.376  11.438  11.766  0.00  0.00    +0.000 HD
BRANCH  21  25
ATOM     25  C   UNL     1      53.298   7.371   9.825  0.00  0.00    +0.000 C 
ATOM     26  N   UNL     1      53.530   6.132  10.391  0.00  0.00    +0.000 N 
ATOM     27  O   UNL     1      53.998   7.751   8.915  0.00  0.00    +0.000 OA
ATOM     28  H   UNL     1      53.005   5.735  11.154  0.00  0.00    +0.000 HD
ATOM     29  H   UNL     1      54.315   5.618  10.013  0.00  0.00    +0.000 HD
ENDBRANCH  21  25
ENDBRANCH  16  17
ENDBRANCH   1  16
TORSDOF 6
ENDMDL
