MODEL 1
REMARK VINA RESULT:    -9.037      0.000      0.000
REMARK INTER + INTRA:         -12.405
REMARK INTER:                 -11.679
REMARK INTRA:                  -0.726
REMARK UNBOUND:                -0.726
REMARK  Name = 
REMARK  5 active torsions:
REMARK  status: ('A' for Active; 'I' for Inactive)
REMARK    1  A    between atoms: C_2  and  C_4
REMARK    2  A    between atoms: C_7  and  O_8
REMARK    3  A    between atoms: O_8  and  C_9
REMARK    4  A    between atoms: C_9  and  C_10
REMARK    5  A    between atoms: C_12  and  C_13
REMARK                            x       y       z     vdW  Elec       q    Type
REMARK                         _______ _______ _______ _____ _____    ______ ____
ROOT
ATOM      1  C   UNL     1      43.646   3.425  11.645  0.00  0.00    +0.000 C 
ENDROOT
BRANCH   1   2
ATOM      2  C   UNL     1      44.882   4.066  12.238  0.00  0.00    +0.000 A 
ATOM      3  C   UNL     1      45.180   5.406  11.990  0.00  0.00    +0.000 A 
ATOM      4  C   UNL     1      46.275   6.020  12.615  0.00  0.00    +0.000 A 
ATOM      5  C   UNL     1      47.042   5.217  13.468  0.00  0.00    +0.000 A 
ATOM      6  C   UNL     1      46.685   3.892  13.664  0.00  0.00    +0.000 A 
ATOM      7  N   UNL     1      45.620   3.305  13.081  0.00  0.00    +0.000 NA
BRANCH   4   8
ATOM      8  C   UNL     1      46.581   7.454  12.402  0.00  0.00    +0.000 A 
ATOM      9  C   UNL     1      47.897   7.891  12.137  0.00  0.00    +0.000 A 
ATOM     10  C   UNL     1      48.196   9.238  11.910  0.00  0.00    +0.000 A 
ATOM     11  C   UNL     1      47.178  10.184  11.930  0.00  0.00    +0.000 A 
ATOM     12  C   UNL     1      45.879   9.774  12.192  0.00  0.00    +0.000 A 
ATOM     13  F   UNL     1      44.893  10.682  12.206  0.00  0.00    +0.000 F 
ATOM     14  C   UNL     1      45.578   8.436  12.433  0.00  0.00    +0.000 A 
ENDBRANCH   4   8
ENDBRANCH   1   2
BRANCH   1  15
ATOM     15  O   UNL     1      43.500   3.779  10.267  0.00  0.00    +0.000 OA
BRANCH  15  19
ATOM     16  C   UNL     1      46.432   2.586   7.558  0.00  0.00    +0.000 A 
ATOM     17  C   UNL     1      45.884   1.626   8.412  0.00  0.00    +0.000 A 
ATOM     18  C   UNL     1      44.891   1.982   9.331  0.00  0.00    +0.000 A 
ATOM     19  C   UNL     1      44.444   3.301   9.403  0.00  0.00    +0.000 A 
ATOM     20  C   UNL     1      44.989   4.261   8.545  0.00  0.00    +0.000 A 
ATOM     21  C   UNL     1      45.986   3.911   7.630  0.00  0.00    +0.000 A 
BRANCH  16  23
ATOM     22  N   UNL     1      47.544   2.949   5.424  0.00  0.00    +0.000 N 
ATOM     23  C   UNL     1      47.514   2.250   6.598  0.00  0.00    +0.000 C 
ATOM     24  O   UNL     1      48.361   1.405   6.853  0.00  0.00    +0.000 OA
ATOM     25  H   UNL     1      48.338   2.773   4.820  0.00  0.00    +0.000 HD
ATOM     26  H   UNL     1      47.034   3.810   5.289  0.00  0.00    +0.000 HD
ENDBRANCH  16  23
ENDBRANCH  15  19
ENDBRANCH   1  15
TORSDOF 5
ENDMDL
MODEL 2
REMARK VINA RESULT:    -8.855      1.144      1.503
REMARK INTER + INTRA:         -12.170
REMARK INTER:                 -11.470
REMARK INTRA:                  -0.700
REMARK UNBOUND:                -0.726
REMARK  Name = 
REMARK  5 active torsions:
REMARK  status: ('A' for Active; 'I' for Inactive)
REMARK    1  A    between atoms: C_2  and  C_4
REMARK    2  A    between atoms: C_7  and  O_8
REMARK    3  A    between atoms: O_8  and  C_9
REMARK    4  A    between atoms: C_9  and  C_10
REMARK    5  A    between atoms: C_12  and  C_13
REMARK                            x       y       z     vdW  Elec       q    Type
REMARK                         _______ _______ _______ _____ _____    ______ ____
ROOT
ATOM      1  C   UNL     1      43.747   3.721  11.517  0.00  0.00    +0.000 C 
ENDROOT
BRANCH   1   2
ATOM      2  C   UNL     1      45.013   4.281  12.128  0.00  0.00    +0.000 A 
ATOM      3  C   UNL     1      45.433   5.579  11.835  0.00  0.00    +0.000 A 
ATOM      4  C   UNL     1      46.556   6.125  12.474  0.00  0.00    +0.000 A 
ATOM      5  C   UNL     1      47.222   5.299  13.387  0.00  0.00    +0.000 A 
ATOM      6  C   UNL     1      46.747   4.019  13.624  0.00  0.00    +0.000 A 
ATOM      7  N   UNL     1      45.655   3.498  13.027  0.00  0.00    +0.000 NA
BRANCH   4   8
ATOM      8  C   UNL     1      46.990   7.518  12.213  0.00  0.00    +0.000 A 
ATOM      9  C   UNL     1      46.092   8.600  12.331  0.00  0.00    +0.000 A 
ATOM     10  C   UNL     1      46.496   9.921  12.112  0.00  0.00    +0.000 A 
ATOM     11  C   UNL     1      47.817  10.194  11.779  0.00  0.00    +0.000 A 
ATOM     12  C   UNL     1      48.714   9.142  11.655  0.00  0.00    +0.000 A 
ATOM     13  F   UNL     1      49.990   9.400  11.341  0.00  0.00    +0.000 F 
ATOM     14  C   UNL     1      48.314   7.823  11.859  0.00  0.00    +0.000 A 
ENDBRANCH   4   8
ENDBRANCH   1   2
BRANCH   1  15
ATOM     15  O   UNL     1      43.659   4.057  10.130  0.00  0.00    +0.000 OA
BRANCH  15  19
ATOM     16  C   UNL     1      46.541   2.572   7.513  0.00  0.00    +0.000 A 
ATOM     17  C   UNL     1      45.887   1.676   8.362  0.00  0.00    +0.000 A 
ATOM     18  C   UNL     1      44.907   2.131   9.250  0.00  0.00    +0.000 A 
ATOM     19  C   UNL     1      44.578   3.486   9.296  0.00  0.00    +0.000 A 
ATOM     20  C   UNL     1      45.229   4.382   8.443  0.00  0.00    +0.000 A 
ATOM     21  C   UNL     1      46.213   3.931   7.558  0.00  0.00    +0.000 A 
BRANCH  16  23
ATOM     22  N   UNL     1      47.855   2.912   5.493  0.00  0.00    +0.000 N 
ATOM     23  C   UNL     1      47.613   2.127   6.585  0.00  0.00    +0.000 C 
ATOM     24  O   UNL     1      48.272   1.119   6.800  0.00  0.00    +0.000 OA
ATOM     25  H   UNL     1      48.647   2.646   4.920  0.00  0.00    +0.000 HD
ATOM     26  H   UNL     1      47.520   3.861   5.418  0.00  0.00    +0.000 HD
ENDBRANCH  16  23
ENDBRANCH  15  19
ENDBRANCH   1  15
TORSDOF 5
ENDMDL
MODEL 3
REMARK VINA RESULT:    -8.466      2.829      4.014
REMARK INTER + INTRA:         -11.666
REMARK INTER:                 -11.151
REMARK INTRA:                  -0.516
REMARK UNBOUND:                -0.726
REMARK  Name = 
REMARK  5 active torsions:
REMARK  status: ('A' for Active; 'I' for Inactive)
REMARK    1  A    between atoms: C_2  and  C_4
REMARK    2  A    between atoms: C_7  and  O_8
REMARK    3  A    between atoms: O_8  and  C_9
REMARK    4  A    between atoms: C_9  and  C_10
REMARK    5  A    between atoms: C_12  and  C_13
REMARK                            x       y       z     vdW  Elec       q    Type
REMARK                         _______ _______ _______ _____ _____    ______ ____
ROOT
ATOM      1  C   UNL     1      43.911   4.401  11.613  0.00  0.00    +0.000 C 
ENDROOT
BRANCH   1   2
ATOM      2  C   UNL     1      45.072   5.170  12.205  0.00  0.00    +0.000 A 
ATOM      3  C   UNL     1      45.634   4.789  13.424  0.00  0.00    +0.000 A 
ATOM      4  C   UNL     1      46.767   5.448  13.924  0.00  0.00    +0.000 A 
ATOM      5  C   UNL     1      47.274   6.498  13.150  0.00  0.00    +0.000 A 
ATOM      6  C   UNL     1      46.661   6.821  11.950  0.00  0.00    +0.000 A 
ATOM      7  N   UNL     1      45.585   6.176  11.456  0.00  0.00    +0.000 NA
BRANCH   4   8
ATOM      8  C   UNL     1      47.407   5.028  15.193  0.00  0.00    +0.000 A 
ATOM      9  C   UNL     1      48.429   5.798  15.788  0.00  0.00    +0.000 A 
ATOM     10  C   UNL     1      49.024   5.427  16.998  0.00  0.00    +0.000 A 
ATOM     11  C   UNL     1      48.601   4.275  17.651  0.00  0.00    +0.000 A 
ATOM     12  C   UNL     1      47.600   3.503  17.080  0.00  0.00    +0.000 A 
ATOM     13  F   UNL     1      47.184   2.396  17.708  0.00  0.00    +0.000 F 
ATOM     14  C   UNL     1      47.013   3.861  15.868  0.00  0.00    +0.000 A 
ENDBRANCH   4   8
ENDBRANCH   1   2
BRANCH   1  15
ATOM     15  O   UNL     1      43.839   4.597  10.198  0.00  0.00    +0.000 OA
BRANCH  15  19
ATOM     16  C   UNL     1      46.358   2.376   7.731  0.00  0.00    +0.000 A 
ATOM     17  C   UNL     1      45.574   1.697   8.667  0.00  0.00    +0.000 A 
ATOM     18  C   UNL     1      44.708   2.404   9.508  0.00  0.00    +0.000 A 
ATOM     19  C   UNL     1      44.625   3.793   9.422  0.00  0.00    +0.000 A 
ATOM     20  C   UNL     1      45.407   4.472   8.482  0.00  0.00    +0.000 A 
ATOM     21  C   UNL     1      46.277   3.771   7.643  0.00  0.00    +0.000 A 
BRANCH  16  23
ATOM     22  N   UNL     1      48.428   2.346   6.453  0.00  0.00    +0.000 N 
ATOM     23  C   UNL     1      47.314   1.660   6.848  0.00  0.00    +0.000 C 
ATOM     24  O   UNL     1      47.133   0.499   6.511  0.00  0.00    +0.000 OA
ATOM     25  H   UNL     1      49.114   1.817   5.927  0.00  0.00    +0.000 HD
ATOM     26  H   UNL     1      48.737   3.194   6.906  0.00  0.00    +0.000 HD
ENDBRANCH  16  23
ENDBRANCH  15  19
ENDBRANCH   1  15
TORSDOF 5
ENDMDL
MODEL 4
REMARK VINA RESULT:    -8.443      1.971      2.727
REMARK INTER + INTRA:         -11.637
REMARK INTER:                 -10.894
REMARK INTRA:                  -0.743
REMARK UNBOUND:                -0.726
REMARK  Name = 
REMARK  5 active torsions:
REMARK  status: ('A' for Active; 'I' for Inactive)
REMARK    1  A    between atoms: C_2  and  C_4
REMARK    2  A    between atoms: C_7  and  O_8
REMARK    3  A    between atoms: O_8  and  C_9
REMARK    4  A    between atoms: C_9  and  C_10
REMARK    5  A    between atoms: C_12  and  C_13
REMARK                            x       y       z     vdW  Elec       q    Type
REMARK                         _______ _______ _______ _____ _____    ______ ____
ROOT
ATOM      1  C   UNL     1      44.025   3.440  11.667  0.00  0.00    +0.000 C 
ENDROOT
BRANCH   1   2
ATOM      2  C   UNL     1      44.431   4.893  11.772  0.00  0.00    +0.000 A 
ATOM      3  C   UNL     1      45.736   5.247  12.117  0.00  0.00    +0.000 A 
ATOM      4  C   UNL     1      46.132   6.592  12.124  0.00  0.00    +0.000 A 
ATOM      5  C   UNL     1      45.153   7.536  11.789  0.00  0.00    +0.000 A 
ATOM      6  C   UNL     1      43.876   7.109  11.460  0.00  0.00    +0.000 A 
ATOM      7  N   UNL     1      43.499   5.815  11.432  0.00  0.00    +0.000 NA
BRANCH   4   8
ATOM      8  C   UNL     1      47.525   6.986  12.441  0.00  0.00    +0.000 A 
ATOM      9  C   UNL     1      48.317   7.691  11.509  0.00  0.00    +0.000 A 
ATOM     10  C   UNL     1      49.625   8.089  11.805  0.00  0.00    +0.000 A 
ATOM     11  C   UNL     1      50.170   7.801  13.050  0.00  0.00    +0.000 A 
ATOM     12  C   UNL     1      49.408   7.106  13.978  0.00  0.00    +0.000 A 
ATOM     13  F   UNL     1      49.927   6.831  15.181  0.00  0.00    +0.000 F 
ATOM     14  C   UNL     1      48.110   6.694  13.683  0.00  0.00    +0.000 A 
ENDBRANCH   4   8
ENDBRANCH   1   2
BRANCH   1  15
ATOM     15  O   UNL     1      43.582   3.129  10.343  0.00  0.00    +0.000 OA
BRANCH  15  19
ATOM     16  C   UNL     1      46.505   2.616   7.418  0.00  0.00    +0.000 A 
ATOM     17  C   UNL     1      45.943   3.884   7.583  0.00  0.00    +0.000 A 
ATOM     18  C   UNL     1      44.965   4.102   8.559  0.00  0.00    +0.000 A 
ATOM     19  C   UNL     1      44.541   3.052   9.373  0.00  0.00    +0.000 A 
ATOM     20  C   UNL     1      45.107   1.784   9.211  0.00  0.00    +0.000 A 
ATOM     21  C   UNL     1      46.080   1.561   8.233  0.00  0.00    +0.000 A 
BRANCH  16  23
ATOM     22  N   UNL     1      47.483   3.129   5.250  0.00  0.00    +0.000 N 
ATOM     23  C   UNL     1      47.518   2.342   6.366  0.00  0.00    +0.000 C 
ATOM     24  O   UNL     1      48.366   1.471   6.501  0.00  0.00    +0.000 OA
ATOM     25  H   UNL     1      48.233   2.991   4.583  0.00  0.00    +0.000 HD
ATOM     26  H   UNL     1      46.978   4.003   5.213  0.00  0.00    +0.000 HD
ENDBRANCH  16  23
ENDBRANCH  15  19
ENDBRANCH   1  15
TORSDOF 5
ENDMDL
MODEL 5
REMARK VINA RESULT:    -8.070      3.810      7.034
REMARK INTER + INTRA:         -11.155
REMARK INTER:                 -10.368
REMARK INTRA:                  -0.788
REMARK UNBOUND:                -0.726
REMARK  Name = 
REMARK  5 active torsions:
REMARK  status: ('A' for Active; 'I' for Inactive)
REMARK    1  A    between atoms: C_2  and  C_4
REMARK    2  A    between atoms: C_7  and  O_8
REMARK    3  A    between atoms: O_8  and  C_9
REMARK    4  A    between atoms: C_9  and  C_10
REMARK    5  A    between atoms: C_12  and  C_13
REMARK                            x       y       z     vdW  Elec       q    Type
REMARK                         _______ _______ _______ _____ _____    ______ ____
ROOT
ATOM      1  C   UNL     1      44.400   6.621  11.662  0.00  0.00    +0.000 C 
ENDROOT
BRANCH   1   2
ATOM      2  C   UNL     1      44.242   5.190  11.195  0.00  0.00    +0.000 A 
ATOM      3  C   UNL     1      44.940   4.720  10.082  0.00  0.00    +0.000 A 
ATOM      4  C   UNL     1      44.862   3.371   9.709  0.00  0.00    +0.000 A 
ATOM      5  C   UNL     1      44.042   2.550  10.493  0.00  0.00    +0.000 A 
ATOM      6  C   UNL     1      43.376   3.088  11.582  0.00  0.00    +0.000 A 
ATOM      7  N   UNL     1      43.467   4.380  11.957  0.00  0.00    +0.000 NA
BRANCH   4   8
ATOM      8  C   UNL     1      45.633   2.842   8.559  0.00  0.00    +0.000 A 
ATOM      9  C   UNL     1      46.076   3.690   7.522  0.00  0.00    +0.000 A 
ATOM     10  C   UNL     1      46.825   3.208   6.444  0.00  0.00    +0.000 A 
ATOM     11  C   UNL     1      47.161   1.861   6.383  0.00  0.00    +0.000 A 
ATOM     12  C   UNL     1      46.731   1.011   7.392  0.00  0.00    +0.000 A 
ATOM     13  F   UNL     1      47.058  -0.287   7.342  0.00  0.00    +0.000 F 
ATOM     14  C   UNL     1      45.973   1.483   8.461  0.00  0.00    +0.000 A 
ENDBRANCH   4   8
ENDBRANCH   1   2
BRANCH   1  15
ATOM     15  O   UNL     1      45.290   6.696  12.779  0.00  0.00    +0.000 OA
BRANCH  15  19
ATOM     16  C   UNL     1      49.177   8.031  12.091  0.00  0.00    +0.000 A 
ATOM     17  C   UNL     1      48.123   8.931  11.916  0.00  0.00    +0.000 A 
ATOM     18  C   UNL     1      46.803   8.527  12.145  0.00  0.00    +0.000 A 
ATOM     19  C   UNL     1      46.531   7.219  12.546  0.00  0.00    +0.000 A 
ATOM     20  C   UNL     1      47.586   6.319  12.724  0.00  0.00    +0.000 A 
ATOM     21  C   UNL     1      48.906   6.718  12.492  0.00  0.00    +0.000 A 
BRANCH  16  23
ATOM     22  N   UNL     1      51.402   7.460  11.290  0.00  0.00    +0.000 N 
ATOM     23  C   UNL     1      50.585   8.418  11.820  0.00  0.00    +0.000 C 
ATOM     24  O   UNL     1      50.995   9.551  12.034  0.00  0.00    +0.000 OA
ATOM     25  H   UNL     1      52.333   7.762  11.026  0.00  0.00    +0.000 HD
ATOM     26  H   UNL     1      51.048   6.613  10.869  0.00  0.00    +0.000 HD
ENDBRANCH  16  23
ENDBRANCH  15  19
ENDBRANCH   1  15
TORSDOF 5
ENDMDL
MODEL 6
REMARK VINA RESULT:    -7.965      3.795      7.608
REMARK INTER + INTRA:         -11.019
REMARK INTER:                 -10.391
REMARK INTRA:                  -0.628
REMARK UNBOUND:                -0.726
REMARK  Name = 
REMARK  5 active torsions:
REMARK  status: ('A' for Active; 'I' for Inactive)
REMARK    1  A    between atoms: C_2  and  C_4
REMARK    2  A    between atoms: C_7  and  O_8
REMARK    3  A    between atoms: O_8  and  C_9
REMARK    4  A    between atoms: C_9  and  C_10
REMARK    5  A    between atoms: C_12  and  C_13
REMARK                            x       y       z     vdW  Elec       q    Type
REMARK                         _______ _______ _______ _____ _____    ______ ____
ROOT
ATOM      1  C   UNL     1      46.168   7.167  11.969  0.00  0.00    +0.000 C 
ENDROOT
BRANCH   1   2
ATOM      2  C   UNL     1      45.323   6.189  11.181  0.00  0.00    +0.000 A 
ATOM      3  C   UNL     1      45.894   5.385  10.195  0.00  0.00    +0.000 A 
ATOM      4  C   UNL     1      45.127   4.416   9.532  0.00  0.00    +0.000 A 
ATOM      5  C   UNL     1      43.779   4.323   9.900  0.00  0.00    +0.000 A 
ATOM      6  C   UNL     1      43.281   5.159  10.888  0.00  0.00    +0.000 A 
ATOM      7  N   UNL     1      44.022   6.076  11.542  0.00  0.00    +0.000 NA
BRANCH   4   8
ATOM      8  C   UNL     1      45.726   3.520   8.515  0.00  0.00    +0.000 A 
ATOM      9  C   UNL     1      46.261   4.030   7.313  0.00  0.00    +0.000 A 
ATOM     10  C   UNL     1      46.851   3.198   6.356  0.00  0.00    +0.000 A 
ATOM     11  C   UNL     1      46.930   1.829   6.585  0.00  0.00    +0.000 A 
ATOM     12  C   UNL     1      46.406   1.309   7.760  0.00  0.00    +0.000 A 
ATOM     13  F   UNL     1      46.486  -0.009   7.988  0.00  0.00    +0.000 F 
ATOM     14  C   UNL     1      45.805   2.131   8.710  0.00  0.00    +0.000 A 
ENDBRANCH   4   8
ENDBRANCH   1   2
BRANCH   1  15
ATOM     15  O   UNL     1      47.432   6.590  12.307  0.00  0.00    +0.000 OA
BRANCH  15  19
ATOM     16  C   UNL     1      47.791   4.834  16.069  0.00  0.00    +0.000 A 
ATOM     17  C   UNL     1      47.085   4.148  15.078  0.00  0.00    +0.000 A 
ATOM     18  C   UNL     1      46.948   4.697  13.799  0.00  0.00    +0.000 A 
ATOM     19  C   UNL     1      47.513   5.938  13.505  0.00  0.00    +0.000 A 
ATOM     20  C   UNL     1      48.223   6.623  14.496  0.00  0.00    +0.000 A 
ATOM     21  C   UNL     1      48.357   6.080  15.777  0.00  0.00    +0.000 A 
BRANCH  16  23
ATOM     22  N   UNL     1      47.100   4.826  18.402  0.00  0.00    +0.000 N 
ATOM     23  C   UNL     1      47.923   4.297  17.448  0.00  0.00    +0.000 C 
ATOM     24  O   UNL     1      48.710   3.400  17.716  0.00  0.00    +0.000 OA
ATOM     25  H   UNL     1      47.137   4.388  19.315  0.00  0.00    +0.000 HD
ATOM     26  H   UNL     1      46.280   5.368  18.176  0.00  0.00    +0.000 HD
ENDBRANCH  16  23
ENDBRANCH  15  19
ENDBRANCH   1  15
TORSDOF 5
ENDMDL
MODEL 7
REMARK VINA RESULT:    -7.560      2.003      2.827
REMARK INTER + INTRA:         -10.496
REMARK INTER:                  -9.802
REMARK INTRA:                  -0.694
REMARK UNBOUND:                -0.726
REMARK  Name = 
REMARK  5 active torsions:
REMARK  status: ('A' for Active; 'I' for Inactive)
REMARK    1  A    between atoms: C_2  and  C_4
REMARK    2  A    between atoms: C_7  and  O_8
REMARK    3  A    between atoms: O_8  and  C_9
REMARK    4  A    between atoms: C_9  and  C_10
REMARK    5  A    between atoms: C_12  and  C_13
REMARK                            x       y       z     vdW  Elec       q    Type
REMARK                         _______ _______ _______ _____ _____    ______ ____
ROOT
ATOM      1  C   UNL     1      44.748   4.217  11.894  0.00  0.00    +0.000 C 
ENDROOT
BRANCH   1   2
ATOM      2  C   UNL     1      45.265   5.631  12.037  0.00  0.00    +0.000 A 
ATOM      3  C   UNL     1      44.547   6.710  11.520  0.00  0.00    +0.000 A 
ATOM      4  C   UNL     1      44.984   8.026  11.735  0.00  0.00    +0.000 A 
ATOM      5  C   UNL     1      46.168   8.182  12.467  0.00  0.00    +0.000 A 
ATOM      6  C   UNL     1      46.828   7.062  12.946  0.00  0.00    +0.000 A 
ATOM      7  N   UNL     1      46.399   5.797  12.760  0.00  0.00    +0.000 NA
BRANCH   4   8
ATOM      8  C   UNL     1      44.211   9.187  11.236  0.00  0.00    +0.000 A 
ATOM      9  C   UNL     1      44.840  10.419  10.954  0.00  0.00    +0.000 A 
ATOM     10  C   UNL     1      44.126  11.515  10.459  0.00  0.00    +0.000 A 
ATOM     11  C   UNL     1      42.761  11.402  10.222  0.00  0.00    +0.000 A 
ATOM     12  C   UNL     1      42.125  10.199  10.497  0.00  0.00    +0.000 A 
ATOM     13  F   UNL     1      40.811  10.083  10.264  0.00  0.00    +0.000 F 
ATOM     14  C   UNL     1      42.829   9.109  11.003  0.00  0.00    +0.000 A 
ENDBRANCH   4   8
ENDBRANCH   1   2
BRANCH   1  15
ATOM     15  O   UNL     1      44.125   4.029  10.620  0.00  0.00    +0.000 OA
BRANCH  15  19
ATOM     16  C   UNL     1      46.495   2.535   7.535  0.00  0.00    +0.000 A 
ATOM     17  C   UNL     1      46.366   3.920   7.666  0.00  0.00    +0.000 A 
ATOM     18  C   UNL     1      45.587   4.464   8.693  0.00  0.00    +0.000 A 
ATOM     19  C   UNL     1      44.930   3.625   9.592  0.00  0.00    +0.000 A 
ATOM     20  C   UNL     1      45.062   2.239   9.464  0.00  0.00    +0.000 A 
ATOM     21  C   UNL     1      45.835   1.692   8.436  0.00  0.00    +0.000 A 
BRANCH  16  23
ATOM     22  N   UNL     1      48.138   2.745   5.753  0.00  0.00    +0.000 N 
ATOM     23  C   UNL     1      47.283   1.925   6.434  0.00  0.00    +0.000 C 
ATOM     24  O   UNL     1      47.197   0.735   6.163  0.00  0.00    +0.000 OA
ATOM     25  H   UNL     1      48.734   2.298   5.067  0.00  0.00    +0.000 HD
ATOM     26  H   UNL     1      48.423   3.649   6.103  0.00  0.00    +0.000 HD
ENDBRANCH  16  23
ENDBRANCH  15  19
ENDBRANCH   1  15
TORSDOF 5
ENDMDL
MODEL 8
REMARK VINA RESULT:    -6.883      5.499      8.334
REMARK INTER + INTRA:          -9.621
REMARK INTER:                  -9.066
REMARK INTRA:                  -0.556
REMARK UNBOUND:                -0.726
REMARK  Name = 
REMARK  5 active torsions:
REMARK  status: ('A' for Active; 'I' for Inactive)
REMARK    1  A    between atoms: C_2  and  C_4
REMARK    2  A    between atoms: C_7  and  O_8
REMARK    3  A    between atoms: O_8  and  C_9
REMARK    4  A    between atoms: C_9  and  C_10
REMARK    5  A    between atoms: C_12  and  C_13
REMARK                            x       y       z     vdW  Elec       q    Type
REMARK                         _______ _______ _______ _____ _____    ______ ____
ROOT
ATOM      1  C   UNL     1      48.115   4.240  17.052  0.00  0.00    +0.000 C 
ENDROOT
BRANCH   1   2
ATOM      2  C   UNL     1      47.836   4.895  15.717  0.00  0.00    +0.000 A 
ATOM      3  C   UNL     1      46.766   4.476  14.926  0.00  0.00    +0.000 A 
ATOM      4  C   UNL     1      46.456   5.146  13.733  0.00  0.00    +0.000 A 
ATOM      5  C   UNL     1      47.281   6.223  13.386  0.00  0.00    +0.000 A 
ATOM      6  C   UNL     1      48.328   6.579  14.221  0.00  0.00    +0.000 A 
ATOM      7  N   UNL     1      48.614   5.951  15.379  0.00  0.00    +0.000 NA
BRANCH   4   8
ATOM      8  C   UNL     1      45.295   4.747  12.903  0.00  0.00    +0.000 A 
ATOM      9  C   UNL     1      45.307   3.550  12.154  0.00  0.00    +0.000 A 
ATOM     10  C   UNL     1      44.209   3.150  11.386  0.00  0.00    +0.000 A 
ATOM     11  C   UNL     1      43.063   3.935  11.357  0.00  0.00    +0.000 A 
ATOM     12  C   UNL     1      43.034   5.116  12.084  0.00  0.00    +0.000 A 
ATOM     13  F   UNL     1      41.929   5.874  12.065  0.00  0.00    +0.000 F 
ATOM     14  C   UNL     1      44.130   5.527  12.839  0.00  0.00    +0.000 A 
ENDBRANCH   4   8
ENDBRANCH   1   2
BRANCH   1  15
ATOM     15  O   UNL     1      49.366   4.684  17.585  0.00  0.00    +0.000 OA
BRANCH  15  19
ATOM     16  C   UNL     1      52.252   1.681  17.698  0.00  0.00    +0.000 A 
ATOM     17  C   UNL     1      52.591   2.949  18.175  0.00  0.00    +0.000 A 
ATOM     18  C   UNL     1      51.649   3.984  18.164  0.00  0.00    +0.000 A 
ATOM     19  C   UNL     1      50.365   3.756  17.671  0.00  0.00    +0.000 A 
ATOM     20  C   UNL     1      50.024   2.485  17.198  0.00  0.00    +0.000 A 
ATOM     21  C   UNL     1      50.964   1.451  17.203  0.00  0.00    +0.000 A 
BRANCH  16  23
ATOM     22  N   UNL     1      53.038  -0.468  18.524  0.00  0.00    +0.000 N 
ATOM     23  C   UNL     1      53.239   0.572  17.661  0.00  0.00    +0.000 C 
ATOM     24  O   UNL     1      54.177   0.570  16.875  0.00  0.00    +0.000 OA
ATOM     25  H   UNL     1      53.666  -1.258  18.426  0.00  0.00    +0.000 HD
ATOM     26  H   UNL     1      52.159  -0.625  18.995  0.00  0.00    +0.000 HD
ENDBRANCH  16  23
ENDBRANCH  15  19
ENDBRANCH   1  15
TORSDOF 5
ENDMDL
MODEL 9
REMARK VINA RESULT:    -6.410      4.179      6.324
REMARK INTER + INTRA:          -9.009
REMARK INTER:                  -8.253
REMARK INTRA:                  -0.756
REMARK UNBOUND:                -0.726
REMARK  Name = 
REMARK  5 active torsions:
REMARK  status: ('A' for Active; 'I' for Inactive)
REMARK    1  A    between atoms: C_2  and  C_4
REMARK    2  A    between atoms: C_7  and  O_8
REMARK    3  A    between atoms: O_8  and  C_9
REMARK    4  A    between atoms: C_9  and  C_10
REMARK    5  A    between atoms: C_12  and  C_13
REMARK                            x       y       z     vdW  Elec       q    Type
REMARK                         _______ _______ _______ _____ _____    ______ ____
ROOT
ATOM      1  C   UNL     1      48.085   7.695  12.630  0.00  0.00    +0.000 C 
ENDROOT
BRANCH   1   2
ATOM      2  C   UNL     1      48.998   7.517  13.823  0.00  0.00    +0.000 A 
ATOM      3  C   UNL     1      48.649   6.662  14.868  0.00  0.00    +0.000 A 
ATOM      4  C   UNL     1      49.539   6.429  15.927  0.00  0.00    +0.000 A 
ATOM      5  C   UNL     1      50.763   7.108  15.878  0.00  0.00    +0.000 A 
ATOM      6  C   UNL     1      51.039   7.943  14.808  0.00  0.00    +0.000 A 
ATOM      7  N   UNL     1      50.194   8.152  13.778  0.00  0.00    +0.000 NA
BRANCH   4   8
ATOM      8  C   UNL     1      49.206   5.488  17.023  0.00  0.00    +0.000 A 
ATOM      9  C   UNL     1      49.798   5.611  18.298  0.00  0.00    +0.000 A 
ATOM     10  C   UNL     1      49.474   4.745  19.348  0.00  0.00    +0.000 A 
ATOM     11  C   UNL     1      48.538   3.738  19.149  0.00  0.00    +0.000 A 
ATOM     12  C   UNL     1      47.948   3.600  17.901  0.00  0.00    +0.000 A 
ATOM     13  F   UNL     1      47.040   2.635  17.706  0.00  0.00    +0.000 F 
ATOM     14  C   UNL     1      48.277   4.450  16.848  0.00  0.00    +0.000 A 
ENDBRANCH   4   8
ENDBRANCH   1   2
BRANCH   1  15
ATOM     15  O   UNL     1      46.724   7.440  12.988  0.00  0.00    +0.000 OA
BRANCH  15  19
ATOM     16  C   UNL     1      44.789   4.122  11.374  0.00  0.00    +0.000 A 
ATOM     17  C   UNL     1      45.212   5.133  10.508  0.00  0.00    +0.000 A 
ATOM     18  C   UNL     1      45.874   6.260  11.007  0.00  0.00    +0.000 A 
ATOM     19  C   UNL     1      46.111   6.384  12.375  0.00  0.00    +0.000 A 
ATOM     20  C   UNL     1      45.691   5.370  13.242  0.00  0.00    +0.000 A 
ATOM     21  C   UNL     1      45.025   4.245  12.747  0.00  0.00    +0.000 A 
BRANCH  16  23
ATOM     22  N   UNL     1      44.621   2.225   9.860  0.00  0.00    +0.000 N 
ATOM     23  C   UNL     1      44.051   2.931  10.881  0.00  0.00    +0.000 C 
ATOM     24  O   UNL     1      42.992   2.577  11.382  0.00  0.00    +0.000 OA
ATOM     25  H   UNL     1      44.153   1.365   9.596  0.00  0.00    +0.000 HD
ATOM     26  H   UNL     1      45.591   2.329   9.599  0.00  0.00    +0.000 HD
ENDBRANCH  16  23
ENDBRANCH  15  19
ENDBRANCH   1  15
TORSDOF 5
ENDMDL
