MODEL 1
REMARK VINA RESULT:    -7.604      0.000      0.000
REMARK INTER + INTRA:          -9.924
REMARK INTER:                  -9.827
REMARK INTRA:                  -0.097
REMARK UNBOUND:                -0.097
REMARK  Name = 
REMARK  6 active torsions:
REMARK  status: ('A' for Active; 'I' for Inactive)
REMARK    1  A    between atoms: N_1  and  C_2
REMARK    2  A    between atoms: C_2  and  C_3
REMARK    3  A    between atoms: C_6  and  C_7
REMARK    4  A    between atoms: C_7  and  N_8
REMARK    5  A    between atoms: C_13  and  C_14
REMARK    6  A    between atoms: C_14  and  O_16
REMARK                            x       y       z     vdW  Elec       q    Type
REMARK                         _______ _______ _______ _____ _____    ______ ____
ROOT
ATOM      1  N   UNL     1      43.973   4.389  10.577  0.00  0.00    +0.000 N 
ATOM      2  C   UNL     1      43.403   3.243  11.063  0.00  0.00    +0.000 A 
ATOM      3  N   UNL     1      43.922   2.175  10.516  0.00  0.00    +0.000 NA
ATOM      4  C   UNL     1      44.818   2.641   9.593  0.00  0.00    +0.000 A 
ATOM      5  C   UNL     1      45.629   1.917   8.716  0.00  0.00    +0.000 A 
ATOM      6  C   UNL     1      46.446   2.612   7.819  0.00  0.00    +0.000 A 
ATOM      7  C   UNL     1      46.432   4.019   7.789  0.00  0.00    +0.000 A 
ATOM      8  C   UNL     1      45.642   4.758   8.683  0.00  0.00    +0.000 A 
ATOM      9  C   UNL     1      44.849   4.030   9.579  0.00  0.00    +0.000 A 
ENDROOT
BRANCH   6  10
ATOM     10  C   UNL     1      47.269   1.860   6.842  0.00  0.00    +0.000 C 
ATOM     11  O   UNL     1      47.118   0.668   6.636  0.00  0.00    +0.000 OA
BRANCH  10  12
ATOM     12  O   UNL     1      48.204   2.599   6.202  0.00  0.00    +0.000 OA
ATOM     13  H   UNL     1      49.131   2.415   6.450  0.00  0.00    +0.000 HD
ENDBRANCH  10  12
ENDBRANCH   6  10
BRANCH   1  14
ATOM     14  C   UNL     1      43.679   5.742  11.014  0.00  0.00    +0.000 C 
BRANCH  14  18
ATOM     15  C   UNL     1      47.194   6.102  12.594  0.00  0.00    +0.000 C 
ATOM     16  C   UNL     1      46.378   4.798  12.576  0.00  0.00    +0.000 C 
ATOM     17  C   UNL     1      44.953   4.949  13.115  0.00  0.00    +0.000 C 
ATOM     18  C   UNL     1      44.153   6.084  12.446  0.00  0.00    +0.000 C 
ATOM     19  C   UNL     1      44.976   7.386  12.452  0.00  0.00    +0.000 C 
ATOM     20  C   UNL     1      46.392   7.215  11.894  0.00  0.00    +0.000 C 
BRANCH  15  21
ATOM     21  C   UNL     1      47.660   6.548  13.999  0.00  0.00    +0.000 C 
BRANCH  21  22
ATOM     22  N   UNL     1      47.845   5.440  14.933  0.00  0.00    +0.000 NA
ATOM     23  H   UNL     1      48.794   5.075  14.832  0.00  0.00    +0.000 HD
ATOM     24  H   UNL     1      47.230   4.666  14.682  0.00  0.00    +0.000 HD
ENDBRANCH  21  22
ENDBRANCH  15  21
ENDBRANCH  14  18
ENDBRANCH   1  14
TORSDOF 6
ENDMDL
MODEL 2
REMARK VINA RESULT:    -7.249      3.613      6.499
REMARK INTER + INTRA:          -9.465
REMARK INTER:                  -8.818
REMARK INTRA:                  -0.647
REMARK UNBOUND:                -0.097
REMARK  Name = 
REMARK  6 active torsions:
REMARK  status: ('A' for Active; 'I' for Inactive)
REMARK    1  A    between atoms: N_1  and  C_2
REMARK    2  A    between atoms: C_2  and  C_3
REMARK    3  A    between atoms: C_6  and  C_7
REMARK    4  A    between atoms: C_7  and  N_8
REMARK    5  A    between atoms: C_13  and  C_14
REMARK    6  A    between atoms: C_14  and  O_16
REMARK                            x       y       z     vdW  Elec       q    Type
REMARK                         _______ _______ _______ _____ _____    ______ ____
ROOT
ATOM      1  N   UNL     1      44.284   4.016  10.896  0.00  0.00    +0.000 N 
ATOM      2  C   UNL     1      42.972   4.090  11.284  0.00  0.00    +0.000 A 
ATOM      3  N   UNL     1      42.661   5.285  11.712  0.00  0.00    +0.000 NA
ATOM      4  C   UNL     1      43.825   6.001  11.662  0.00  0.00    +0.000 A 
ATOM      5  C   UNL     1      44.053   7.329  12.031  0.00  0.00    +0.000 A 
ATOM      6  C   UNL     1      45.350   7.846  11.935  0.00  0.00    +0.000 A 
ATOM      7  C   UNL     1      46.408   7.030  11.494  0.00  0.00    +0.000 A 
ATOM      8  C   UNL     1      46.187   5.703  11.095  0.00  0.00    +0.000 A 
ATOM      9  C   UNL     1      44.875   5.223  11.189  0.00  0.00    +0.000 A 
ENDROOT
BRANCH   6  10
ATOM     10  C   UNL     1      45.620   9.235  12.376  0.00  0.00    +0.000 C 
ATOM     11  O   UNL     1      46.743   9.708  12.403  0.00  0.00    +0.000 OA
BRANCH  10  12
ATOM     12  O   UNL     1      44.524   9.933  12.750  0.00  0.00    +0.000 OA
ATOM     13  H   UNL     1      44.694  10.826  13.108  0.00  0.00    +0.000 HD
ENDBRANCH  10  12
ENDBRANCH   6  10
BRANCH   1  14
ATOM     14  C   UNL     1      44.939   2.860  10.312  0.00  0.00    +0.000 C 
BRANCH  14  18
ATOM     15  C   UNL     1      47.185   2.944   7.161  0.00  0.00    +0.000 C 
ATOM     16  C   UNL     1      46.399   4.151   7.702  0.00  0.00    +0.000 C 
ATOM     17  C   UNL     1      44.913   3.870   7.937  0.00  0.00    +0.000 C 
ATOM     18  C   UNL     1      44.645   2.630   8.811  0.00  0.00    +0.000 C 
ATOM     19  C   UNL     1      45.442   1.425   8.278  0.00  0.00    +0.000 C 
ATOM     20  C   UNL     1      46.929   1.723   8.066  0.00  0.00    +0.000 C 
BRANCH  15  21
ATOM     21  C   UNL     1      46.906   2.608   5.678  0.00  0.00    +0.000 C 
BRANCH  21  22
ATOM     22  N   UNL     1      48.114   2.320   4.907  0.00  0.00    +0.000 NA
ATOM     23  H   UNL     1      47.997   1.425   4.429  0.00  0.00    +0.000 HD
ATOM     24  H   UNL     1      48.905   2.188   5.536  0.00  0.00    +0.000 HD
ENDBRANCH  21  22
ENDBRANCH  15  21
ENDBRANCH  14  18
ENDBRANCH   1  14
TORSDOF 6
ENDMDL
MODEL 3
REMARK VINA RESULT:    -6.227      5.127      8.265
REMARK INTER + INTRA:          -8.144
REMARK INTER:                  -7.673
REMARK INTRA:                  -0.471
REMARK UNBOUND:                -0.097
REMARK  Name = 
REMARK  6 active torsions:
REMARK  status: ('A' for Active; 'I' for Inactive)
REMARK    1  A    between atoms: N_1  and  C_2
REMARK    2  A    between atoms: C_2  and  C_3
REMARK    3  A    between atoms: C_6  and  C_7
REMARK    4  A    between atoms: C_7  and  N_8
REMARK    5  A    between atoms: C_13  and  C_14
REMARK    6  A    between atoms: C_14  and  O_16
REMARK                            x       y       z     vdW  Elec       q    Type
REMARK                         _______ _______ _______ _____ _____    ______ ____
ROOT
ATOM      1  N   UNL     1      48.137   6.235  14.561  0.00  0.00    +0.000 N 
ATOM      2  C   UNL     1      48.766   7.432  14.779  0.00  0.00    +0.000 A 
ATOM      3  N   UNL     1      49.216   7.526  16.003  0.00  0.00    +0.000 NA
ATOM      4  C   UNL     1      48.812   6.377  16.626  0.00  0.00    +0.000 A 
ATOM      5  C   UNL     1      49.011   5.982  17.951  0.00  0.00    +0.000 A 
ATOM      6  C   UNL     1      48.465   4.771  18.386  0.00  0.00    +0.000 A 
ATOM      7  C   UNL     1      47.709   3.976  17.505  0.00  0.00    +0.000 A 
ATOM      8  C   UNL     1      47.524   4.348  16.164  0.00  0.00    +0.000 A 
ATOM      9  C   UNL     1      48.098   5.559  15.759  0.00  0.00    +0.000 A 
ENDROOT
BRANCH   6  10
ATOM     10  C   UNL     1      48.617   4.364  19.803  0.00  0.00    +0.000 C 
ATOM     11  O   UNL     1      49.039   5.121  20.661  0.00  0.00    +0.000 OA
BRANCH  10  12
ATOM     12  O   UNL     1      48.256   3.088  20.068  0.00  0.00    +0.000 OA
ATOM     13  H   UNL     1      48.764   2.398  19.596  0.00  0.00    +0.000 HD
ENDBRANCH  10  12
ENDBRANCH   6  10
BRANCH   1  14
ATOM     14  C   UNL     1      47.582   5.778  13.300  0.00  0.00    +0.000 C 
BRANCH  14  18
ATOM     15  C   UNL     1      44.990   4.397  10.779  0.00  0.00    +0.000 C 
ATOM     16  C   UNL     1      45.765   5.713  10.597  0.00  0.00    +0.000 C 
ATOM     17  C   UNL     1      45.677   6.658  11.797  0.00  0.00    +0.000 C 
ATOM     18  C   UNL     1      46.060   5.999  13.136  0.00  0.00    +0.000 C 
ATOM     19  C   UNL     1      45.294   4.675  13.313  0.00  0.00    +0.000 C 
ATOM     20  C   UNL     1      45.410   3.738  12.107  0.00  0.00    +0.000 C 
BRANCH  15  21
ATOM     21  C   UNL     1      43.453   4.538  10.687  0.00  0.00    +0.000 C 
BRANCH  21  22
ATOM     22  N   UNL     1      42.726   3.500  11.414  0.00  0.00    +0.000 NA
ATOM     23  H   UNL     1      41.739   3.757  11.463  0.00  0.00    +0.000 HD
ATOM     24  H   UNL     1      43.044   3.464  12.382  0.00  0.00    +0.000 HD
ENDBRANCH  21  22
ENDBRANCH  15  21
ENDBRANCH  14  18
ENDBRANCH   1  14
TORSDOF 6
ENDMDL
MODEL 4
REMARK VINA RESULT:    -6.057      3.307      5.022
REMARK INTER + INTRA:          -7.925
REMARK INTER:                  -7.324
REMARK INTRA:                  -0.601
REMARK UNBOUND:                -0.097
REMARK  Name = 
REMARK  6 active torsions:
REMARK  status: ('A' for Active; 'I' for Inactive)
REMARK    1  A    between atoms: N_1  and  C_2
REMARK    2  A    between atoms: C_2  and  C_3
REMARK    3  A    between atoms: C_6  and  C_7
REMARK    4  A    between atoms: C_7  and  N_8
REMARK    5  A    between atoms: C_13  and  C_14
REMARK    6  A    between atoms: C_14  and  O_16
REMARK                            x       y       z     vdW  Elec       q    Type
REMARK                         _______ _______ _______ _____ _____    ______ ____
ROOT
ATOM      1  N   UNL     1      47.278   6.038  14.006  0.00  0.00    +0.000 N 
ATOM      2  C   UNL     1      47.245   4.975  14.870  0.00  0.00    +0.000 A 
ATOM      3  N   UNL     1      46.611   3.954  14.357  0.00  0.00    +0.000 NA
ATOM      4  C   UNL     1      46.157   4.385  13.140  0.00  0.00    +0.000 A 
ATOM      5  C   UNL     1      45.398   3.694  12.193  0.00  0.00    +0.000 A 
ATOM      6  C   UNL     1      45.007   4.356  11.024  0.00  0.00    +0.000 A 
ATOM      7  C   UNL     1      45.354   5.704  10.822  0.00  0.00    +0.000 A 
ATOM      8  C   UNL     1      46.139   6.402  11.753  0.00  0.00    +0.000 A 
ATOM      9  C   UNL     1      46.527   5.704  12.903  0.00  0.00    +0.000 A 
ENDROOT
BRANCH   6  10
ATOM     10  C   UNL     1      44.154   3.655  10.035  0.00  0.00    +0.000 C 
ATOM     11  O   UNL     1      43.913   2.462  10.104  0.00  0.00    +0.000 OA
BRANCH  10  12
ATOM     12  O   UNL     1      43.667   4.442   9.049  0.00  0.00    +0.000 OA
ATOM     13  H   UNL     1      44.278   4.615   8.306  0.00  0.00    +0.000 HD
ENDBRANCH  10  12
ENDBRANCH   6  10
BRANCH   1  14
ATOM     14  C   UNL     1      47.957   7.301  14.231  0.00  0.00    +0.000 C 
BRANCH  14  18
ATOM     15  C   UNL     1      50.005   9.882  12.200  0.00  0.00    +0.000 C 
ATOM     16  C   UNL     1      49.267   8.680  11.586  0.00  0.00    +0.000 C 
ATOM     17  C   UNL     1      49.605   7.340  12.245  0.00  0.00    +0.000 C 
ATOM     18  C   UNL     1      49.434   7.340  13.776  0.00  0.00    +0.000 C 
ATOM     19  C   UNL     1      50.162   8.551  14.390  0.00  0.00    +0.000 C 
ATOM     20  C   UNL     1      49.797   9.882  13.727  0.00  0.00    +0.000 C 
BRANCH  15  21
ATOM     21  C   UNL     1      51.506   9.966  11.841  0.00  0.00    +0.000 C 
BRANCH  21  22
ATOM     22  N   UNL     1      51.793   9.634  10.447  0.00  0.00    +0.000 NA
ATOM     23  H   UNL     1      51.175  10.177   9.842  0.00  0.00    +0.000 HD
ATOM     24  H   UNL     1      51.559   8.658  10.266  0.00  0.00    +0.000 HD
ENDBRANCH  21  22
ENDBRANCH  15  21
ENDBRANCH  14  18
ENDBRANCH   1  14
TORSDOF 6
ENDMDL
MODEL 5
REMARK VINA RESULT:    -5.979      3.764      5.925
REMARK INTER + INTRA:          -7.824
REMARK INTER:                  -7.281
REMARK INTRA:                  -0.543
REMARK UNBOUND:                -0.097
REMARK  Name = 
REMARK  6 active torsions:
REMARK  status: ('A' for Active; 'I' for Inactive)
REMARK    1  A    between atoms: N_1  and  C_2
REMARK    2  A    between atoms: C_2  and  C_3
REMARK    3  A    between atoms: C_6  and  C_7
REMARK    4  A    between atoms: C_7  and  N_8
REMARK    5  A    between atoms: C_13  and  C_14
REMARK    6  A    between atoms: C_14  and  O_16
REMARK                            x       y       z     vdW  Elec       q    Type
REMARK                         _______ _______ _______ _____ _____    ______ ____
ROOT
ATOM      1  N   UNL     1      47.783   6.382  14.108  0.00  0.00    +0.000 N 
ATOM      2  C   UNL     1      47.690   7.657  13.617  0.00  0.00    +0.000 A 
ATOM      3  N   UNL     1      46.710   7.775  12.760  0.00  0.00    +0.000 NA
ATOM      4  C   UNL     1      46.183   6.519  12.638  0.00  0.00    +0.000 A 
ATOM      5  C   UNL     1      45.128   6.086  11.831  0.00  0.00    +0.000 A 
ATOM      6  C   UNL     1      44.785   4.730  11.835  0.00  0.00    +0.000 A 
ATOM      7  C   UNL     1      45.507   3.817  12.625  0.00  0.00    +0.000 A 
ATOM      8  C   UNL     1      46.551   4.244  13.461  0.00  0.00    +0.000 A 
ATOM      9  C   UNL     1      46.858   5.610  13.444  0.00  0.00    +0.000 A 
ENDROOT
BRANCH   6  10
ATOM     10  C   UNL     1      43.706   4.244  10.942  0.00  0.00    +0.000 C 
ATOM     11  O   UNL     1      43.226   3.128  11.040  0.00  0.00    +0.000 OA
BRANCH  10  12
ATOM     12  O   UNL     1      43.301   5.134  10.008  0.00  0.00    +0.000 OA
ATOM     13  H   UNL     1      43.506   4.898   9.082  0.00  0.00    +0.000 HD
ENDBRANCH  10  12
ENDBRANCH   6  10
BRANCH   1  14
ATOM     14  C   UNL     1      48.713   5.922  15.123  0.00  0.00    +0.000 C 
BRANCH  14  18
ATOM     15  C   UNL     1      49.768   4.251  18.451  0.00  0.00    +0.000 C 
ATOM     16  C   UNL     1      48.631   3.747  17.546  0.00  0.00    +0.000 C 
ATOM     17  C   UNL     1      47.606   4.822  17.178  0.00  0.00    +0.000 C 
ATOM     18  C   UNL     1      48.230   6.098  16.581  0.00  0.00    +0.000 C 
ATOM     19  C   UNL     1      49.378   6.596  17.480  0.00  0.00    +0.000 C 
ATOM     20  C   UNL     1      50.400   5.508  17.821  0.00  0.00    +0.000 C 
BRANCH  15  21
ATOM     21  C   UNL     1      49.356   4.509  19.919  0.00  0.00    +0.000 C 
BRANCH  21  22
ATOM     22  N   UNL     1      48.397   3.535  20.436  0.00  0.00    +0.000 NA
ATOM     23  H   UNL     1      47.571   4.030  20.775  0.00  0.00    +0.000 HD
ATOM     24  H   UNL     1      48.785   3.064  21.253  0.00  0.00    +0.000 HD
ENDBRANCH  21  22
ENDBRANCH  15  21
ENDBRANCH  14  18
ENDBRANCH   1  14
TORSDOF 6
ENDMDL
MODEL 6
REMARK VINA RESULT:    -5.571      3.361      5.171
REMARK INTER + INTRA:          -7.297
REMARK INTER:                  -6.804
REMARK INTRA:                  -0.493
REMARK UNBOUND:                -0.097
REMARK  Name = 
REMARK  6 active torsions:
REMARK  status: ('A' for Active; 'I' for Inactive)
REMARK    1  A    between atoms: N_1  and  C_2
REMARK    2  A    between atoms: C_2  and  C_3
REMARK    3  A    between atoms: C_6  and  C_7
REMARK    4  A    between atoms: C_7  and  N_8
REMARK    5  A    between atoms: C_13  and  C_14
REMARK    6  A    between atoms: C_14  and  O_16
REMARK                            x       y       z     vdW  Elec       q    Type
REMARK                         _______ _______ _______ _____ _____    ______ ____
ROOT
ATOM      1  N   UNL     1      46.486   7.330  12.862  0.00  0.00    +0.000 N 
ATOM      2  C   UNL     1      45.795   8.196  12.058  0.00  0.00    +0.000 A 
ATOM      3  N   UNL     1      44.862   7.584  11.377  0.00  0.00    +0.000 NA
ATOM      4  C   UNL     1      44.988   6.260  11.700  0.00  0.00    +0.000 A 
ATOM      5  C   UNL     1      44.251   5.170  11.232  0.00  0.00    +0.000 A 
ATOM      6  C   UNL     1      44.588   3.886  11.671  0.00  0.00    +0.000 A 
ATOM      7  C   UNL     1      45.668   3.698  12.553  0.00  0.00    +0.000 A 
ATOM      8  C   UNL     1      46.400   4.787  13.051  0.00  0.00    +0.000 A 
ATOM      9  C   UNL     1      46.025   6.060  12.603  0.00  0.00    +0.000 A 
ENDROOT
BRANCH   6  10
ATOM     10  C   UNL     1      43.853   2.713  11.140  0.00  0.00    +0.000 C 
ATOM     11  O   UNL     1      42.872   2.248  11.694  0.00  0.00    +0.000 OA
BRANCH  10  12
ATOM     12  O   UNL     1      44.360   2.197   9.997  0.00  0.00    +0.000 OA
ATOM     13  H   UNL     1      44.117   2.668   9.177  0.00  0.00    +0.000 HD
ENDBRANCH  10  12
ENDBRANCH   6  10
BRANCH   1  14
ATOM     14  C   UNL     1      47.539   7.685  13.796  0.00  0.00    +0.000 C 
BRANCH  14  18
ATOM     15  C   UNL     1      50.846   9.384  12.721  0.00  0.00    +0.000 C 
ATOM     16  C   UNL     1      49.780   8.859  11.745  0.00  0.00    +0.000 C 
ATOM     17  C   UNL     1      49.367   7.407  11.996  0.00  0.00    +0.000 C 
ATOM     18  C   UNL     1      48.938   7.126  13.449  0.00  0.00    +0.000 C 
ATOM     19  C   UNL     1      49.999   7.663  14.428  0.00  0.00    +0.000 C 
ATOM     20  C   UNL     1      50.384   9.123  14.168  0.00  0.00    +0.000 C 
BRANCH  15  21
ATOM     21  C   UNL     1      52.269   8.828  12.480  0.00  0.00    +0.000 C 
BRANCH  21  22
ATOM     22  N   UNL     1      53.225   9.198  13.520  0.00  0.00    +0.000 NA
ATOM     23  H   UNL     1      52.720   9.368  14.392  0.00  0.00    +0.000 HD
ATOM     24  H   UNL     1      53.667  10.087  13.287  0.00  0.00    +0.000 HD
ENDBRANCH  21  22
ENDBRANCH  15  21
ENDBRANCH  14  18
ENDBRANCH   1  14
TORSDOF 6
ENDMDL
MODEL 7
REMARK VINA RESULT:    -5.456      4.228      6.169
REMARK INTER + INTRA:          -7.148
REMARK INTER:                  -6.734
REMARK INTRA:                  -0.414
REMARK UNBOUND:                -0.097
REMARK  Name = 
REMARK  6 active torsions:
REMARK  status: ('A' for Active; 'I' for Inactive)
REMARK    1  A    between atoms: N_1  and  C_2
REMARK    2  A    between atoms: C_2  and  C_3
REMARK    3  A    between atoms: C_6  and  C_7
REMARK    4  A    between atoms: C_7  and  N_8
REMARK    5  A    between atoms: C_13  and  C_14
REMARK    6  A    between atoms: C_14  and  O_16
REMARK                            x       y       z     vdW  Elec       q    Type
REMARK                         _______ _______ _______ _____ _____    ______ ____
ROOT
ATOM      1  N   UNL     1      46.493   4.723  13.584  0.00  0.00    +0.000 N 
ATOM      2  C   UNL     1      45.608   3.880  12.966  0.00  0.00    +0.000 A 
ATOM      3  N   UNL     1      44.834   4.519  12.129  0.00  0.00    +0.000 NA
ATOM      4  C   UNL     1      45.181   5.837  12.251  0.00  0.00    +0.000 A 
ATOM      5  C   UNL     1      44.645   6.949  11.596  0.00  0.00    +0.000 A 
ATOM      6  C   UNL     1      45.131   8.221  11.913  0.00  0.00    +0.000 A 
ATOM      7  C   UNL     1      46.129   8.376  12.892  0.00  0.00    +0.000 A 
ATOM      8  C   UNL     1      46.695   7.266  13.538  0.00  0.00    +0.000 A 
ATOM      9  C   UNL     1      46.196   6.006  13.185  0.00  0.00    +0.000 A 
ENDROOT
BRANCH   6  10
ATOM     10  C   UNL     1      44.534   9.415  11.269  0.00  0.00    +0.000 C 
ATOM     11  O   UNL     1      44.798  10.552  11.622  0.00  0.00    +0.000 OA
BRANCH  10  12
ATOM     12  O   UNL     1      43.670   9.144  10.264  0.00  0.00    +0.000 OA
ATOM     13  H   UNL     1      43.235   8.271  10.305  0.00  0.00    +0.000 HD
ENDBRANCH  10  12
ENDBRANCH   6  10
BRANCH   1  14
ATOM     14  C   UNL     1      47.534   4.335  14.518  0.00  0.00    +0.000 C 
BRANCH  14  18
ATOM     15  C   UNL     1      49.606   3.925  17.761  0.00  0.00    +0.000 C 
ATOM     16  C   UNL     1      48.669   2.850  17.186  0.00  0.00    +0.000 C 
ATOM     17  C   UNL     1      47.254   3.352  16.888  0.00  0.00    +0.000 C 
ATOM     18  C   UNL     1      47.216   4.614  16.005  0.00  0.00    +0.000 C 
ATOM     19  C   UNL     1      48.164   5.687  16.574  0.00  0.00    +0.000 C 
ATOM     20  C   UNL     1      49.578   5.166  16.848  0.00  0.00    +0.000 C 
BRANCH  15  21
ATOM     21  C   UNL     1      49.320   4.307  19.232  0.00  0.00    +0.000 C 
BRANCH  21  22
ATOM     22  N   UNL     1      48.512   3.320  19.945  0.00  0.00    +0.000 NA
ATOM     23  H   UNL     1      47.707   3.070  19.368  0.00  0.00    +0.000 HD
ATOM     24  H   UNL     1      48.121   3.735  20.790  0.00  0.00    +0.000 HD
ENDBRANCH  21  22
ENDBRANCH  15  21
ENDBRANCH  14  18
ENDBRANCH   1  14
TORSDOF 6
ENDMDL
MODEL 8
REMARK VINA RESULT:    -5.326      4.260      7.155
REMARK INTER + INTRA:          -6.979
REMARK INTER:                  -6.599
REMARK INTRA:                  -0.380
REMARK UNBOUND:                -0.097
REMARK  Name = 
REMARK  6 active torsions:
REMARK  status: ('A' for Active; 'I' for Inactive)
REMARK    1  A    between atoms: N_1  and  C_2
REMARK    2  A    between atoms: C_2  and  C_3
REMARK    3  A    between atoms: C_6  and  C_7
REMARK    4  A    between atoms: C_7  and  N_8
REMARK    5  A    between atoms: C_13  and  C_14
REMARK    6  A    between atoms: C_14  and  O_16
REMARK                            x       y       z     vdW  Elec       q    Type
REMARK                         _______ _______ _______ _____ _____    ______ ____
ROOT
ATOM      1  N   UNL     1      46.451   8.243  12.678  0.00  0.00    +0.000 N 
ATOM      2  C   UNL     1      46.357   9.488  12.116  0.00  0.00    +0.000 A 
ATOM      3  N   UNL     1      47.508  10.105  12.110  0.00  0.00    +0.000 NA
ATOM      4  C   UNL     1      48.375   9.260  12.748  0.00  0.00    +0.000 A 
ATOM      5  C   UNL     1      49.730   9.445  13.032  0.00  0.00    +0.000 A 
ATOM      6  C   UNL     1      50.414   8.453  13.742  0.00  0.00    +0.000 A 
ATOM      7  C   UNL     1      49.739   7.299  14.180  0.00  0.00    +0.000 A 
ATOM      8  C   UNL     1      48.384   7.089  13.878  0.00  0.00    +0.000 A 
ATOM      9  C   UNL     1      47.734   8.095  13.152  0.00  0.00    +0.000 A 
ENDROOT
BRANCH   6  10
ATOM     10  C   UNL     1      51.838   8.658  14.102  0.00  0.00    +0.000 C 
ATOM     11  O   UNL     1      52.418   9.713  13.909  0.00  0.00    +0.000 OA
BRANCH  10  12
ATOM     12  O   UNL     1      52.442   7.583  14.655  0.00  0.00    +0.000 OA
ATOM     13  H   UNL     1      52.872   7.737  15.519  0.00  0.00    +0.000 HD
ENDBRANCH  10  12
ENDBRANCH   6  10
BRANCH   1  14
ATOM     14  C   UNL     1      45.380   7.268  12.784  0.00  0.00    +0.000 C 
BRANCH  14  18
ATOM     15  C   UNL     1      43.196   4.273  11.674  0.00  0.00    +0.000 C 
ATOM     16  C   UNL     1      43.719   4.485  13.105  0.00  0.00    +0.000 C 
ATOM     17  C   UNL     1      45.228   4.724  13.186  0.00  0.00    +0.000 C 
ATOM     18  C   UNL     1      45.729   5.854  12.267  0.00  0.00    +0.000 C 
ATOM     19  C   UNL     1      45.196   5.648  10.837  0.00  0.00    +0.000 C 
ATOM     20  C   UNL     1      43.681   5.428  10.778  0.00  0.00    +0.000 C 
BRANCH  15  21
ATOM     21  C   UNL     1      43.552   2.900  11.057  0.00  0.00    +0.000 C 
BRANCH  21  22
ATOM     22  N   UNL     1      42.979   1.768  11.783  0.00  0.00    +0.000 NA
ATOM     23  H   UNL     1      42.875   2.022  12.767  0.00  0.00    +0.000 HD
ATOM     24  H   UNL     1      43.630   0.983  11.774  0.00  0.00    +0.000 HD
ENDBRANCH  21  22
ENDBRANCH  15  21
ENDBRANCH  14  18
ENDBRANCH   1  14
TORSDOF 6
ENDMDL
MODEL 9
REMARK VINA RESULT:    -5.286      3.422      5.511
REMARK INTER + INTRA:          -6.928
REMARK INTER:                  -6.558
REMARK INTRA:                  -0.371
REMARK UNBOUND:                -0.097
REMARK  Name = 
REMARK  6 active torsions:
REMARK  status: ('A' for Active; 'I' for Inactive)
REMARK    1  A    between atoms: N_1  and  C_2
REMARK    2  A    between atoms: C_2  and  C_3
REMARK    3  A    between atoms: C_6  and  C_7
REMARK    4  A    between atoms: C_7  and  N_8
REMARK    5  A    between atoms: C_13  and  C_14
REMARK    6  A    between atoms: C_14  and  O_16
REMARK                            x       y       z     vdW  Elec       q    Type
REMARK                         _______ _______ _______ _____ _____    ______ ____
ROOT
ATOM      1  N   UNL     1      47.162   6.577  13.459  0.00  0.00    +0.000 N 
ATOM      2  C   UNL     1      46.819   7.633  12.657  0.00  0.00    +0.000 A 
ATOM      3  N   UNL     1      45.910   7.300  11.780  0.00  0.00    +0.000 NA
ATOM      4  C   UNL     1      45.696   5.962  11.971  0.00  0.00    +0.000 A 
ATOM      5  C   UNL     1      44.837   5.104  11.281  0.00  0.00    +0.000 A 
ATOM      6  C   UNL     1      44.815   3.748  11.623  0.00  0.00    +0.000 A 
ATOM      7  C   UNL     1      45.662   3.257  12.633  0.00  0.00    +0.000 A 
ATOM      8  C   UNL     1      46.510   4.113  13.353  0.00  0.00    +0.000 A 
ATOM      9  C   UNL     1      46.495   5.467  12.995  0.00  0.00    +0.000 A 
ENDROOT
BRANCH   6  10
ATOM     10  C   UNL     1      43.951   2.814  10.862  0.00  0.00    +0.000 C 
ATOM     11  O   UNL     1      44.032   2.684   9.653  0.00  0.00    +0.000 OA
BRANCH  10  12
ATOM     12  O   UNL     1      43.066   2.121  11.614  0.00  0.00    +0.000 OA
ATOM     13  H   UNL     1      42.948   1.182  11.371  0.00  0.00    +0.000 HD
ENDBRANCH  10  12
ENDBRANCH   6  10
BRANCH   1  14
ATOM     14  C   UNL     1      48.089   6.616  14.575  0.00  0.00    +0.000 C 
BRANCH  14  18
ATOM     15  C   UNL     1      50.264   8.095  17.414  0.00  0.00    +0.000 C 
ATOM     16  C   UNL     1      48.774   8.413  17.204  0.00  0.00    +0.000 C 
ATOM     17  C   UNL     1      48.429   8.870  15.785  0.00  0.00    +0.000 C 
ATOM     18  C   UNL     1      48.926   7.912  14.686  0.00  0.00    +0.000 C 
ATOM     19  C   UNL     1      50.415   7.583  14.903  0.00  0.00    +0.000 C 
ATOM     20  C   UNL     1      50.733   7.112  16.325  0.00  0.00    +0.000 C 
BRANCH  15  21
ATOM     21  C   UNL     1      51.183   9.337  17.480  0.00  0.00    +0.000 C 
BRANCH  21  22
ATOM     22  N   UNL     1      52.572   9.020  17.803  0.00  0.00    +0.000 NA
ATOM     23  H   UNL     1      52.820   8.131  17.366  0.00  0.00    +0.000 HD
ATOM     24  H   UNL     1      52.670   8.866  18.806  0.00  0.00    +0.000 HD
ENDBRANCH  21  22
ENDBRANCH  15  21
ENDBRANCH  14  18
ENDBRANCH   1  14
TORSDOF 6
ENDMDL
