MODEL 1
REMARK VINA RESULT:    -8.238      0.000      0.000
REMARK INTER + INTRA:         -11.196
REMARK INTER:                 -10.165
REMARK INTRA:                  -1.031
REMARK UNBOUND:                -1.031
REMARK  Name = 
REMARK  4 active torsions:
REMARK  status: ('A' for Active; 'I' for Inactive)
REMARK    1  A    between atoms: C_2  and  C_3
REMARK    2  A    between atoms: N_7  and  C_8
REMARK    3  A    between atoms: C_8  and  C_9
REMARK    4  A    between atoms: C_13  and  C_14
REMARK                            x       y       z     vdW  Elec       q    Type
REMARK                         _______ _______ _______ _____ _____    ______ ____
ROOT
ATOM      1  C   UNL     1      43.941   5.040  11.280  0.00  0.00    +0.000 C 
ATOM      2  C   UNL     1      42.557   5.122  11.941  0.00  0.00    +0.000 C 
ATOM      3  C   UNL     1      42.990   6.192  11.001  0.00  0.00    +0.000 C 
ENDROOT
BRANCH   1   8
ATOM      4  C   UNL     1      46.721   2.671   7.481  0.00  0.00    +0.000 A 
ATOM      5  C   UNL     1      46.526   4.038   7.675  0.00  0.00    +0.000 A 
ATOM      6  C   UNL     1      45.690   4.482   8.709  0.00  0.00    +0.000 A 
ATOM      7  C   UNL     1      45.055   3.545   9.511  0.00  0.00    +0.000 A 
ATOM      8  N   UNL     1      44.092   3.837  10.466  0.00  0.00    +0.000 N 
ATOM      9  N   UNL     1      45.254   2.216   9.338  0.00  0.00    +0.000 NA
ATOM     10  C   UNL     1      46.078   1.809   8.348  0.00  0.00    +0.000 A 
ATOM     11  H   UNL     1      43.839   2.954  10.898  0.00  0.00    +0.000 HD
BRANCH   4  13
ATOM     12  N   UNL     1      48.189   1.751   5.557  0.00  0.00    +0.000 NA
ATOM     13  C   UNL     1      47.523   2.160   6.418  0.00  0.00    +0.000 C 
ENDBRANCH   4  13
ENDBRANCH   1   8
BRANCH   1  14
ATOM     14  C   UNL     1      45.113   5.346  12.213  0.00  0.00    +0.000 A 
ATOM     15  C   UNL     1      45.547   4.412  13.164  0.00  0.00    +0.000 A 
ATOM     16  C   UNL     1      46.808   4.516  13.743  0.00  0.00    +0.000 A 
ATOM     17  C   UNL     1      47.638   5.589  13.414  0.00  0.00    +0.000 A 
ATOM     18  C   UNL     1      47.200   6.610  12.555  0.00  0.00    +0.000 A 
ATOM     19  C   UNL     1      45.917   6.483  11.996  0.00  0.00    +0.000 A 
BRANCH  18  20
ATOM     20  C   UNL     1      48.087   7.724  12.166  0.00  0.00    +0.000 A 
ATOM     21  C   UNL     1      47.623   9.047  12.170  0.00  0.00    +0.000 A 
ATOM     22  C   UNL     1      48.487  10.072  11.822  0.00  0.00    +0.000 A 
ATOM     23  N   UNL     1      49.776   9.882  11.479  0.00  0.00    +0.000 NA
ATOM     24  C   UNL     1      50.217   8.607  11.484  0.00  0.00    +0.000 A 
ATOM     25  C   UNL     1      49.426   7.516  11.814  0.00  0.00    +0.000 A 
ENDBRANCH  18  20
ENDBRANCH   1  14
TORSDOF 4
ENDMDL
MODEL 2
REMARK VINA RESULT:    -8.026      2.118      3.306
REMARK INTER + INTRA:         -10.934
REMARK INTER:                 -10.276
REMARK INTRA:                  -0.659
REMARK UNBOUND:                -1.031
REMARK  Name = 
REMARK  4 active torsions:
REMARK  status: ('A' for Active; 'I' for Inactive)
REMARK    1  A    between atoms: C_2  and  C_3
REMARK    2  A    between atoms: N_7  and  C_8
REMARK    3  A    between atoms: C_8  and  C_9
REMARK    4  A    between atoms: C_13  and  C_14
REMARK                            x       y       z     vdW  Elec       q    Type
REMARK                         _______ _______ _______ _____ _____    ______ ____
ROOT
ATOM      1  C   UNL     1      43.900   4.951  11.327  0.00  0.00    +0.000 C 
ATOM      2  C   UNL     1      42.839   4.776  12.424  0.00  0.00    +0.000 C 
ATOM      3  C   UNL     1      42.655   5.822  11.381  0.00  0.00    +0.000 C 
ENDROOT
BRANCH   1   8
ATOM      4  C   UNL     1      46.640   2.625   7.474  0.00  0.00    +0.000 A 
ATOM      5  C   UNL     1      46.406   3.987   7.657  0.00  0.00    +0.000 A 
ATOM      6  C   UNL     1      45.588   4.417   8.711  0.00  0.00    +0.000 A 
ATOM      7  C   UNL     1      45.008   3.470   9.543  0.00  0.00    +0.000 A 
ATOM      8  N   UNL     1      44.066   3.744  10.523  0.00  0.00    +0.000 N 
ATOM      9  N   UNL     1      45.246   2.146   9.380  0.00  0.00    +0.000 NA
ATOM     10  C   UNL     1      46.052   1.753   8.370  0.00  0.00    +0.000 A 
ATOM     11  H   UNL     1      43.855   2.858  10.973  0.00  0.00    +0.000 HD
BRANCH   4  13
ATOM     12  N   UNL     1      48.068   1.734   5.506  0.00  0.00    +0.000 NA
ATOM     13  C   UNL     1      47.427   2.126   6.392  0.00  0.00    +0.000 C 
ENDBRANCH   4  13
ENDBRANCH   1   8
BRANCH   1  14
ATOM     14  C   UNL     1      45.199   5.606  11.795  0.00  0.00    +0.000 A 
ATOM     15  C   UNL     1      45.593   6.864  11.315  0.00  0.00    +0.000 A 
ATOM     16  C   UNL     1      46.545   7.620  11.992  0.00  0.00    +0.000 A 
ATOM     17  C   UNL     1      47.156   7.106  13.136  0.00  0.00    +0.000 A 
ATOM     18  C   UNL     1      46.878   5.805  13.588  0.00  0.00    +0.000 A 
ATOM     19  C   UNL     1      45.922   5.062  12.876  0.00  0.00    +0.000 A 
BRANCH  18  20
ATOM     20  C   UNL     1      47.484   5.271  14.822  0.00  0.00    +0.000 A 
ATOM     21  C   UNL     1      48.399   6.033  15.562  0.00  0.00    +0.000 A 
ATOM     22  C   UNL     1      48.933   5.511  16.729  0.00  0.00    +0.000 A 
ATOM     23  N   UNL     1      48.621   4.296  17.218  0.00  0.00    +0.000 NA
ATOM     24  C   UNL     1      47.734   3.571  16.505  0.00  0.00    +0.000 A 
ATOM     25  C   UNL     1      47.151   4.006  15.324  0.00  0.00    +0.000 A 
ENDBRANCH  18  20
ENDBRANCH   1  14
TORSDOF 4
ENDMDL
MODEL 3
REMARK VINA RESULT:    -6.219      3.452      8.067
REMARK INTER + INTRA:          -8.704
REMARK INTER:                  -7.914
REMARK INTRA:                  -0.790
REMARK UNBOUND:                -1.031
REMARK  Name = 
REMARK  4 active torsions:
REMARK  status: ('A' for Active; 'I' for Inactive)
REMARK    1  A    between atoms: C_2  and  C_3
REMARK    2  A    between atoms: N_7  and  C_8
REMARK    3  A    between atoms: C_8  and  C_9
REMARK    4  A    between atoms: C_13  and  C_14
REMARK                            x       y       z     vdW  Elec       q    Type
REMARK                         _______ _______ _______ _____ _____    ______ ____
ROOT
ATOM      1  C   UNL     1      48.848   7.795  12.736  0.00  0.00    +0.000 C 
ATOM      2  C   UNL     1      49.721   7.769  11.473  0.00  0.00    +0.000 C 
ATOM      3  C   UNL     1      49.428   9.066  12.140  0.00  0.00    +0.000 C 
ENDROOT
BRANCH   1   8
ATOM      4  C   UNL     1      48.967   6.990  17.942  0.00  0.00    +0.000 A 
ATOM      5  C   UNL     1      48.673   8.172  17.264  0.00  0.00    +0.000 A 
ATOM      6  C   UNL     1      48.761   8.212  15.866  0.00  0.00    +0.000 A 
ATOM      7  C   UNL     1      49.159   7.073  15.182  0.00  0.00    +0.000 A 
ATOM      8  N   UNL     1      49.430   7.014  13.824  0.00  0.00    +0.000 N 
ATOM      9  N   UNL     1      49.428   5.916  15.835  0.00  0.00    +0.000 NA
ATOM     10  C   UNL     1      49.321   5.893  17.181  0.00  0.00    +0.000 A 
ATOM     11  H   UNL     1      49.671   6.049  13.621  0.00  0.00    +0.000 HD
BRANCH   4  13
ATOM     12  N   UNL     1      48.926   6.843  20.527  0.00  0.00    +0.000 NA
ATOM     13  C   UNL     1      48.939   6.903  19.366  0.00  0.00    +0.000 C 
ENDBRANCH   4  13
ENDBRANCH   1   8
BRANCH   1  14
ATOM     14  C   UNL     1      47.359   7.555  12.487  0.00  0.00    +0.000 A 
ATOM     15  C   UNL     1      46.418   8.580  12.663  0.00  0.00    +0.000 A 
ATOM     16  C   UNL     1      45.151   8.491  12.094  0.00  0.00    +0.000 A 
ATOM     17  C   UNL     1      44.788   7.349  11.380  0.00  0.00    +0.000 A 
ATOM     18  C   UNL     1      45.656   6.250  11.275  0.00  0.00    +0.000 A 
ATOM     19  C   UNL     1      46.923   6.364  11.871  0.00  0.00    +0.000 A 
BRANCH  18  20
ATOM     20  C   UNL     1      45.298   5.057  10.484  0.00  0.00    +0.000 A 
ATOM     21  C   UNL     1      44.550   4.015  11.051  0.00  0.00    +0.000 A 
ATOM     22  C   UNL     1      44.210   2.920  10.274  0.00  0.00    +0.000 A 
ATOM     23  N   UNL     1      44.551   2.786   8.978  0.00  0.00    +0.000 NA
ATOM     24  C   UNL     1      45.263   3.795   8.437  0.00  0.00    +0.000 A 
ATOM     25  C   UNL     1      45.654   4.929   9.136  0.00  0.00    +0.000 A 
ENDBRANCH  18  20
ENDBRANCH   1  14
TORSDOF 4
ENDMDL
MODEL 4
REMARK VINA RESULT:    -5.990      2.426      6.870
REMARK INTER + INTRA:          -8.422
REMARK INTER:                  -8.552
REMARK INTRA:                   0.130
REMARK UNBOUND:                -1.031
REMARK  Name = 
REMARK  4 active torsions:
REMARK  status: ('A' for Active; 'I' for Inactive)
REMARK    1  A    between atoms: C_2  and  C_3
REMARK    2  A    between atoms: N_7  and  C_8
REMARK    3  A    between atoms: C_8  and  C_9
REMARK    4  A    between atoms: C_13  and  C_14
REMARK                            x       y       z     vdW  Elec       q    Type
REMARK                         _______ _______ _______ _____ _____    ______ ____
ROOT
ATOM      1  C   UNL     1      44.598   3.480  12.392  0.00  0.00    +0.000 C 
ATOM      2  C   UNL     1      43.389   4.057  13.144  0.00  0.00    +0.000 C 
ATOM      3  C   UNL     1      43.299   2.704  12.530  0.00  0.00    +0.000 C 
ENDROOT
BRANCH   1   8
ATOM      4  C   UNL     1      48.281   6.039  15.159  0.00  0.00    +0.000 A 
ATOM      5  C   UNL     1      47.602   6.479  14.024  0.00  0.00    +0.000 A 
ATOM      6  C   UNL     1      46.699   5.624  13.379  0.00  0.00    +0.000 A 
ATOM      7  C   UNL     1      46.513   4.342  13.875  0.00  0.00    +0.000 A 
ATOM      8  N   UNL     1      45.771   3.349  13.253  0.00  0.00    +0.000 N 
ATOM      9  N   UNL     1      47.157   3.915  14.987  0.00  0.00    +0.000 NA
ATOM     10  C   UNL     1      48.010   4.760  15.606  0.00  0.00    +0.000 A 
ATOM     11  H   UNL     1      45.803   2.540  13.867  0.00  0.00    +0.000 HD
BRANCH   4  13
ATOM     12  N   UNL     1      50.020   7.518  16.383  0.00  0.00    +0.000 NA
ATOM     13  C   UNL     1      49.245   6.849  15.831  0.00  0.00    +0.000 C 
ENDBRANCH   4  13
ENDBRANCH   1   8
BRANCH   1  14
ATOM     14  C   UNL     1      44.862   4.114  11.026  0.00  0.00    +0.000 A 
ATOM     15  C   UNL     1      44.964   5.505  10.878  0.00  0.00    +0.000 A 
ATOM     16  C   UNL     1      45.561   6.060   9.751  0.00  0.00    +0.000 A 
ATOM     17  C   UNL     1      46.022   5.231   8.728  0.00  0.00    +0.000 A 
ATOM     18  C   UNL     1      45.837   3.839   8.780  0.00  0.00    +0.000 A 
ATOM     19  C   UNL     1      45.219   3.309   9.925  0.00  0.00    +0.000 A 
BRANCH  18  20
ATOM     20  C   UNL     1      46.361   2.951   7.725  0.00  0.00    +0.000 A 
ATOM     21  C   UNL     1      46.718   3.459   6.468  0.00  0.00    +0.000 A 
ATOM     22  C   UNL     1      47.229   2.603   5.507  0.00  0.00    +0.000 A 
ATOM     23  N   UNL     1      47.419   1.284   5.704  0.00  0.00    +0.000 NA
ATOM     24  C   UNL     1      47.081   0.803   6.918  0.00  0.00    +0.000 A 
ATOM     25  C   UNL     1      46.558   1.581   7.941  0.00  0.00    +0.000 A 
ENDBRANCH  18  20
ENDBRANCH   1  14
TORSDOF 4
ENDMDL
MODEL 5
REMARK VINA RESULT:    -5.869      5.299      8.222
REMARK INTER + INTRA:          -8.272
REMARK INTER:                  -7.538
REMARK INTRA:                  -0.735
REMARK UNBOUND:                -1.031
REMARK  Name = 
REMARK  4 active torsions:
REMARK  status: ('A' for Active; 'I' for Inactive)
REMARK    1  A    between atoms: C_2  and  C_3
REMARK    2  A    between atoms: N_7  and  C_8
REMARK    3  A    between atoms: C_8  and  C_9
REMARK    4  A    between atoms: C_13  and  C_14
REMARK                            x       y       z     vdW  Elec       q    Type
REMARK                         _______ _______ _______ _____ _____    ______ ____
ROOT
ATOM      1  C   UNL     1      48.251   4.594  17.116  0.00  0.00    +0.000 C 
ATOM      2  C   UNL     1      47.150   4.773  18.171  0.00  0.00    +0.000 C 
ATOM      3  C   UNL     1      47.174   3.545  17.331  0.00  0.00    +0.000 C 
ENDROOT
BRANCH   1   8
ATOM      4  C   UNL     1      52.754   1.915  17.675  0.00  0.00    +0.000 A 
ATOM      5  C   UNL     1      51.475   1.405  17.459  0.00  0.00    +0.000 A 
ATOM      6  C   UNL     1      50.378   2.277  17.406  0.00  0.00    +0.000 A 
ATOM      7  C   UNL     1      50.588   3.636  17.588  0.00  0.00    +0.000 A 
ATOM      8  N   UNL     1      49.586   4.586  17.708  0.00  0.00    +0.000 N 
ATOM      9  N   UNL     1      51.832   4.139  17.780  0.00  0.00    +0.000 NA
ATOM     10  C   UNL     1      52.878   3.284  17.811  0.00  0.00    +0.000 A 
ATOM     11  H   UNL     1      50.052   5.484  17.807  0.00  0.00    +0.000 HD
BRANCH   4  13
ATOM     12  N   UNL     1      54.832   0.385  17.888  0.00  0.00    +0.000 NA
ATOM     13  C   UNL     1      53.901   1.072  17.785  0.00  0.00    +0.000 C 
ENDBRANCH   4  13
ENDBRANCH   1   8
BRANCH   1  14
ATOM     14  C   UNL     1      48.094   5.474  15.876  0.00  0.00    +0.000 A 
ATOM     15  C   UNL     1      49.015   6.492  15.586  0.00  0.00    +0.000 A 
ATOM     16  C   UNL     1      49.101   7.034  14.307  0.00  0.00    +0.000 A 
ATOM     17  C   UNL     1      48.230   6.598  13.308  0.00  0.00    +0.000 A 
ATOM     18  C   UNL     1      47.216   5.665  13.581  0.00  0.00    +0.000 A 
ATOM     19  C   UNL     1      47.147   5.146  14.885  0.00  0.00    +0.000 A 
BRANCH  18  20
ATOM     20  C   UNL     1      46.320   5.165  12.521  0.00  0.00    +0.000 A 
ATOM     21  C   UNL     1      46.109   5.907  11.350  0.00  0.00    +0.000 A 
ATOM     22  C   UNL     1      45.280   5.399  10.363  0.00  0.00    +0.000 A 
ATOM     23  N   UNL     1      44.654   4.209  10.449  0.00  0.00    +0.000 NA
ATOM     24  C   UNL     1      44.868   3.498  11.574  0.00  0.00    +0.000 A 
ATOM     25  C   UNL     1      45.677   3.925  12.618  0.00  0.00    +0.000 A 
ENDBRANCH  18  20
ENDBRANCH   1  14
TORSDOF 4
ENDMDL
MODEL 6
REMARK VINA RESULT:    -5.684      3.529      6.097
REMARK INTER + INTRA:          -8.044
REMARK INTER:                  -7.421
REMARK INTRA:                  -0.623
REMARK UNBOUND:                -1.031
REMARK  Name = 
REMARK  4 active torsions:
REMARK  status: ('A' for Active; 'I' for Inactive)
REMARK    1  A    between atoms: C_2  and  C_3
REMARK    2  A    between atoms: N_7  and  C_8
REMARK    3  A    between atoms: C_8  and  C_9
REMARK    4  A    between atoms: C_13  and  C_14
REMARK                            x       y       z     vdW  Elec       q    Type
REMARK                         _______ _______ _______ _____ _____    ______ ____
ROOT
ATOM      1  C   UNL     1      47.467   8.374  13.105  0.00  0.00    +0.000 C 
ATOM      2  C   UNL     1      47.637   9.764  12.475  0.00  0.00    +0.000 C 
ATOM      3  C   UNL     1      48.389   8.607  11.919  0.00  0.00    +0.000 C 
ENDROOT
BRANCH   1   8
ATOM      4  C   UNL     1      44.305   4.270  12.140  0.00  0.00    +0.000 A 
ATOM      5  C   UNL     1      45.573   4.517  11.616  0.00  0.00    +0.000 A 
ATOM      6  C   UNL     1      46.239   5.707  11.937  0.00  0.00    +0.000 A 
ATOM      7  C   UNL     1      45.611   6.630  12.761  0.00  0.00    +0.000 A 
ATOM      8  N   UNL     1      46.086   7.903  13.037  0.00  0.00    +0.000 N 
ATOM      9  N   UNL     1      44.386   6.388  13.287  0.00  0.00    +0.000 NA
ATOM     10  C   UNL     1      43.768   5.227  12.980  0.00  0.00    +0.000 A 
ATOM     11  H   UNL     1      45.424   8.323  13.682  0.00  0.00    +0.000 HD
BRANCH   4  13
ATOM     12  N   UNL     1      42.964   2.139  11.534  0.00  0.00    +0.000 NA
ATOM     13  C   UNL     1      43.560   3.098  11.811  0.00  0.00    +0.000 C 
ENDBRANCH   4  13
ENDBRANCH   1   8
BRANCH   1  14
ATOM     14  C   UNL     1      48.148   8.200  14.462  0.00  0.00    +0.000 A 
ATOM     15  C   UNL     1      48.220   9.259  15.379  0.00  0.00    +0.000 A 
ATOM     16  C   UNL     1      48.489   9.022  16.724  0.00  0.00    +0.000 A 
ATOM     17  C   UNL     1      48.738   7.722  17.164  0.00  0.00    +0.000 A 
ATOM     18  C   UNL     1      48.791   6.646  16.263  0.00  0.00    +0.000 A 
ATOM     19  C   UNL     1      48.528   6.919  14.910  0.00  0.00    +0.000 A 
BRANCH  18  20
ATOM     20  C   UNL     1      49.009   5.261  16.725  0.00  0.00    +0.000 A 
ATOM     21  C   UNL     1      50.223   4.884  17.316  0.00  0.00    +0.000 A 
ATOM     22  C   UNL     1      50.388   3.582  17.761  0.00  0.00    +0.000 A 
ATOM     23  N   UNL     1      49.436   2.633  17.670  0.00  0.00    +0.000 NA
ATOM     24  C   UNL     1      48.268   3.006  17.108  0.00  0.00    +0.000 A 
ATOM     25  C   UNL     1      48.012   4.283  16.629  0.00  0.00    +0.000 A 
ENDBRANCH  18  20
ENDBRANCH   1  14
TORSDOF 4
ENDMDL
MODEL 7
REMARK VINA RESULT:    -5.337      4.054      6.986
REMARK INTER + INTRA:          -7.616
REMARK INTER:                  -6.802
REMARK INTRA:                  -0.815
REMARK UNBOUND:                -1.031
REMARK  Name = 
REMARK  4 active torsions:
REMARK  status: ('A' for Active; 'I' for Inactive)
REMARK    1  A    between atoms: C_2  and  C_3
REMARK    2  A    between atoms: N_7  and  C_8
REMARK    3  A    between atoms: C_8  and  C_9
REMARK    4  A    between atoms: C_13  and  C_14
REMARK                            x       y       z     vdW  Elec       q    Type
REMARK                         _______ _______ _______ _____ _____    ______ ____
ROOT
ATOM      1  C   UNL     1      48.744   9.654  15.150  0.00  0.00    +0.000 C 
ATOM      2  C   UNL     1      49.176  11.113  15.358  0.00  0.00    +0.000 C 
ATOM      3  C   UNL     1      50.122  10.144  14.740  0.00  0.00    +0.000 C 
ENDROOT
BRANCH   1   8
ATOM      4  C   UNL     1      46.141   6.616  11.720  0.00  0.00    +0.000 A 
ATOM      5  C   UNL     1      47.508   6.624  11.992  0.00  0.00    +0.000 A 
ATOM      6  C   UNL     1      48.033   7.560  12.894  0.00  0.00    +0.000 A 
ATOM      7  C   UNL     1      47.177   8.477  13.488  0.00  0.00    +0.000 A 
ATOM      8  N   UNL     1      47.579   9.544  14.277  0.00  0.00    +0.000 N 
ATOM      9  N   UNL     1      45.845   8.462  13.241  0.00  0.00    +0.000 NA
ATOM     10  C   UNL     1      45.356   7.540  12.382  0.00  0.00    +0.000 A 
ATOM     11  H   UNL     1      46.730  10.012  14.580  0.00  0.00    +0.000 HD
BRANCH   4  13
ATOM     12  N   UNL     1      45.074   4.997  10.004  0.00  0.00    +0.000 NA
ATOM     13  C   UNL     1      45.558   5.717  10.777  0.00  0.00    +0.000 C 
ENDBRANCH   4  13
ENDBRANCH   1   8
BRANCH   1  14
ATOM     14  C   UNL     1      48.680   8.819  16.429  0.00  0.00    +0.000 A 
ATOM     15  C   UNL     1      48.017   9.291  17.572  0.00  0.00    +0.000 A 
ATOM     16  C   UNL     1      47.634   8.417  18.585  0.00  0.00    +0.000 A 
ATOM     17  C   UNL     1      47.952   7.062  18.493  0.00  0.00    +0.000 A 
ATOM     18  C   UNL     1      48.715   6.565  17.423  0.00  0.00    +0.000 A 
ATOM     19  C   UNL     1      49.098   7.473  16.422  0.00  0.00    +0.000 A 
BRANCH  18  20
ATOM     20  C   UNL     1      49.017   5.126  17.294  0.00  0.00    +0.000 A 
ATOM     21  C   UNL     1      48.049   4.227  16.826  0.00  0.00    +0.000 A 
ATOM     22  C   UNL     1      48.372   2.887  16.694  0.00  0.00    +0.000 A 
ATOM     23  N   UNL     1      49.584   2.376  16.984  0.00  0.00    +0.000 NA
ATOM     24  C   UNL     1      50.513   3.248  17.427  0.00  0.00    +0.000 A 
ATOM     25  C   UNL     1      50.282   4.606  17.596  0.00  0.00    +0.000 A 
ENDBRANCH  18  20
ENDBRANCH   1  14
TORSDOF 4
ENDMDL
