MODEL 1
REMARK VINA RESULT:    -8.356      0.000      0.000
REMARK INTER + INTRA:         -12.927
REMARK INTER:                 -12.019
REMARK INTRA:                  -0.908
REMARK UNBOUND:                -0.908
REMARK  Name = 
REMARK  8 active torsions:
REMARK  status: ('A' for Active; 'I' for Inactive)
REMARK    1  A    between atoms: C_2  and  C_20
REMARK    2  A    between atoms: N_3  and  C_4
REMARK    3  A    between atoms: C_4  and  C_5
REMARK    4  A    between atoms: C_8  and  C_9
REMARK    5  A    between atoms: C_9  and  C_10
REMARK    6  A    between atoms: C_10  and  N_11
REMARK    7  A    between atoms: N_11  and  C_12
REMARK    8  A    between atoms: C_15  and  O_16
REMARK                            x       y       z     vdW  Elec       q    Type
REMARK                         _______ _______ _______ _____ _____    ______ ____
ROOT
ATOM      1  C   UNL     1      45.959   6.948  12.339  0.00  0.00    +0.000 A 
ATOM      2  C   UNL     1      46.424   6.625  11.060  0.00  0.00    +0.000 A 
ATOM      3  C   UNL     1      45.717   5.733  10.255  0.00  0.00    +0.000 A 
ATOM      4  C   UNL     1      44.536   5.128  10.712  0.00  0.00    +0.000 A 
ATOM      5  C   UNL     1      44.053   5.479  11.978  0.00  0.00    +0.000 A 
ATOM      6  C   UNL     1      44.754   6.387  12.781  0.00  0.00    +0.000 A 
ENDROOT
BRANCH   1   7
ATOM      7  C   UNL     1      46.726   7.925  13.193  0.00  0.00    +0.000 C 
BRANCH   7  10
ATOM      8  O   UNL     1      49.219   6.622  13.394  0.00  0.00    +0.000 OA
ATOM      9  C   UNL     1      48.516   6.726  14.394  0.00  0.00    +0.000 C 
ATOM     10  N   UNL     1      47.261   7.277  14.362  0.00  0.00    +0.000 N 
ATOM     11  H   UNL     1      46.809   7.516  15.236  0.00  0.00    +0.000 HD
BRANCH   9  12
ATOM     12  C   UNL     1      48.954   6.207  15.695  0.00  0.00    +0.000 A 
ATOM     13  C   UNL     1      49.977   6.845  16.385  0.00  0.00    +0.000 A 
ATOM     14  S   UNL     1      50.380   6.090  17.861  0.00  0.00    +0.000 S 
ATOM     15  C   UNL     1      49.166   4.914  17.654  0.00  0.00    +0.000 A 
ATOM     16  N   UNL     1      48.955   3.956  18.595  0.00  0.00    +0.000 NA
ATOM     17  C   UNL     1      47.972   3.159  18.335  0.00  0.00    +0.000 A 
ATOM     18  N   UNL     1      47.188   3.229  17.212  0.00  0.00    +0.000 N 
ATOM     19  C   UNL     1      47.416   4.125  16.201  0.00  0.00    +0.000 A 
ATOM     20  O   UNL     1      46.786   4.067  15.149  0.00  0.00    +0.000 OA
ATOM     21  C   UNL     1      48.479   5.079  16.465  0.00  0.00    +0.000 A 
ATOM     22  H   UNL     1      46.451   2.557  17.054  0.00  0.00    +0.000 HD
ENDBRANCH   9  12
ENDBRANCH   7  10
ENDBRANCH   1   7
BRANCH   4  23
ATOM     23  C   UNL     1      43.813   4.105   9.855  0.00  0.00    +0.000 C 
BRANCH  23  24
ATOM     24  C   UNL     1      44.297   2.680  10.176  0.00  0.00    +0.000 C 
BRANCH  24  25
ATOM     25  N   UNL     1      45.605   2.349   9.591  0.00  0.00    +0.000 NA
ATOM     26  H   UNL     1      46.031   1.581  10.109  0.00  0.00    +0.000 HD
BRANCH  25  27
ATOM     27  C   UNL     1      45.485   2.009   8.162  0.00  0.00    +0.000 C 
ATOM     28  C   UNL     1      45.451   3.297   7.301  0.00  0.00    +0.000 C 
ATOM     29  C   UNL     1      46.649   3.218   6.352  0.00  0.00    +0.000 C 
ATOM     30  C   UNL     1      47.609   2.276   7.055  0.00  0.00    +0.000 C 
ATOM     31  C   UNL     1      46.665   1.211   7.585  0.00  0.00    +0.000 C 
BRANCH  30  32
ATOM     32  O   UNL     1      48.583   1.743   6.182  0.00  0.00    +0.000 OA
ATOM     33  H   UNL     1      48.300   0.856   5.905  0.00  0.00    +0.000 HD
ENDBRANCH  30  32
ENDBRANCH  25  27
ENDBRANCH  24  25
ENDBRANCH  23  24
ENDBRANCH   4  23
TORSDOF 8
ENDMDL
MODEL 2
REMARK VINA RESULT:    -8.214      1.567      1.942
REMARK INTER + INTRA:         -12.723
REMARK INTER:                 -11.746
REMARK INTRA:                  -0.977
REMARK UNBOUND:                -0.908
REMARK  Name = 
REMARK  8 active torsions:
REMARK  status: ('A' for Active; 'I' for Inactive)
REMARK    1  A    between atoms: C_2  and  C_20
REMARK    2  A    between atoms: N_3  and  C_4
REMARK    3  A    between atoms: C_4  and  C_5
REMARK    4  A    between atoms: C_8  and  C_9
REMARK    5  A    between atoms: C_9  and  C_10
REMARK    6  A    between atoms: C_10  and  N_11
REMARK    7  A    between atoms: N_11  and  C_12
REMARK    8  A    between atoms: C_15  and  O_16
REMARK                            x       y       z     vdW  Elec       q    Type
REMARK                         _______ _______ _______ _____ _____    ______ ____
ROOT
ATOM      1  C   UNL     1      46.973   6.377  12.785  0.00  0.00    +0.000 A 
ATOM      2  C   UNL     1      46.217   5.446  13.503  0.00  0.00    +0.000 A 
ATOM      3  C   UNL     1      45.171   4.758  12.889  0.00  0.00    +0.000 A 
ATOM      4  C   UNL     1      44.844   4.995  11.544  0.00  0.00    +0.000 A 
ATOM      5  C   UNL     1      45.624   5.900  10.816  0.00  0.00    +0.000 A 
ATOM      6  C   UNL     1      46.684   6.579  11.429  0.00  0.00    +0.000 A 
ENDROOT
BRANCH   1   7
ATOM      7  C   UNL     1      48.109   7.103  13.458  0.00  0.00    +0.000 C 
BRANCH   7  10
ATOM      8  O   UNL     1      50.229   6.719  15.278  0.00  0.00    +0.000 OA
ATOM      9  C   UNL     1      49.094   6.895  15.710  0.00  0.00    +0.000 C 
ATOM     10  N   UNL     1      48.001   7.013  14.891  0.00  0.00    +0.000 N 
ATOM     11  H   UNL     1      47.130   7.350  15.282  0.00  0.00    +0.000 HD
BRANCH   9  12
ATOM     12  C   UNL     1      48.820   6.931  17.151  0.00  0.00    +0.000 A 
ATOM     13  C   UNL     1      48.428   8.122  17.751  0.00  0.00    +0.000 A 
ATOM     14  S   UNL     1      48.185   7.991  19.434  0.00  0.00    +0.000 S 
ATOM     15  C   UNL     1      48.545   6.327  19.413  0.00  0.00    +0.000 A 
ATOM     16  N   UNL     1      48.495   5.587  20.552  0.00  0.00    +0.000 NA
ATOM     17  C   UNL     1      48.743   4.330  20.385  0.00  0.00    +0.000 A 
ATOM     18  N   UNL     1      49.048   3.750  19.180  0.00  0.00    +0.000 N 
ATOM     19  C   UNL     1      49.189   4.470  18.023  0.00  0.00    +0.000 A 
ATOM     20  O   UNL     1      49.600   3.941  16.993  0.00  0.00    +0.000 OA
ATOM     21  C   UNL     1      48.871   5.882  18.144  0.00  0.00    +0.000 A 
ATOM     22  H   UNL     1      49.260   2.765  19.121  0.00  0.00    +0.000 HD
ENDBRANCH   9  12
ENDBRANCH   7  10
ENDBRANCH   1   7
BRANCH   4  23
ATOM     23  C   UNL     1      43.660   4.292  10.905  0.00  0.00    +0.000 C 
BRANCH  23  24
ATOM     24  C   UNL     1      43.945   2.791  10.724  0.00  0.00    +0.000 C 
BRANCH  24  25
ATOM     25  N   UNL     1      45.230   2.503  10.069  0.00  0.00    +0.000 NA
ATOM     26  H   UNL     1      45.713   1.756  10.568  0.00  0.00    +0.000 HD
BRANCH  25  27
ATOM     27  C   UNL     1      45.043   2.146   8.652  0.00  0.00    +0.000 C 
ATOM     28  C   UNL     1      45.154   3.407   7.758  0.00  0.00    +0.000 C 
ATOM     29  C   UNL     1      46.316   3.157   6.793  0.00  0.00    +0.000 C 
ATOM     30  C   UNL     1      47.164   2.120   7.508  0.00  0.00    +0.000 C 
ATOM     31  C   UNL     1      46.105   1.194   8.079  0.00  0.00    +0.000 C 
BRANCH  30  32
ATOM     32  O   UNL     1      48.049   1.449   6.634  0.00  0.00    +0.000 OA
ATOM     33  H   UNL     1      47.533   0.850   6.069  0.00  0.00    +0.000 HD
ENDBRANCH  30  32
ENDBRANCH  25  27
ENDBRANCH  24  25
ENDBRANCH  23  24
ENDBRANCH   4  23
TORSDOF 8
ENDMDL
MODEL 3
REMARK VINA RESULT:    -7.930      2.447      2.981
REMARK INTER + INTRA:         -12.314
REMARK INTER:                 -11.274
REMARK INTRA:                  -1.040
REMARK UNBOUND:                -0.908
REMARK  Name = 
REMARK  8 active torsions:
REMARK  status: ('A' for Active; 'I' for Inactive)
REMARK    1  A    between atoms: C_2  and  C_20
REMARK    2  A    between atoms: N_3  and  C_4
REMARK    3  A    between atoms: C_4  and  C_5
REMARK    4  A    between atoms: C_8  and  C_9
REMARK    5  A    between atoms: C_9  and  C_10
REMARK    6  A    between atoms: C_10  and  N_11
REMARK    7  A    between atoms: N_11  and  C_12
REMARK    8  A    between atoms: C_15  and  O_16
REMARK                            x       y       z     vdW  Elec       q    Type
REMARK                         _______ _______ _______ _____ _____    ______ ____
ROOT
ATOM      1  C   UNL     1      47.178   6.100  13.176  0.00  0.00    +0.000 A 
ATOM      2  C   UNL     1      46.445   5.021  13.680  0.00  0.00    +0.000 A 
ATOM      3  C   UNL     1      45.395   4.473  12.944  0.00  0.00    +0.000 A 
ATOM      4  C   UNL     1      45.040   4.999  11.692  0.00  0.00    +0.000 A 
ATOM      5  C   UNL     1      45.797   6.055  11.172  0.00  0.00    +0.000 A 
ATOM      6  C   UNL     1      46.861   6.596  11.904  0.00  0.00    +0.000 A 
ENDROOT
BRANCH   1   7
ATOM      7  C   UNL     1      48.319   6.674  13.976  0.00  0.00    +0.000 C 
BRANCH   7  10
ATOM      8  O   UNL     1      50.281   6.177  15.940  0.00  0.00    +0.000 OA
ATOM      9  C   UNL     1      49.115   6.337  16.286  0.00  0.00    +0.000 C 
ATOM     10  N   UNL     1      48.093   6.506  15.388  0.00  0.00    +0.000 N 
ATOM     11  H   UNL     1      47.194   6.828  15.724  0.00  0.00    +0.000 HD
BRANCH   9  12
ATOM     12  C   UNL     1      48.723   6.297  17.700  0.00  0.00    +0.000 A 
ATOM     13  C   UNL     1      48.867   5.121  18.424  0.00  0.00    +0.000 A 
ATOM     14  S   UNL     1      48.334   5.243  20.040  0.00  0.00    +0.000 S 
ATOM     15  C   UNL     1      47.940   6.888  19.843  0.00  0.00    +0.000 A 
ATOM     16  N   UNL     1      47.445   7.617  20.879  0.00  0.00    +0.000 NA
ATOM     17  C   UNL     1      47.236   8.862  20.605  0.00  0.00    +0.000 A 
ATOM     18  N   UNL     1      47.468   9.440  19.383  0.00  0.00    +0.000 N 
ATOM     19  C   UNL     1      47.889   8.728  18.291  0.00  0.00    +0.000 A 
ATOM     20  O   UNL     1      47.950   9.249  17.180  0.00  0.00    +0.000 OA
ATOM     21  C   UNL     1      48.188   7.332  18.556  0.00  0.00    +0.000 A 
ATOM     22  H   UNL     1      47.257  10.415  19.225  0.00  0.00    +0.000 HD
ENDBRANCH   9  12
ENDBRANCH   7  10
ENDBRANCH   1   7
BRANCH   4  23
ATOM     23  C   UNL     1      43.851   4.440  10.931  0.00  0.00    +0.000 C 
BRANCH  23  24
ATOM     24  C   UNL     1      44.007   2.926  10.708  0.00  0.00    +0.000 C 
BRANCH  24  25
ATOM     25  N   UNL     1      45.269   2.545  10.055  0.00  0.00    +0.000 NA
ATOM     26  H   UNL     1      45.708   1.783  10.571  0.00  0.00    +0.000 HD
BRANCH  25  27
ATOM     27  C   UNL     1      45.054   2.167   8.648  0.00  0.00    +0.000 C 
ATOM     28  C   UNL     1      45.163   3.411   7.731  0.00  0.00    +0.000 C 
ATOM     29  C   UNL     1      46.305   3.132   6.751  0.00  0.00    +0.000 C 
ATOM     30  C   UNL     1      47.155   2.098   7.469  0.00  0.00    +0.000 C 
ATOM     31  C   UNL     1      46.096   1.193   8.073  0.00  0.00    +0.000 C 
BRANCH  30  32
ATOM     32  O   UNL     1      48.018   1.403   6.592  0.00  0.00    +0.000 OA
ATOM     33  H   UNL     1      48.043   0.468   6.857  0.00  0.00    +0.000 HD
ENDBRANCH  30  32
ENDBRANCH  25  27
ENDBRANCH  24  25
ENDBRANCH  23  24
ENDBRANCH   4  23
TORSDOF 8
ENDMDL
MODEL 4
REMARK VINA RESULT:    -7.431      2.078      3.510
REMARK INTER + INTRA:         -11.597
REMARK INTER:                 -10.377
REMARK INTRA:                  -1.219
REMARK UNBOUND:                -0.908
REMARK  Name = 
REMARK  8 active torsions:
REMARK  status: ('A' for Active; 'I' for Inactive)
REMARK    1  A    between atoms: C_2  and  C_20
REMARK    2  A    between atoms: N_3  and  C_4
REMARK    3  A    between atoms: C_4  and  C_5
REMARK    4  A    between atoms: C_8  and  C_9
REMARK    5  A    between atoms: C_9  and  C_10
REMARK    6  A    between atoms: C_10  and  N_11
REMARK    7  A    between atoms: N_11  and  C_12
REMARK    8  A    between atoms: C_15  and  O_16
REMARK                            x       y       z     vdW  Elec       q    Type
REMARK                         _______ _______ _______ _____ _____    ______ ____
ROOT
ATOM      1  C   UNL     1      46.518   4.367  13.792  0.00  0.00    +0.000 A 
ATOM      2  C   UNL     1      45.880   3.357  13.065  0.00  0.00    +0.000 A 
ATOM      3  C   UNL     1      45.360   3.618  11.798  0.00  0.00    +0.000 A 
ATOM      4  C   UNL     1      45.452   4.898  11.230  0.00  0.00    +0.000 A 
ATOM      5  C   UNL     1      46.124   5.898  11.942  0.00  0.00    +0.000 A 
ATOM      6  C   UNL     1      46.658   5.633  13.208  0.00  0.00    +0.000 A 
ENDROOT
BRANCH   1   7
ATOM      7  C   UNL     1      47.087   4.068  15.155  0.00  0.00    +0.000 C 
BRANCH   7  10
ATOM      8  O   UNL     1      49.252   4.213  16.957  0.00  0.00    +0.000 OA
ATOM      9  C   UNL     1      48.716   5.251  16.579  0.00  0.00    +0.000 C 
ATOM     10  N   UNL     1      47.613   5.260  15.766  0.00  0.00    +0.000 N 
ATOM     11  H   UNL     1      47.334   6.131  15.330  0.00  0.00    +0.000 HD
BRANCH   9  12
ATOM     12  C   UNL     1      49.192   6.565  17.028  0.00  0.00    +0.000 A 
ATOM     13  C   UNL     1      49.153   6.890  18.379  0.00  0.00    +0.000 A 
ATOM     14  S   UNL     1      49.711   8.465  18.719  0.00  0.00    +0.000 S 
ATOM     15  C   UNL     1      50.073   8.750  17.079  0.00  0.00    +0.000 A 
ATOM     16  N   UNL     1      50.619   9.929  16.679  0.00  0.00    +0.000 NA
ATOM     17  C   UNL     1      50.888   9.993  15.417  0.00  0.00    +0.000 A 
ATOM     18  N   UNL     1      50.649   8.985  14.518  0.00  0.00    +0.000 N 
ATOM     19  C   UNL     1      50.028   7.813  14.862  0.00  0.00    +0.000 A 
ATOM     20  O   UNL     1      49.704   6.994  14.007  0.00  0.00    +0.000 OA
ATOM     21  C   UNL     1      49.750   7.668  16.280  0.00  0.00    +0.000 A 
ATOM     22  H   UNL     1      50.857   9.109  13.537  0.00  0.00    +0.000 HD
ENDBRANCH   9  12
ENDBRANCH   7  10
ENDBRANCH   1   7
BRANCH   4  23
ATOM     23  C   UNL     1      44.822   5.188   9.880  0.00  0.00    +0.000 C 
BRANCH  23  24
ATOM     24  C   UNL     1      44.110   3.941   9.327  0.00  0.00    +0.000 C 
BRANCH  24  25
ATOM     25  N   UNL     1      44.661   3.454   8.053  0.00  0.00    +0.000 NA
ATOM     26  H   UNL     1      44.529   4.159   7.328  0.00  0.00    +0.000 HD
BRANCH  25  27
ATOM     27  C   UNL     1      46.085   3.100   8.183  0.00  0.00    +0.000 C 
ATOM     28  C   UNL     1      46.272   1.565   8.084  0.00  0.00    +0.000 C 
ATOM     29  C   UNL     1      47.189   1.314   6.884  0.00  0.00    +0.000 C 
ATOM     30  C   UNL     1      47.013   2.554   6.027  0.00  0.00    +0.000 C 
ATOM     31  C   UNL     1      46.993   3.654   7.073  0.00  0.00    +0.000 C 
BRANCH  30  32
ATOM     32  O   UNL     1      48.060   2.721   5.094  0.00  0.00    +0.000 OA
ATOM     33  H   UNL     1      48.222   3.672   4.974  0.00  0.00    +0.000 HD
ENDBRANCH  30  32
ENDBRANCH  25  27
ENDBRANCH  24  25
ENDBRANCH  23  24
ENDBRANCH   4  23
TORSDOF 8
ENDMDL
MODEL 5
REMARK VINA RESULT:    -7.385      2.961      4.315
REMARK INTER + INTRA:         -11.531
REMARK INTER:                 -10.540
REMARK INTRA:                  -0.991
REMARK UNBOUND:                -0.908
REMARK  Name = 
REMARK  8 active torsions:
REMARK  status: ('A' for Active; 'I' for Inactive)
REMARK    1  A    between atoms: C_2  and  C_20
REMARK    2  A    between atoms: N_3  and  C_4
REMARK    3  A    between atoms: C_4  and  C_5
REMARK    4  A    between atoms: C_8  and  C_9
REMARK    5  A    between atoms: C_9  and  C_10
REMARK    6  A    between atoms: C_10  and  N_11
REMARK    7  A    between atoms: N_11  and  C_12
REMARK    8  A    between atoms: C_15  and  O_16
REMARK                            x       y       z     vdW  Elec       q    Type
REMARK                         _______ _______ _______ _____ _____    ______ ____
ROOT
ATOM      1  C   UNL     1      47.270   4.825  15.178  0.00  0.00    +0.000 A 
ATOM      2  C   UNL     1      47.934   6.006  14.834  0.00  0.00    +0.000 A 
ATOM      3  C   UNL     1      47.758   6.576  13.574  0.00  0.00    +0.000 A 
ATOM      4  C   UNL     1      46.925   5.972  12.619  0.00  0.00    +0.000 A 
ATOM      5  C   UNL     1      46.233   4.810  12.977  0.00  0.00    +0.000 A 
ATOM      6  C   UNL     1      46.398   4.246  14.247  0.00  0.00    +0.000 A 
ENDROOT
BRANCH   1   7
ATOM      7  C   UNL     1      47.460   4.227  16.548  0.00  0.00    +0.000 C 
BRANCH   7  10
ATOM      8  O   UNL     1      48.707   4.851  19.000  0.00  0.00    +0.000 OA
ATOM      9  C   UNL     1      49.372   4.344  18.102  0.00  0.00    +0.000 C 
ATOM     10  N   UNL     1      48.858   4.082  16.858  0.00  0.00    +0.000 N 
ATOM     11  H   UNL     1      49.384   3.491  16.226  0.00  0.00    +0.000 HD
BRANCH   9  12
ATOM     12  C   UNL     1      50.796   4.036  18.284  0.00  0.00    +0.000 A 
ATOM     13  C   UNL     1      51.624   4.949  18.925  0.00  0.00    +0.000 A 
ATOM     14  S   UNL     1      53.251   4.445  19.021  0.00  0.00    +0.000 S 
ATOM     15  C   UNL     1      52.895   2.966  18.254  0.00  0.00    +0.000 A 
ATOM     16  N   UNL     1      53.866   2.038  18.045  0.00  0.00    +0.000 NA
ATOM     17  C   UNL     1      53.449   0.943  17.499  0.00  0.00    +0.000 A 
ATOM     18  N   UNL     1      52.150   0.699  17.134  0.00  0.00    +0.000 N 
ATOM     19  C   UNL     1      51.157   1.636  17.253  0.00  0.00    +0.000 A 
ATOM     20  O   UNL     1      50.038   1.435  16.787  0.00  0.00    +0.000 OA
ATOM     21  C   UNL     1      51.560   2.868  17.908  0.00  0.00    +0.000 A 
ATOM     22  H   UNL     1      51.894  -0.168  16.685  0.00  0.00    +0.000 HD
ENDBRANCH   9  12
ENDBRANCH   7  10
ENDBRANCH   1   7
BRANCH   4  23
ATOM     23  C   UNL     1      46.795   6.563  11.227  0.00  0.00    +0.000 C 
BRANCH  23  24
ATOM     24  C   UNL     1      45.558   6.000  10.506  0.00  0.00    +0.000 C 
BRANCH  24  25
ATOM     25  N   UNL     1      45.853   5.392   9.200  0.00  0.00    +0.000 NA
ATOM     26  H   UNL     1      46.743   4.896   9.242  0.00  0.00    +0.000 HD
BRANCH  25  27
ATOM     27  C   UNL     1      44.773   4.487   8.771  0.00  0.00    +0.000 C 
ATOM     28  C   UNL     1      45.358   3.131   8.302  0.00  0.00    +0.000 C 
ATOM     29  C   UNL     1      44.751   2.057   9.208  0.00  0.00    +0.000 C 
ATOM     30  C   UNL     1      44.357   2.820  10.460  0.00  0.00    +0.000 C 
ATOM     31  C   UNL     1      43.779   4.097   9.877  0.00  0.00    +0.000 C 
BRANCH  30  32
ATOM     32  O   UNL     1      43.417   2.118  11.249  0.00  0.00    +0.000 OA
ATOM     33  H   UNL     1      42.920   1.511  10.675  0.00  0.00    +0.000 HD
ENDBRANCH  30  32
ENDBRANCH  25  27
ENDBRANCH  24  25
ENDBRANCH  23  24
ENDBRANCH   4  23
TORSDOF 8
ENDMDL
MODEL 6
REMARK VINA RESULT:    -7.215      1.660      2.464
REMARK INTER + INTRA:         -11.286
REMARK INTER:                 -10.229
REMARK INTRA:                  -1.058
REMARK UNBOUND:                -0.908
REMARK  Name = 
REMARK  8 active torsions:
REMARK  status: ('A' for Active; 'I' for Inactive)
REMARK    1  A    between atoms: C_2  and  C_20
REMARK    2  A    between atoms: N_3  and  C_4
REMARK    3  A    between atoms: C_4  and  C_5
REMARK    4  A    between atoms: C_8  and  C_9
REMARK    5  A    between atoms: C_9  and  C_10
REMARK    6  A    between atoms: C_10  and  N_11
REMARK    7  A    between atoms: N_11  and  C_12
REMARK    8  A    between atoms: C_15  and  O_16
REMARK                            x       y       z     vdW  Elec       q    Type
REMARK                         _______ _______ _______ _____ _____    ______ ____
ROOT
ATOM      1  C   UNL     1      47.812   7.877  12.910  0.00  0.00    +0.000 A 
ATOM      2  C   UNL     1      47.453   6.683  12.278  0.00  0.00    +0.000 A 
ATOM      3  C   UNL     1      46.183   6.530  11.722  0.00  0.00    +0.000 A 
ATOM      4  C   UNL     1      45.235   7.561  11.797  0.00  0.00    +0.000 A 
ATOM      5  C   UNL     1      45.607   8.769  12.397  0.00  0.00    +0.000 A 
ATOM      6  C   UNL     1      46.886   8.928  12.943  0.00  0.00    +0.000 A 
ENDROOT
BRANCH   1   7
ATOM      7  C   UNL     1      49.193   8.033  13.495  0.00  0.00    +0.000 C 
BRANCH   7  10
ATOM      8  O   UNL     1      48.569   8.604  16.185  0.00  0.00    +0.000 OA
ATOM      9  C   UNL     1      48.981   7.485  15.890  0.00  0.00    +0.000 C 
ATOM     10  N   UNL     1      49.377   7.154  14.621  0.00  0.00    +0.000 N 
ATOM     11  H   UNL     1      49.518   6.178  14.391  0.00  0.00    +0.000 HD
BRANCH   9  12
ATOM     12  C   UNL     1      49.134   6.434  16.903  0.00  0.00    +0.000 A 
ATOM     13  C   UNL     1      49.985   6.635  17.983  0.00  0.00    +0.000 A 
ATOM     14  S   UNL     1      50.068   5.301  19.043  0.00  0.00    +0.000 S 
ATOM     15  C   UNL     1      48.931   4.429  18.123  0.00  0.00    +0.000 A 
ATOM     16  N   UNL     1      48.528   3.187  18.505  0.00  0.00    +0.000 NA
ATOM     17  C   UNL     1      47.627   2.660  17.745  0.00  0.00    +0.000 A 
ATOM     18  N   UNL     1      47.100   3.261  16.629  0.00  0.00    +0.000 N 
ATOM     19  C   UNL     1      47.533   4.474  16.164  0.00  0.00    +0.000 A 
ATOM     20  O   UNL     1      47.141   4.916  15.087  0.00  0.00    +0.000 OA
ATOM     21  C   UNL     1      48.512   5.134  17.010  0.00  0.00    +0.000 A 
ATOM     22  H   UNL     1      46.416   2.783  16.061  0.00  0.00    +0.000 HD
ENDBRANCH   9  12
ENDBRANCH   7  10
ENDBRANCH   1   7
BRANCH   4  23
ATOM     23  C   UNL     1      43.833   7.359  11.250  0.00  0.00    +0.000 C 
BRANCH  23  24
ATOM     24  C   UNL     1      43.404   5.887  11.372  0.00  0.00    +0.000 C 
BRANCH  24  25
ATOM     25  N   UNL     1      43.478   5.136  10.110  0.00  0.00    +0.000 NA
ATOM     26  H   UNL     1      43.446   5.782   9.321  0.00  0.00    +0.000 HD
BRANCH  25  27
ATOM     27  C   UNL     1      44.691   4.302  10.050  0.00  0.00    +0.000 C 
ATOM     28  C   UNL     1      44.314   2.799  10.058  0.00  0.00    +0.000 C 
ATOM     29  C   UNL     1      44.864   2.205   8.759  0.00  0.00    +0.000 C 
ATOM     30  C   UNL     1      44.982   3.403   7.834  0.00  0.00    +0.000 C 
ATOM     31  C   UNL     1      45.527   4.465   8.771  0.00  0.00    +0.000 C 
BRANCH  30  32
ATOM     32  O   UNL     1      45.843   3.160   6.740  0.00  0.00    +0.000 OA
ATOM     33  H   UNL     1      45.637   3.796   6.035  0.00  0.00    +0.000 HD
ENDBRANCH  30  32
ENDBRANCH  25  27
ENDBRANCH  24  25
ENDBRANCH  23  24
ENDBRANCH   4  23
TORSDOF 8
ENDMDL
MODEL 7
REMARK VINA RESULT:    -7.194      2.816      8.291
REMARK INTER + INTRA:         -11.256
REMARK INTER:                  -9.809
REMARK INTRA:                  -1.447
REMARK UNBOUND:                -0.908
REMARK  Name = 
REMARK  8 active torsions:
REMARK  status: ('A' for Active; 'I' for Inactive)
REMARK    1  A    between atoms: C_2  and  C_20
REMARK    2  A    between atoms: N_3  and  C_4
REMARK    3  A    between atoms: C_4  and  C_5
REMARK    4  A    between atoms: C_8  and  C_9
REMARK    5  A    between atoms: C_9  and  C_10
REMARK    6  A    between atoms: C_10  and  N_11
REMARK    7  A    between atoms: N_11  and  C_12
REMARK    8  A    between atoms: C_15  and  O_16
REMARK                            x       y       z     vdW  Elec       q    Type
REMARK                         _______ _______ _______ _____ _____    ______ ____
ROOT
ATOM      1  C   UNL     1      48.367   7.989  13.185  0.00  0.00    +0.000 A 
ATOM      2  C   UNL     1      49.620   7.432  13.451  0.00  0.00    +0.000 A 
ATOM      3  C   UNL     1      50.195   7.552  14.716  0.00  0.00    +0.000 A 
ATOM      4  C   UNL     1      49.538   8.247  15.743  0.00  0.00    +0.000 A 
ATOM      5  C   UNL     1      48.267   8.774  15.487  0.00  0.00    +0.000 A 
ATOM      6  C   UNL     1      47.684   8.640  14.221  0.00  0.00    +0.000 A 
ENDROOT
BRANCH   1   7
ATOM      7  C   UNL     1      47.752   7.840  11.817  0.00  0.00    +0.000 C 
BRANCH   7  10
ATOM      8  O   UNL     1      44.956   7.595  12.094  0.00  0.00    +0.000 OA
ATOM      9  C   UNL     1      45.618   6.602  11.805  0.00  0.00    +0.000 C 
ATOM     10  N   UNL     1      46.987   6.623  11.727  0.00  0.00    +0.000 N 
ATOM     11  H   UNL     1      47.465   5.841  11.297  0.00  0.00    +0.000 HD
BRANCH   9  12
ATOM     12  C   UNL     1      44.984   5.298  11.579  0.00  0.00    +0.000 A 
ATOM     13  C   UNL     1      44.257   4.697  12.598  0.00  0.00    +0.000 A 
ATOM     14  S   UNL     1      43.618   3.173  12.175  0.00  0.00    +0.000 S 
ATOM     15  C   UNL     1      44.248   3.286  10.598  0.00  0.00    +0.000 A 
ATOM     16  N   UNL     1      44.035   2.298   9.688  0.00  0.00    +0.000 NA
ATOM     17  C   UNL     1      44.527   2.534   8.517  0.00  0.00    +0.000 A 
ATOM     18  N   UNL     1      45.223   3.666   8.178  0.00  0.00    +0.000 N 
ATOM     19  C   UNL     1      45.530   4.648   9.082  0.00  0.00    +0.000 A 
ATOM     20  O   UNL     1      46.273   5.578   8.779  0.00  0.00    +0.000 OA
ATOM     21  C   UNL     1      44.957   4.458  10.403  0.00  0.00    +0.000 A 
ATOM     22  H   UNL     1      45.606   3.777   7.250  0.00  0.00    +0.000 HD
ENDBRANCH   9  12
ENDBRANCH   7  10
ENDBRANCH   1   7
BRANCH   4  23
ATOM     23  C   UNL     1      50.202   8.433  17.095  0.00  0.00    +0.000 C 
BRANCH  23  24
ATOM     24  C   UNL     1      50.898   7.137  17.546  0.00  0.00    +0.000 C 
BRANCH  24  25
ATOM     25  N   UNL     1      49.984   6.136  18.117  0.00  0.00    +0.000 NA
ATOM     26  H   UNL     1      49.115   6.585  18.404  0.00  0.00    +0.000 HD
BRANCH  25  27
ATOM     27  C   UNL     1      49.716   5.045  17.163  0.00  0.00    +0.000 C 
ATOM     28  C   UNL     1      50.179   3.688  17.750  0.00  0.00    +0.000 C 
ATOM     29  C   UNL     1      48.936   2.797  17.818  0.00  0.00    +0.000 C 
ATOM     30  C   UNL     1      47.783   3.783  17.853  0.00  0.00    +0.000 C 
ATOM     31  C   UNL     1      48.231   4.820  16.838  0.00  0.00    +0.000 C 
BRANCH  30  32
ATOM     32  O   UNL     1      46.550   3.189  17.504  0.00  0.00    +0.000 OA
ATOM     33  H   UNL     1      46.528   3.061  16.541  0.00  0.00    +0.000 HD
ENDBRANCH  30  32
ENDBRANCH  25  27
ENDBRANCH  24  25
ENDBRANCH  23  24
ENDBRANCH   4  23
TORSDOF 8
ENDMDL
MODEL 8
REMARK VINA RESULT:    -7.150      4.476      9.059
REMARK INTER + INTRA:         -11.192
REMARK INTER:                 -10.139
REMARK INTRA:                  -1.053
REMARK UNBOUND:                -0.908
REMARK  Name = 
REMARK  8 active torsions:
REMARK  status: ('A' for Active; 'I' for Inactive)
REMARK    1  A    between atoms: C_2  and  C_20
REMARK    2  A    between atoms: N_3  and  C_4
REMARK    3  A    between atoms: C_4  and  C_5
REMARK    4  A    between atoms: C_8  and  C_9
REMARK    5  A    between atoms: C_9  and  C_10
REMARK    6  A    between atoms: C_10  and  N_11
REMARK    7  A    between atoms: N_11  and  C_12
REMARK    8  A    between atoms: C_15  and  O_16
REMARK                            x       y       z     vdW  Elec       q    Type
REMARK                         _______ _______ _______ _____ _____    ______ ____
ROOT
ATOM      1  C   UNL     1      48.586   3.633  17.099  0.00  0.00    +0.000 A 
ATOM      2  C   UNL     1      49.407   2.502  17.055  0.00  0.00    +0.000 A 
ATOM      3  C   UNL     1      50.767   2.602  17.349  0.00  0.00    +0.000 A 
ATOM      4  C   UNL     1      51.344   3.838  17.679  0.00  0.00    +0.000 A 
ATOM      5  C   UNL     1      50.515   4.963  17.758  0.00  0.00    +0.000 A 
ATOM      6  C   UNL     1      49.147   4.860  17.478  0.00  0.00    +0.000 A 
ENDROOT
BRANCH   1   7
ATOM      7  C   UNL     1      47.116   3.507  16.793  0.00  0.00    +0.000 C 
BRANCH   7  10
ATOM      8  O   UNL     1      47.209   3.131  13.999  0.00  0.00    +0.000 OA
ATOM      9  C   UNL     1      46.728   4.168  14.448  0.00  0.00    +0.000 C 
ATOM     10  N   UNL     1      46.717   4.458  15.787  0.00  0.00    +0.000 N 
ATOM     11  H   UNL     1      46.140   5.222  16.118  0.00  0.00    +0.000 HD
BRANCH   9  12
ATOM     12  C   UNL     1      46.182   5.204  13.563  0.00  0.00    +0.000 A 
ATOM     13  C   UNL     1      46.952   6.315  13.243  0.00  0.00    +0.000 A 
ATOM     14  S   UNL     1      46.152   7.433  12.233  0.00  0.00    +0.000 S 
ATOM     15  C   UNL     1      44.767   6.446  12.147  0.00  0.00    +0.000 A 
ATOM     16  N   UNL     1      43.690   6.817  11.403  0.00  0.00    +0.000 NA
ATOM     17  C   UNL     1      42.729   5.954  11.387  0.00  0.00    +0.000 A 
ATOM     18  N   UNL     1      42.744   4.757  12.058  0.00  0.00    +0.000 N 
ATOM     19  C   UNL     1      43.772   4.381  12.882  0.00  0.00    +0.000 A 
ATOM     20  O   UNL     1      43.689   3.371  13.576  0.00  0.00    +0.000 OA
ATOM     21  C   UNL     1      44.902   5.292  12.898  0.00  0.00    +0.000 A 
ATOM     22  H   UNL     1      41.947   4.138  12.026  0.00  0.00    +0.000 HD
ENDBRANCH   9  12
ENDBRANCH   7  10
ENDBRANCH   1   7
BRANCH   4  23
ATOM     23  C   UNL     1      52.837   3.948  17.928  0.00  0.00    +0.000 C 
BRANCH  23  24
ATOM     24  C   UNL     1      53.265   3.044  19.097  0.00  0.00    +0.000 C 
BRANCH  24  25
ATOM     25  N   UNL     1      54.373   2.133  18.772  0.00  0.00    +0.000 NA
ATOM     26  H   UNL     1      54.376   1.346  19.421  0.00  0.00    +0.000 HD
BRANCH  25  27
ATOM     27  C   UNL     1      54.287   1.657  17.379  0.00  0.00    +0.000 C 
ATOM     28  C   UNL     1      55.705   1.417  16.802  0.00  0.00    +0.000 C 
ATOM     29  C   UNL     1      55.771  -0.061  16.412  0.00  0.00    +0.000 C 
ATOM     30  C   UNL     1      54.706  -0.713  17.275  0.00  0.00    +0.000 C 
ATOM     31  C   UNL     1      53.581   0.304  17.200  0.00  0.00    +0.000 C 
BRANCH  30  32
ATOM     32  O   UNL     1      54.316  -1.981  16.790  0.00  0.00    +0.000 OA
ATOM     33  H   UNL     1      53.404  -2.157  17.077  0.00  0.00    +0.000 HD
ENDBRANCH  30  32
ENDBRANCH  25  27
ENDBRANCH  24  25
ENDBRANCH  23  24
ENDBRANCH   4  23
TORSDOF 8
ENDMDL
MODEL 9
REMARK VINA RESULT:    -7.027      3.160      5.282
REMARK INTER + INTRA:         -11.016
REMARK INTER:                  -9.922
REMARK INTRA:                  -1.094
REMARK UNBOUND:                -0.908
REMARK  Name = 
REMARK  8 active torsions:
REMARK  status: ('A' for Active; 'I' for Inactive)
REMARK    1  A    between atoms: C_2  and  C_20
REMARK    2  A    between atoms: N_3  and  C_4
REMARK    3  A    between atoms: C_4  and  C_5
REMARK    4  A    between atoms: C_8  and  C_9
REMARK    5  A    between atoms: C_9  and  C_10
REMARK    6  A    between atoms: C_10  and  N_11
REMARK    7  A    between atoms: N_11  and  C_12
REMARK    8  A    between atoms: C_15  and  O_16
REMARK                            x       y       z     vdW  Elec       q    Type
REMARK                         _______ _______ _______ _____ _____    ______ ____
ROOT
ATOM      1  C   UNL     1      47.699   4.434  16.144  0.00  0.00    +0.000 A 
ATOM      2  C   UNL     1      48.288   5.699  16.058  0.00  0.00    +0.000 A 
ATOM      3  C   UNL     1      48.218   6.434  14.875  0.00  0.00    +0.000 A 
ATOM      4  C   UNL     1      47.572   5.917  13.742  0.00  0.00    +0.000 A 
ATOM      5  C   UNL     1      46.951   4.667  13.839  0.00  0.00    +0.000 A 
ATOM      6  C   UNL     1      47.008   3.935  15.031  0.00  0.00    +0.000 A 
ENDROOT
BRANCH   1   7
ATOM      7  C   UNL     1      47.770   3.657  17.433  0.00  0.00    +0.000 C 
BRANCH   7  10
ATOM      8  O   UNL     1      49.373   1.725  16.148  0.00  0.00    +0.000 OA
ATOM      9  C   UNL     1      49.865   2.417  17.035  0.00  0.00    +0.000 C 
ATOM     10  N   UNL     1      49.132   3.323  17.758  0.00  0.00    +0.000 N 
ATOM     11  H   UNL     1      49.620   3.999  18.333  0.00  0.00    +0.000 HD
BRANCH   9  12
ATOM     12  C   UNL     1      51.272   2.275  17.425  0.00  0.00    +0.000 A 
ATOM     13  C   UNL     1      51.834   1.010  17.538  0.00  0.00    +0.000 A 
ATOM     14  S   UNL     1      53.467   1.029  18.032  0.00  0.00    +0.000 S 
ATOM     15  C   UNL     1      53.495   2.732  18.063  0.00  0.00    +0.000 A 
ATOM     16  N   UNL     1      54.630   3.406  18.389  0.00  0.00    +0.000 NA
ATOM     17  C   UNL     1      54.524   4.692  18.325  0.00  0.00    +0.000 A 
ATOM     18  N   UNL     1      53.381   5.364  17.974  0.00  0.00    +0.000 N 
ATOM     19  C   UNL     1      52.195   4.728  17.716  0.00  0.00    +0.000 A 
ATOM     20  O   UNL     1      51.159   5.366  17.544  0.00  0.00    +0.000 OA
ATOM     21  C   UNL     1      52.269   3.278  17.725  0.00  0.00    +0.000 A 
ATOM     22  H   UNL     1      53.357   6.373  17.970  0.00  0.00    +0.000 HD
ENDBRANCH   9  12
ENDBRANCH   7  10
ENDBRANCH   1   7
BRANCH   4  23
ATOM     23  C   UNL     1      47.562   6.695  12.439  0.00  0.00    +0.000 C 
BRANCH  23  24
ATOM     24  C   UNL     1      46.151   6.721  11.826  0.00  0.00    +0.000 C 
BRANCH  24  25
ATOM     25  N   UNL     1      46.010   5.896  10.616  0.00  0.00    +0.000 NA
ATOM     26  H   UNL     1      46.708   5.153  10.621  0.00  0.00    +0.000 HD
BRANCH  25  27
ATOM     27  C   UNL     1      44.653   5.335  10.503  0.00  0.00    +0.000 C 
ATOM     28  C   UNL     1      44.626   4.192   9.457  0.00  0.00    +0.000 C 
ATOM     29  C   UNL     1      44.172   2.933  10.198  0.00  0.00    +0.000 C 
ATOM     30  C   UNL     1      44.523   3.218  11.647  0.00  0.00    +0.000 C 
ATOM     31  C   UNL     1      44.117   4.675  11.784  0.00  0.00    +0.000 C 
BRANCH  30  32
ATOM     32  O   UNL     1      43.827   2.381  12.549  0.00  0.00    +0.000 OA
ATOM     33  H   UNL     1      44.371   1.596  12.727  0.00  0.00    +0.000 HD
ENDBRANCH  30  32
ENDBRANCH  25  27
ENDBRANCH  24  25
ENDBRANCH  23  24
ENDBRANCH   4  23
TORSDOF 8
ENDMDL
