MODEL 1
REMARK VINA RESULT:    -8.120      0.000      0.000
REMARK INTER + INTRA:         -11.880
REMARK INTER:                 -11.442
REMARK INTRA:                  -0.438
REMARK UNBOUND:                -0.438
REMARK  Name = 
REMARK  9 active torsions:
REMARK  status: ('A' for Active; 'I' for Inactive)
REMARK    1  A    between atoms: C_1  and  O_2
REMARK    2  A    between atoms: O_2  and  C_3
REMARK    3  A    between atoms: C_10  and  C_11
REMARK    4  A    between atoms: N_13  and  C_14
REMARK    5  A    between atoms: C_14  and  C_15
REMARK    6  A    between atoms: C_18  and  N_19
REMARK    7  A    between atoms: N_19  and  C_20
REMARK    8  A    between atoms: C_20  and  C_21
REMARK    9  A    between atoms: C_25  and  C_26
REMARK                            x       y       z     vdW  Elec       q    Type
REMARK                         _______ _______ _______ _____ _____    ______ ____
ROOT
ATOM      1  C   UNL     1      46.406   8.074  13.028  0.00  0.00    +0.000 A 
ATOM      2  C   UNL     1      45.657   8.765  12.063  0.00  0.00    +0.000 A 
ATOM      3  C   UNL     1      44.632   8.129  11.343  0.00  0.00    +0.000 A 
ATOM      4  C   UNL     1      44.342   6.776  11.552  0.00  0.00    +0.000 A 
ATOM      5  C   UNL     1      45.095   6.093  12.515  0.00  0.00    +0.000 A 
ATOM      6  C   UNL     1      46.121   6.719  13.235  0.00  0.00    +0.000 A 
ENDROOT
BRANCH   4   7
ATOM      7  N   UNL     1      43.266   6.100  10.972  0.00  0.00    +0.000 N 
ATOM      8  H   UNL     1      42.635   6.789  10.545  0.00  0.00    +0.000 HD
BRANCH   7   9
ATOM      9  C   UNL     1      43.502   4.972  10.070  0.00  0.00    +0.000 C 
BRANCH   9  10
ATOM     10  C   UNL     1      44.969   4.509  10.247  0.00  0.00    +0.000 C 
ATOM     11  C   UNL     1      45.847   4.847   9.028  0.00  0.00    +0.000 C 
ATOM     12  C   UNL     1      45.603   3.913   7.846  0.00  0.00    +0.000 C 
ATOM     13  N   UNL     1      45.812   2.523   8.246  0.00  0.00    +0.000 N 
ATOM     14  C   UNL     1      46.585   1.580   7.584  0.00  0.00    +0.000 C 
ATOM     15  C   UNL     1      47.366   1.961   6.347  0.00  0.00    +0.000 C 
ATOM     16  O   UNL     1      46.670   0.413   7.981  0.00  0.00    +0.000 OA
ATOM     17  C   UNL     1      44.980   2.081   9.364  0.00  0.00    +0.000 C 
ATOM     18  C   UNL     1      45.090   3.009  10.575  0.00  0.00    +0.000 C 
ENDBRANCH   9  10
ENDBRANCH   7   9
ENDBRANCH   4   7
BRANCH   1  19
ATOM     19  C   UNL     1      47.455   8.786  13.846  0.00  0.00    +0.000 C 
BRANCH  19  22
ATOM     20  C   UNL     1      48.971   7.158  14.922  0.00  0.00    +0.000 C 
ATOM     21  O   UNL     1      49.591   6.988  13.873  0.00  0.00    +0.000 OA
ATOM     22  N   UNL     1      47.893   8.004  14.982  0.00  0.00    +0.000 N 
ATOM     23  H   UNL     1      47.413   8.140  15.861  0.00  0.00    +0.000 HD
BRANCH  20  31
ATOM     24  C   UNL     1      47.743   4.380  16.578  0.00  0.00    +0.000 A 
ATOM     25  N   UNL     1      47.466   3.369  17.429  0.00  0.00    +0.000 NA
ATOM     26  C   UNL     1      48.251   3.210  18.497  0.00  0.00    +0.000 A 
ATOM     27  N   UNL     1      49.298   3.954  18.832  0.00  0.00    +0.000 NA
ATOM     28  C   UNL     1      49.527   4.962  17.973  0.00  0.00    +0.000 A 
ATOM     29  S   UNL     1      50.828   6.013  18.253  0.00  0.00    +0.000 S 
ATOM     30  C   UNL     1      50.462   6.912  16.860  0.00  0.00    +0.000 A 
ATOM     31  C   UNL     1      49.361   6.440  16.153  0.00  0.00    +0.000 A 
ATOM     32  C   UNL     1      48.803   5.269  16.823  0.00  0.00    +0.000 A 
BRANCH  24  34
ATOM     33  C   UNL     1      47.269   3.546  14.462  0.00  0.00    +0.000 C 
ATOM     34  O   UNL     1      46.945   4.515  15.459  0.00  0.00    +0.000 OA
ENDBRANCH  24  34
ENDBRANCH  20  31
ENDBRANCH  19  22
ENDBRANCH   1  19
TORSDOF 7
ENDMDL
MODEL 2
REMARK VINA RESULT:    -7.910      1.676      2.119
REMARK INTER + INTRA:         -11.585
REMARK INTER:                 -10.384
REMARK INTRA:                  -1.201
REMARK UNBOUND:                -0.438
REMARK  Name = 
REMARK  9 active torsions:
REMARK  status: ('A' for Active; 'I' for Inactive)
REMARK    1  A    between atoms: C_1  and  O_2
REMARK    2  A    between atoms: O_2  and  C_3
REMARK    3  A    between atoms: C_10  and  C_11
REMARK    4  A    between atoms: N_13  and  C_14
REMARK    5  A    between atoms: C_14  and  C_15
REMARK    6  A    between atoms: C_18  and  N_19
REMARK    7  A    between atoms: N_19  and  C_20
REMARK    8  A    between atoms: C_20  and  C_21
REMARK    9  A    between atoms: C_25  and  C_26
REMARK                            x       y       z     vdW  Elec       q    Type
REMARK                         _______ _______ _______ _____ _____    ______ ____
ROOT
ATOM      1  C   UNL     1      47.026   7.105  13.288  0.00  0.00    +0.000 A 
ATOM      2  C   UNL     1      45.828   7.562  12.720  0.00  0.00    +0.000 A 
ATOM      3  C   UNL     1      44.857   6.666  12.244  0.00  0.00    +0.000 A 
ATOM      4  C   UNL     1      45.067   5.284  12.303  0.00  0.00    +0.000 A 
ATOM      5  C   UNL     1      46.266   4.834  12.870  0.00  0.00    +0.000 A 
ATOM      6  C   UNL     1      47.241   5.723  13.343  0.00  0.00    +0.000 A 
ENDROOT
BRANCH   4   7
ATOM      7  N   UNL     1      44.109   4.324  11.969  0.00  0.00    +0.000 N 
ATOM      8  H   UNL     1      43.372   4.773  11.412  0.00  0.00    +0.000 HD
BRANCH   7   9
ATOM      9  C   UNL     1      44.517   3.050  11.374  0.00  0.00    +0.000 C 
BRANCH   9  10
ATOM     10  C   UNL     1      43.961   2.989   9.930  0.00  0.00    +0.000 C 
ATOM     11  C   UNL     1      44.465   1.757   9.155  0.00  0.00    +0.000 C 
ATOM     12  C   UNL     1      45.908   1.903   8.686  0.00  0.00    +0.000 C 
ATOM     13  N   UNL     1      46.058   3.106   7.869  0.00  0.00    +0.000 N 
ATOM     14  C   UNL     1      46.667   3.190   6.625  0.00  0.00    +0.000 C 
ATOM     15  C   UNL     1      47.207   1.950   5.951  0.00  0.00    +0.000 C 
ATOM     16  O   UNL     1      46.779   4.265   6.027  0.00  0.00    +0.000 OA
ATOM     17  C   UNL     1      45.662   4.346   8.536  0.00  0.00    +0.000 C 
ATOM     18  C   UNL     1      44.250   4.267   9.121  0.00  0.00    +0.000 C 
ENDBRANCH   9  10
ENDBRANCH   7   9
ENDBRANCH   4   7
BRANCH   1  19
ATOM     19  C   UNL     1      48.029   8.075  13.861  0.00  0.00    +0.000 C 
BRANCH  19  22
ATOM     20  C   UNL     1      49.191   7.279  15.891  0.00  0.00    +0.000 C 
ATOM     21  O   UNL     1      50.042   6.696  15.219  0.00  0.00    +0.000 OA
ATOM     22  N   UNL     1      48.156   7.954  15.297  0.00  0.00    +0.000 N 
ATOM     23  H   UNL     1      47.481   8.440  15.871  0.00  0.00    +0.000 HD
BRANCH  20  31
ATOM     24  C   UNL     1      48.816   4.796  18.271  0.00  0.00    +0.000 A 
ATOM     25  N   UNL     1      48.691   4.053  19.391  0.00  0.00    +0.000 NA
ATOM     26  C   UNL     1      48.856   4.657  20.571  0.00  0.00    +0.000 A 
ATOM     27  N   UNL     1      49.132   5.939  20.776  0.00  0.00    +0.000 NA
ATOM     28  C   UNL     1      49.225   6.648  19.638  0.00  0.00    +0.000 A 
ATOM     29  S   UNL     1      49.572   8.306  19.719  0.00  0.00    +0.000 S 
ATOM     30  C   UNL     1      49.520   8.447  18.027  0.00  0.00    +0.000 A 
ATOM     31  C   UNL     1      49.250   7.253  17.366  0.00  0.00    +0.000 A 
ATOM     32  C   UNL     1      49.075   6.175  18.336  0.00  0.00    +0.000 A 
BRANCH  24  34
ATOM     33  C   UNL     1      47.308   4.065  16.661  0.00  0.00    +0.000 C 
ATOM     34  O   UNL     1      48.677   4.155  17.056  0.00  0.00    +0.000 OA
ENDBRANCH  24  34
ENDBRANCH  20  31
ENDBRANCH  19  22
ENDBRANCH   1  19
TORSDOF 7
ENDMDL
MODEL 3
REMARK VINA RESULT:    -7.797      1.936      2.511
REMARK INTER + INTRA:         -11.426
REMARK INTER:                 -10.284
REMARK INTRA:                  -1.141
REMARK UNBOUND:                -0.438
REMARK  Name = 
REMARK  9 active torsions:
REMARK  status: ('A' for Active; 'I' for Inactive)
REMARK    1  A    between atoms: C_1  and  O_2
REMARK    2  A    between atoms: O_2  and  C_3
REMARK    3  A    between atoms: C_10  and  C_11
REMARK    4  A    between atoms: N_13  and  C_14
REMARK    5  A    between atoms: C_14  and  C_15
REMARK    6  A    between atoms: C_18  and  N_19
REMARK    7  A    between atoms: N_19  and  C_20
REMARK    8  A    between atoms: C_20  and  C_21
REMARK    9  A    between atoms: C_25  and  C_26
REMARK                            x       y       z     vdW  Elec       q    Type
REMARK                         _______ _______ _______ _____ _____    ______ ____
ROOT
ATOM      1  C   UNL     1      47.405   6.852  13.886  0.00  0.00    +0.000 A 
ATOM      2  C   UNL     1      47.388   5.453  13.988  0.00  0.00    +0.000 A 
ATOM      3  C   UNL     1      46.397   4.688  13.351  0.00  0.00    +0.000 A 
ATOM      4  C   UNL     1      45.381   5.303  12.611  0.00  0.00    +0.000 A 
ATOM      5  C   UNL     1      45.404   6.700  12.515  0.00  0.00    +0.000 A 
ATOM      6  C   UNL     1      46.388   7.470  13.150  0.00  0.00    +0.000 A 
ENDROOT
BRANCH   4   7
ATOM      7  N   UNL     1      44.434   4.617  11.848  0.00  0.00    +0.000 N 
ATOM      8  H   UNL     1      44.105   5.235  11.095  0.00  0.00    +0.000 HD
BRANCH   7   9
ATOM      9  C   UNL     1      44.728   3.277  11.338  0.00  0.00    +0.000 C 
BRANCH   9  10
ATOM     10  C   UNL     1      44.109   3.148   9.925  0.00  0.00    +0.000 C 
ATOM     11  C   UNL     1      44.563   1.870   9.195  0.00  0.00    +0.000 C 
ATOM     12  C   UNL     1      45.986   1.971   8.656  0.00  0.00    +0.000 C 
ATOM     13  N   UNL     1      46.114   3.128   7.772  0.00  0.00    +0.000 N 
ATOM     14  C   UNL     1      46.669   3.138   6.500  0.00  0.00    +0.000 C 
ATOM     15  C   UNL     1      47.164   1.857   5.869  0.00  0.00    +0.000 C 
ATOM     16  O   UNL     1      46.767   4.179   5.841  0.00  0.00    +0.000 OA
ATOM     17  C   UNL     1      45.762   4.406   8.389  0.00  0.00    +0.000 C 
ATOM     18  C   UNL     1      44.377   4.378   9.038  0.00  0.00    +0.000 C 
ENDBRANCH   9  10
ENDBRANCH   7   9
ENDBRANCH   4   7
BRANCH   1  19
ATOM     19  C   UNL     1      48.516   7.658  14.515  0.00  0.00    +0.000 C 
BRANCH  19  22
ATOM     20  C   UNL     1      49.474   6.536  16.496  0.00  0.00    +0.000 C 
ATOM     21  O   UNL     1      48.616   7.022  17.232  0.00  0.00    +0.000 OA
ATOM     22  N   UNL     1      49.508   6.823  15.156  0.00  0.00    +0.000 N 
ATOM     23  H   UNL     1      50.212   6.396  14.570  0.00  0.00    +0.000 HD
BRANCH  20  31
ATOM     24  C   UNL     1      49.733   3.105  16.860  0.00  0.00    +0.000 A 
ATOM     25  N   UNL     1      50.084   1.834  17.146  0.00  0.00    +0.000 NA
ATOM     26  C   UNL     1      51.273   1.620  17.716  0.00  0.00    +0.000 A 
ATOM     27  N   UNL     1      52.172   2.538  18.047  0.00  0.00    +0.000 NA
ATOM     28  C   UNL     1      51.776   3.792  17.767  0.00  0.00    +0.000 A 
ATOM     29  S   UNL     1      52.806   5.089  18.128  0.00  0.00    +0.000 S 
ATOM     30  C   UNL     1      51.679   6.210  17.530  0.00  0.00    +0.000 A 
ATOM     31  C   UNL     1      50.511   5.636  17.041  0.00  0.00    +0.000 A 
ATOM     32  C   UNL     1      50.573   4.184  17.184  0.00  0.00    +0.000 A 
BRANCH  24  34
ATOM     33  C   UNL     1      47.430   3.188  17.158  0.00  0.00    +0.000 C 
ATOM     34  O   UNL     1      48.516   3.311  16.240  0.00  0.00    +0.000 OA
ENDBRANCH  24  34
ENDBRANCH  20  31
ENDBRANCH  19  22
ENDBRANCH   1  19
TORSDOF 7
ENDMDL
MODEL 4
REMARK VINA RESULT:    -7.281      3.310      7.828
REMARK INTER + INTRA:         -10.699
REMARK INTER:                  -9.411
REMARK INTRA:                  -1.288
REMARK UNBOUND:                -0.438
REMARK  Name = 
REMARK  9 active torsions:
REMARK  status: ('A' for Active; 'I' for Inactive)
REMARK    1  A    between atoms: C_1  and  O_2
REMARK    2  A    between atoms: O_2  and  C_3
REMARK    3  A    between atoms: C_10  and  C_11
REMARK    4  A    between atoms: N_13  and  C_14
REMARK    5  A    between atoms: C_14  and  C_15
REMARK    6  A    between atoms: C_18  and  N_19
REMARK    7  A    between atoms: N_19  and  C_20
REMARK    8  A    between atoms: C_20  and  C_21
REMARK    9  A    between atoms: C_25  and  C_26
REMARK                            x       y       z     vdW  Elec       q    Type
REMARK                         _______ _______ _______ _____ _____    ______ ____
ROOT
ATOM      1  C   UNL     1      48.842   8.026  13.617  0.00  0.00    +0.000 A 
ATOM      2  C   UNL     1      49.925   7.393  14.245  0.00  0.00    +0.000 A 
ATOM      3  C   UNL     1      50.016   7.322  15.645  0.00  0.00    +0.000 A 
ATOM      4  C   UNL     1      49.035   7.902  16.457  0.00  0.00    +0.000 A 
ATOM      5  C   UNL     1      47.958   8.533  15.823  0.00  0.00    +0.000 A 
ATOM      6  C   UNL     1      47.863   8.611  14.427  0.00  0.00    +0.000 A 
ENDROOT
BRANCH   4   7
ATOM      7  N   UNL     1      48.983   7.772  17.847  0.00  0.00    +0.000 N 
ATOM      8  H   UNL     1      48.067   7.386  18.108  0.00  0.00    +0.000 HD
BRANCH   7   9
ATOM      9  C   UNL     1      50.064   7.096  18.566  0.00  0.00    +0.000 C 
BRANCH   9  10
ATOM     10  C   UNL     1      49.517   5.757  19.118  0.00  0.00    +0.000 C 
ATOM     11  C   UNL     1      50.639   4.783  19.525  0.00  0.00    +0.000 C 
ATOM     12  C   UNL     1      51.306   4.116  18.327  0.00  0.00    +0.000 C 
ATOM     13  N   UNL     1      50.310   3.423  17.512  0.00  0.00    +0.000 N 
ATOM     14  C   UNL     1      50.383   2.117  17.050  0.00  0.00    +0.000 C 
ATOM     15  C   UNL     1      51.551   1.235  17.427  0.00  0.00    +0.000 C 
ATOM     16  O   UNL     1      49.504   1.630  16.331  0.00  0.00    +0.000 OA
ATOM     17  C   UNL     1      49.226   4.275  17.022  0.00  0.00    +0.000 C 
ATOM     18  C   UNL     1      48.547   5.058  18.148  0.00  0.00    +0.000 C 
ENDBRANCH   9  10
ENDBRANCH   7   9
ENDBRANCH   4   7
BRANCH   1  19
ATOM     19  C   UNL     1      48.719   8.033  12.112  0.00  0.00    +0.000 C 
BRANCH  19  22
ATOM     20  C   UNL     1      46.555   7.035  11.459  0.00  0.00    +0.000 C 
ATOM     21  O   UNL     1      45.947   8.056  11.778  0.00  0.00    +0.000 OA
ATOM     22  N   UNL     1      47.913   6.937  11.620  0.00  0.00    +0.000 N 
ATOM     23  H   UNL     1      48.392   6.094  11.333  0.00  0.00    +0.000 HD
BRANCH  20  31
ATOM     24  C   UNL     1      44.749   4.438  12.860  0.00  0.00    +0.000 A 
ATOM     25  N   UNL     1      44.035   3.324  13.128  0.00  0.00    +0.000 NA
ATOM     26  C   UNL     1      43.624   2.575  12.101  0.00  0.00    +0.000 A 
ATOM     27  N   UNL     1      43.847   2.802  10.812  0.00  0.00    +0.000 NA
ATOM     28  C   UNL     1      44.580   3.907  10.589  0.00  0.00    +0.000 A 
ATOM     29  S   UNL     1      44.959   4.345   8.995  0.00  0.00    +0.000 S 
ATOM     30  C   UNL     1      45.819   5.710   9.526  0.00  0.00    +0.000 A 
ATOM     31  C   UNL     1      45.834   5.870  10.907  0.00  0.00    +0.000 A 
ATOM     32  C   UNL     1      45.088   4.787  11.542  0.00  0.00    +0.000 A 
BRANCH  24  34
ATOM     33  C   UNL     1      46.435   4.859  14.402  0.00  0.00    +0.000 C 
ATOM     34  O   UNL     1      45.139   5.222  13.927  0.00  0.00    +0.000 OA
ENDBRANCH  24  34
ENDBRANCH  20  31
ENDBRANCH  19  22
ENDBRANCH   1  19
TORSDOF 7
ENDMDL
MODEL 5
REMARK VINA RESULT:    -6.988      5.539      7.339
REMARK INTER + INTRA:         -10.286
REMARK INTER:                  -9.037
REMARK INTRA:                  -1.248
REMARK UNBOUND:                -0.438
REMARK  Name = 
REMARK  9 active torsions:
REMARK  status: ('A' for Active; 'I' for Inactive)
REMARK    1  A    between atoms: C_1  and  O_2
REMARK    2  A    between atoms: O_2  and  C_3
REMARK    3  A    between atoms: C_10  and  C_11
REMARK    4  A    between atoms: N_13  and  C_14
REMARK    5  A    between atoms: C_14  and  C_15
REMARK    6  A    between atoms: C_18  and  N_19
REMARK    7  A    between atoms: N_19  and  C_20
REMARK    8  A    between atoms: C_20  and  C_21
REMARK    9  A    between atoms: C_25  and  C_26
REMARK                            x       y       z     vdW  Elec       q    Type
REMARK                         _______ _______ _______ _____ _____    ______ ____
ROOT
ATOM      1  C   UNL     1      50.109   7.854  12.336  0.00  0.00    +0.000 A 
ATOM      2  C   UNL     1      49.081   7.822  11.381  0.00  0.00    +0.000 A 
ATOM      3  C   UNL     1      47.775   7.440  11.729  0.00  0.00    +0.000 A 
ATOM      4  C   UNL     1      47.464   7.058  13.039  0.00  0.00    +0.000 A 
ATOM      5  C   UNL     1      48.496   7.092  13.986  0.00  0.00    +0.000 A 
ATOM      6  C   UNL     1      49.802   7.468  13.645  0.00  0.00    +0.000 A 
ENDROOT
BRANCH   4   7
ATOM      7  N   UNL     1      46.173   6.785  13.497  0.00  0.00    +0.000 N 
ATOM      8  H   UNL     1      45.502   7.315  12.928  0.00  0.00    +0.000 HD
BRANCH   7   9
ATOM      9  C   UNL     1      45.733   5.401  13.680  0.00  0.00    +0.000 C 
BRANCH   9  10
ATOM     10  C   UNL     1      44.443   5.189  12.850  0.00  0.00    +0.000 C 
ATOM     11  C   UNL     1      44.142   3.700  12.595  0.00  0.00    +0.000 C 
ATOM     12  C   UNL     1      45.037   3.091  11.521  0.00  0.00    +0.000 C 
ATOM     13  N   UNL     1      44.922   3.847  10.275  0.00  0.00    +0.000 N 
ATOM     14  C   UNL     1      44.696   3.325   9.010  0.00  0.00    +0.000 C 
ATOM     15  C   UNL     1      44.480   1.841   8.820  0.00  0.00    +0.000 C 
ATOM     16  O   UNL     1      44.652   4.046   8.007  0.00  0.00    +0.000 OA
ATOM     17  C   UNL     1      45.246   5.268  10.395  0.00  0.00    +0.000 C 
ATOM     18  C   UNL     1      44.456   5.953  11.513  0.00  0.00    +0.000 C 
ENDBRANCH   9  10
ENDBRANCH   7   9
ENDBRANCH   4   7
BRANCH   1  19
ATOM     19  C   UNL     1      51.491   8.335  11.966  0.00  0.00    +0.000 C 
BRANCH  19  22
ATOM     20  C   UNL     1      52.695   8.796   9.858  0.00  0.00    +0.000 C 
ATOM     21  O   UNL     1      53.182   9.828  10.319  0.00  0.00    +0.000 OA
ATOM     22  N   UNL     1      51.834   8.024  10.595  0.00  0.00    +0.000 N 
ATOM     23  H   UNL     1      51.463   7.172  10.199  0.00  0.00    +0.000 HD
BRANCH  20  31
ATOM     24  C   UNL     1      53.589   5.775   8.429  0.00  0.00    +0.000 A 
ATOM     25  N   UNL     1      53.973   4.759   7.627  0.00  0.00    +0.000 NA
ATOM     26  C   UNL     1      54.132   5.009   6.325  0.00  0.00    +0.000 A 
ATOM     27  N   UNL     1      53.955   6.173   5.711  0.00  0.00    +0.000 NA
ATOM     28  C   UNL     1      53.596   7.162   6.548  0.00  0.00    +0.000 A 
ATOM     29  S   UNL     1      53.331   8.718   5.928  0.00  0.00    +0.000 S 
ATOM     30  C   UNL     1      52.954   9.319   7.471  0.00  0.00    +0.000 A 
ATOM     31  C   UNL     1      53.012   8.365   8.481  0.00  0.00    +0.000 A 
ATOM     32  C   UNL     1      53.397   7.071   7.923  0.00  0.00    +0.000 A 
BRANCH  24  34
ATOM     33  C   UNL     1      54.618   5.569  10.503  0.00  0.00    +0.000 C 
ATOM     34  O   UNL     1      53.396   5.497   9.768  0.00  0.00    +0.000 OA
ENDBRANCH  24  34
ENDBRANCH  20  31
ENDBRANCH  19  22
ENDBRANCH   1  19
TORSDOF 7
ENDMDL
MODEL 6
REMARK VINA RESULT:    -6.667      3.427      8.349
REMARK INTER + INTRA:          -9.833
REMARK INTER:                  -8.406
REMARK INTRA:                  -1.428
REMARK UNBOUND:                -0.438
REMARK  Name = 
REMARK  9 active torsions:
REMARK  status: ('A' for Active; 'I' for Inactive)
REMARK    1  A    between atoms: C_1  and  O_2
REMARK    2  A    between atoms: O_2  and  C_3
REMARK    3  A    between atoms: C_10  and  C_11
REMARK    4  A    between atoms: N_13  and  C_14
REMARK    5  A    between atoms: C_14  and  C_15
REMARK    6  A    between atoms: C_18  and  N_19
REMARK    7  A    between atoms: N_19  and  C_20
REMARK    8  A    between atoms: C_20  and  C_21
REMARK    9  A    between atoms: C_25  and  C_26
REMARK                            x       y       z     vdW  Elec       q    Type
REMARK                         _______ _______ _______ _____ _____    ______ ____
ROOT
ATOM      1  C   UNL     1      48.923   8.676  15.329  0.00  0.00    +0.000 A 
ATOM      2  C   UNL     1      50.232   8.193  15.476  0.00  0.00    +0.000 A 
ATOM      3  C   UNL     1      50.774   7.930  16.744  0.00  0.00    +0.000 A 
ATOM      4  C   UNL     1      50.029   8.165  17.905  0.00  0.00    +0.000 A 
ATOM      5  C   UNL     1      48.724   8.649  17.751  0.00  0.00    +0.000 A 
ATOM      6  C   UNL     1      48.177   8.916  16.488  0.00  0.00    +0.000 A 
ENDROOT
BRANCH   4   7
ATOM      7  N   UNL     1      50.443   7.818  19.193  0.00  0.00    +0.000 N 
ATOM      8  H   UNL     1      49.615   7.579  19.753  0.00  0.00    +0.000 HD
BRANCH   7   9
ATOM      9  C   UNL     1      51.510   6.835  19.385  0.00  0.00    +0.000 C 
BRANCH   9  10
ATOM     10  C   UNL     1      50.866   5.500  19.833  0.00  0.00    +0.000 C 
ATOM     11  C   UNL     1      51.901   4.372  20.003  0.00  0.00    +0.000 C 
ATOM     12  C   UNL     1      52.373   3.798  18.672  0.00  0.00    +0.000 C 
ATOM     13  N   UNL     1      51.233   3.320  17.891  0.00  0.00    +0.000 N 
ATOM     14  C   UNL     1      51.113   2.083  17.276  0.00  0.00    +0.000 C 
ATOM     15  C   UNL     1      52.202   1.045  17.423  0.00  0.00    +0.000 C 
ATOM     16  O   UNL     1      50.121   1.784  16.602  0.00  0.00    +0.000 OA
ATOM     17  C   UNL     1      50.215   4.334  17.621  0.00  0.00    +0.000 C 
ATOM     18  C   UNL     1      49.737   5.034  18.895  0.00  0.00    +0.000 C 
ENDBRANCH   9  10
ENDBRANCH   7   9
ENDBRANCH   4   7
BRANCH   1  19
ATOM     19  C   UNL     1      48.327   8.885  13.958  0.00  0.00    +0.000 C 
BRANCH  19  22
ATOM     20  C   UNL     1      47.637   6.662  13.131  0.00  0.00    +0.000 C 
ATOM     21  O   UNL     1      48.802   6.355  12.877  0.00  0.00    +0.000 OA
ATOM     22  N   UNL     1      47.321   7.896  13.637  0.00  0.00    +0.000 N 
ATOM     23  H   UNL     1      46.359   8.115  13.855  0.00  0.00    +0.000 HD
BRANCH  20  31
ATOM     24  C   UNL     1      44.478   6.945  11.750  0.00  0.00    +0.000 A 
ATOM     25  N   UNL     1      43.219   6.772  11.295  0.00  0.00    +0.000 NA
ATOM     26  C   UNL     1      42.691   5.546  11.346  0.00  0.00    +0.000 A 
ATOM     27  N   UNL     1      43.276   4.448  11.810  0.00  0.00    +0.000 NA
ATOM     28  C   UNL     1      44.518   4.666  12.274  0.00  0.00    +0.000 A 
ATOM     29  S   UNL     1      45.410   3.369  12.905  0.00  0.00    +0.000 S 
ATOM     30  C   UNL     1      46.732   4.380  13.241  0.00  0.00    +0.000 A 
ATOM     31  C   UNL     1      46.537   5.709  12.881  0.00  0.00    +0.000 A 
ATOM     32  C   UNL     1      45.207   5.877  12.299  0.00  0.00    +0.000 A 
BRANCH  24  34
ATOM     33  C   UNL     1      44.119   9.134  11.059  0.00  0.00    +0.000 C 
ATOM     34  O   UNL     1      45.025   8.209  11.660  0.00  0.00    +0.000 OA
ENDBRANCH  24  34
ENDBRANCH  20  31
ENDBRANCH  19  22
ENDBRANCH   1  19
TORSDOF 7
ENDMDL
MODEL 7
REMARK VINA RESULT:    -6.498      5.554      7.211
REMARK INTER + INTRA:          -9.595
REMARK INTER:                  -8.247
REMARK INTRA:                  -1.349
REMARK UNBOUND:                -0.438
REMARK  Name = 
REMARK  9 active torsions:
REMARK  status: ('A' for Active; 'I' for Inactive)
REMARK    1  A    between atoms: C_1  and  O_2
REMARK    2  A    between atoms: O_2  and  C_3
REMARK    3  A    between atoms: C_10  and  C_11
REMARK    4  A    between atoms: N_13  and  C_14
REMARK    5  A    between atoms: C_14  and  C_15
REMARK    6  A    between atoms: C_18  and  N_19
REMARK    7  A    between atoms: N_19  and  C_20
REMARK    8  A    between atoms: C_20  and  C_21
REMARK    9  A    between atoms: C_25  and  C_26
REMARK                            x       y       z     vdW  Elec       q    Type
REMARK                         _______ _______ _______ _____ _____    ______ ____
ROOT
ATOM      1  C   UNL     1      50.942   8.535  12.808  0.00  0.00    +0.000 A 
ATOM      2  C   UNL     1      50.403   9.249  11.728  0.00  0.00    +0.000 A 
ATOM      3  C   UNL     1      51.224   9.764  10.711  0.00  0.00    +0.000 A 
ATOM      4  C   UNL     1      52.613   9.598  10.758  0.00  0.00    +0.000 A 
ATOM      5  C   UNL     1      53.144   8.885  11.841  0.00  0.00    +0.000 A 
ATOM      6  C   UNL     1      52.331   8.372  12.860  0.00  0.00    +0.000 A 
ENDROOT
BRANCH   4   7
ATOM      7  N   UNL     1      53.488   9.967   9.734  0.00  0.00    +0.000 N 
ATOM      8  H   UNL     1      54.184  10.620  10.113  0.00  0.00    +0.000 HD
BRANCH   7   9
ATOM      9  C   UNL     1      54.123   8.943   8.903  0.00  0.00    +0.000 C 
BRANCH   9  10
ATOM     10  C   UNL     1      53.010   8.122   8.208  0.00  0.00    +0.000 C 
ATOM     11  C   UNL     1      52.904   6.686   8.756  0.00  0.00    +0.000 C 
ATOM     12  C   UNL     1      54.015   5.776   8.243  0.00  0.00    +0.000 C 
ATOM     13  N   UNL     1      54.023   5.756   6.782  0.00  0.00    +0.000 N 
ATOM     14  C   UNL     1      54.054   4.632   5.970  0.00  0.00    +0.000 C 
ATOM     15  C   UNL     1      54.023   3.248   6.577  0.00  0.00    +0.000 C 
ATOM     16  O   UNL     1      54.097   4.719   4.738  0.00  0.00    +0.000 OA
ATOM     17  C   UNL     1      54.179   7.070   6.158  0.00  0.00    +0.000 C 
ATOM     18  C   UNL     1      53.157   8.085   6.675  0.00  0.00    +0.000 C 
ENDBRANCH   9  10
ENDBRANCH   7   9
ENDBRANCH   4   7
BRANCH   1  19
ATOM     19  C   UNL     1      50.043   7.925  13.856  0.00  0.00    +0.000 C 
BRANCH  19  22
ATOM     20  C   UNL     1      47.605   7.676  13.539  0.00  0.00    +0.000 C 
ATOM     21  O   UNL     1      47.373   8.594  14.325  0.00  0.00    +0.000 OA
ATOM     22  N   UNL     1      48.889   7.270  13.279  0.00  0.00    +0.000 N 
ATOM     23  H   UNL     1      49.053   6.526  12.615  0.00  0.00    +0.000 HD
BRANCH  20  31
ATOM     24  C   UNL     1      46.604   4.368  13.390  0.00  0.00    +0.000 A 
ATOM     25  N   UNL     1      46.017   3.179  13.134  0.00  0.00    +0.000 NA
ATOM     26  C   UNL     1      44.936   3.165  12.350  0.00  0.00    +0.000 A 
ATOM     27  N   UNL     1      44.357   4.212  11.774  0.00  0.00    +0.000 NA
ATOM     28  C   UNL     1      44.985   5.372  12.034  0.00  0.00    +0.000 A 
ATOM     29  S   UNL     1      44.378   6.811  11.374  0.00  0.00    +0.000 S 
ATOM     30  C   UNL     1      45.612   7.721  12.103  0.00  0.00    +0.000 A 
ATOM     31  C   UNL     1      46.500   6.967  12.863  0.00  0.00    +0.000 A 
ATOM     32  C   UNL     1      46.120   5.557  12.820  0.00  0.00    +0.000 A 
BRANCH  24  34
ATOM     33  C   UNL     1      47.314   4.372  15.602  0.00  0.00    +0.000 C 
ATOM     34  O   UNL     1      47.701   4.375  14.228  0.00  0.00    +0.000 OA
ENDBRANCH  24  34
ENDBRANCH  20  31
ENDBRANCH  19  22
ENDBRANCH   1  19
TORSDOF 7
ENDMDL
MODEL 8
REMARK VINA RESULT:    -6.470      2.773      4.038
REMARK INTER + INTRA:          -9.555
REMARK INTER:                  -8.324
REMARK INTRA:                  -1.231
REMARK UNBOUND:                -0.438
REMARK  Name = 
REMARK  9 active torsions:
REMARK  status: ('A' for Active; 'I' for Inactive)
REMARK    1  A    between atoms: C_1  and  O_2
REMARK    2  A    between atoms: O_2  and  C_3
REMARK    3  A    between atoms: C_10  and  C_11
REMARK    4  A    between atoms: N_13  and  C_14
REMARK    5  A    between atoms: C_14  and  C_15
REMARK    6  A    between atoms: C_18  and  N_19
REMARK    7  A    between atoms: N_19  and  C_20
REMARK    8  A    between atoms: C_20  and  C_21
REMARK    9  A    between atoms: C_25  and  C_26
REMARK                            x       y       z     vdW  Elec       q    Type
REMARK                         _______ _______ _______ _____ _____    ______ ____
ROOT
ATOM      1  C   UNL     1      50.295   8.877  13.125  0.00  0.00    +0.000 A 
ATOM      2  C   UNL     1      49.667   8.990  11.875  0.00  0.00    +0.000 A 
ATOM      3  C   UNL     1      48.267   9.024  11.763  0.00  0.00    +0.000 A 
ATOM      4  C   UNL     1      47.454   8.922  12.897  0.00  0.00    +0.000 A 
ATOM      5  C   UNL     1      48.088   8.808  14.141  0.00  0.00    +0.000 A 
ATOM      6  C   UNL     1      49.484   8.770  14.260  0.00  0.00    +0.000 A 
ENDROOT
BRANCH   4   7
ATOM      7  N   UNL     1      46.065   9.070  12.889  0.00  0.00    +0.000 N 
ATOM      8  H   UNL     1      45.837  10.032  12.609  0.00  0.00    +0.000 HD
BRANCH   7   9
ATOM      9  C   UNL     1      45.224   8.102  12.184  0.00  0.00    +0.000 C 
BRANCH   9  10
ATOM     10  C   UNL     1      45.683   6.679  12.584  0.00  0.00    +0.000 C 
ATOM     11  C   UNL     1      46.342   5.920  11.417  0.00  0.00    +0.000 C 
ATOM     12  C   UNL     1      45.329   5.402  10.401  0.00  0.00    +0.000 C 
ATOM     13  N   UNL     1      44.340   4.550  11.059  0.00  0.00    +0.000 N 
ATOM     14  C   UNL     1      43.938   3.286  10.654  0.00  0.00    +0.000 C 
ATOM     15  C   UNL     1      44.576   2.627   9.453  0.00  0.00    +0.000 C 
ATOM     16  O   UNL     1      43.062   2.656  11.258  0.00  0.00    +0.000 OA
ATOM     17  C   UNL     1      43.611   5.197  12.150  0.00  0.00    +0.000 C 
ATOM     18  C   UNL     1      44.548   5.828  13.183  0.00  0.00    +0.000 C 
ENDBRANCH   9  10
ENDBRANCH   7   9
ENDBRANCH   4   7
BRANCH   1  19
ATOM     19  C   UNL     1      51.799   8.914  13.239  0.00  0.00    +0.000 C 
BRANCH  19  22
ATOM     20  C   UNL     1      52.795   7.984  15.300  0.00  0.00    +0.000 C 
ATOM     21  O   UNL     1      52.847   9.098  15.821  0.00  0.00    +0.000 OA
ATOM     22  N   UNL     1      52.320   7.817  14.025  0.00  0.00    +0.000 N 
ATOM     23  H   UNL     1      52.271   6.889  13.627  0.00  0.00    +0.000 HD
BRANCH  20  31
ATOM     24  C   UNL     1      51.241   5.623  17.295  0.00  0.00    +0.000 A 
ATOM     25  N   UNL     1      50.911   4.605  18.117  0.00  0.00    +0.000 NA
ATOM     26  C   UNL     1      51.875   3.761  18.495  0.00  0.00    +0.000 A 
ATOM     27  N   UNL     1      53.156   3.812  18.151  0.00  0.00    +0.000 NA
ATOM     28  C   UNL     1      53.448   4.853  17.352  0.00  0.00    +0.000 A 
ATOM     29  S   UNL     1      55.043   5.069  16.817  0.00  0.00    +0.000 S 
ATOM     30  C   UNL     1      54.612   6.461  15.947  0.00  0.00    +0.000 A 
ATOM     31  C   UNL     1      53.263   6.789  16.031  0.00  0.00    +0.000 A 
ATOM     32  C   UNL     1      52.567   5.821  16.874  0.00  0.00    +0.000 A 
BRANCH  24  34
ATOM     33  C   UNL     1      48.998   5.770  16.706  0.00  0.00    +0.000 C 
ATOM     34  O   UNL     1      50.230   6.469  16.883  0.00  0.00    +0.000 OA
ENDBRANCH  24  34
ENDBRANCH  20  31
ENDBRANCH  19  22
ENDBRANCH   1  19
TORSDOF 7
ENDMDL
MODEL 9
REMARK VINA RESULT:    -6.373      2.979      4.384
REMARK INTER + INTRA:          -9.419
REMARK INTER:                  -8.063
REMARK INTRA:                  -1.356
REMARK UNBOUND:                -0.438
REMARK  Name = 
REMARK  9 active torsions:
REMARK  status: ('A' for Active; 'I' for Inactive)
REMARK    1  A    between atoms: C_1  and  O_2
REMARK    2  A    between atoms: O_2  and  C_3
REMARK    3  A    between atoms: C_10  and  C_11
REMARK    4  A    between atoms: N_13  and  C_14
REMARK    5  A    between atoms: C_14  and  C_15
REMARK    6  A    between atoms: C_18  and  N_19
REMARK    7  A    between atoms: N_19  and  C_20
REMARK    8  A    between atoms: C_20  and  C_21
REMARK    9  A    between atoms: C_25  and  C_26
REMARK                            x       y       z     vdW  Elec       q    Type
REMARK                         _______ _______ _______ _____ _____    ______ ____
ROOT
ATOM      1  C   UNL     1      50.482   9.066  14.902  0.00  0.00    +0.000 A 
ATOM      2  C   UNL     1      50.434   9.295  13.518  0.00  0.00    +0.000 A 
ATOM      3  C   UNL     1      49.211   9.458  12.848  0.00  0.00    +0.000 A 
ATOM      4  C   UNL     1      47.997   9.373  13.539  0.00  0.00    +0.000 A 
ATOM      5  C   UNL     1      48.053   9.143  14.920  0.00  0.00    +0.000 A 
ATOM      6  C   UNL     1      49.269   8.977  15.595  0.00  0.00    +0.000 A 
ENDROOT
BRANCH   4   7
ATOM      7  N   UNL     1      46.747   9.643  12.977  0.00  0.00    +0.000 N 
ATOM      8  H   UNL     1      46.883   9.980  12.016  0.00  0.00    +0.000 HD
BRANCH   7   9
ATOM      9  C   UNL     1      45.679   8.644  13.040  0.00  0.00    +0.000 C 
BRANCH   9  10
ATOM     10  C   UNL     1      45.897   7.628  11.893  0.00  0.00    +0.000 C 
ATOM     11  C   UNL     1      44.578   7.009  11.393  0.00  0.00    +0.000 C 
ATOM     12  C   UNL     1      44.024   5.951  12.342  0.00  0.00    +0.000 C 
ATOM     13  N   UNL     1      45.017   4.902  12.569  0.00  0.00    +0.000 N 
ATOM     14  C   UNL     1      44.810   3.534  12.476  0.00  0.00    +0.000 C 
ATOM     15  C   UNL     1      43.466   2.989  12.049  0.00  0.00    +0.000 C 
ATOM     16  O   UNL     1      45.707   2.721  12.725  0.00  0.00    +0.000 OA
ATOM     17  C   UNL     1      46.293   5.379  13.102  0.00  0.00    +0.000 C 
ATOM     18  C   UNL     1      46.890   6.510  12.262  0.00  0.00    +0.000 C 
ENDBRANCH   9  10
ENDBRANCH   7   9
ENDBRANCH   4   7
BRANCH   1  19
ATOM     19  C   UNL     1      51.804   8.966  15.622  0.00  0.00    +0.000 C 
BRANCH  19  22
ATOM     20  C   UNL     1      51.974   7.112  17.247  0.00  0.00    +0.000 C 
ATOM     21  O   UNL     1      51.581   7.832  18.164  0.00  0.00    +0.000 OA
ATOM     22  N   UNL     1      52.136   7.603  15.977  0.00  0.00    +0.000 N 
ATOM     23  H   UNL     1      52.442   6.986  15.237  0.00  0.00    +0.000 HD
BRANCH  20  31
ATOM     24  C   UNL     1      50.190   4.156  17.015  0.00  0.00    +0.000 A 
ATOM     25  N   UNL     1      49.739   2.884  17.041  0.00  0.00    +0.000 NA
ATOM     26  C   UNL     1      50.591   1.920  17.399  0.00  0.00    +0.000 A 
ATOM     27  N   UNL     1      51.864   2.072  17.746  0.00  0.00    +0.000 NA
ATOM     28  C   UNL     1      52.267   3.354  17.729  0.00  0.00    +0.000 A 
ATOM     29  S   UNL     1      53.867   3.727  18.147  0.00  0.00    +0.000 S 
ATOM     30  C   UNL     1      53.595   5.384  17.900  0.00  0.00    +0.000 A 
ATOM     31  C   UNL     1      52.302   5.693  17.491  0.00  0.00    +0.000 A 
ATOM     32  C   UNL     1      51.507   4.471  17.389  0.00  0.00    +0.000 A 
BRANCH  24  34
ATOM     33  C   UNL     1      48.315   5.397  17.602  0.00  0.00    +0.000 C 
ATOM     34  O   UNL     1      49.311   5.141  16.611  0.00  0.00    +0.000 OA
ENDBRANCH  24  34
ENDBRANCH  20  31
ENDBRANCH  19  22
ENDBRANCH   1  19
TORSDOF 7
ENDMDL
