MODEL 1
REMARK VINA RESULT:    -7.203      0.000      0.000
REMARK INTER + INTRA:          -9.674
REMARK INTER:                  -9.097
REMARK INTRA:                  -0.577
REMARK UNBOUND:                -0.577
REMARK  Name = 
REMARK  5 active torsions:
REMARK  status: ('A' for Active; 'I' for Inactive)
REMARK    1  A    between atoms: C_2  and  OXT_3
REMARK    2  A    between atoms: C_2  and  CA_4
REMARK    3  A    between atoms: C_9  and  O_10
REMARK    4  A    between atoms: O_10  and  C_11
REMARK    5  A    between atoms: C_11  and  C_12
REMARK                            x       y       z     vdW  Elec       q    Type
REMARK                         _______ _______ _______ _____ _____    ______ ____
ROOT
ATOM      1  CA  UNL     1      44.429   4.769  11.968  0.00  0.00    +0.000 A 
ATOM      2  N   UNL     1      44.689   5.752  12.902  0.00  0.00    +0.000 NA
ATOM      3  C   UNL     1      45.551   6.712  12.502  0.00  0.00    +0.000 A 
ATOM      4  C   UNL     1      46.128   6.707  11.246  0.00  0.00    +0.000 A 
ATOM      5  N   UNL     1      45.874   5.745  10.331  0.00  0.00    +0.000 NA
ATOM      6  C   UNL     1      45.010   4.760  10.701  0.00  0.00    +0.000 A 
ENDROOT
BRANCH   1   8
ATOM      7  O   UNL     1      43.396   3.264  13.563  0.00  0.00    +0.000 OA
ATOM      8  C   UNL     1      43.464   3.739  12.444  0.00  0.00    +0.000 C 
BRANCH   8   9
ATOM      9  OXT UNL     1      42.639   3.372  11.425  0.00  0.00    +0.000 OA
ATOM     10  HXT UNL     1      41.739   3.188  11.781  0.00  0.00    +0.000 HD
ENDBRANCH   8   9
ENDBRANCH   1   8
BRANCH   6  11
ATOM     11  O   UNL     1      44.745   3.767   9.784  0.00  0.00    +0.000 OA
BRANCH  11  12
ATOM     12  C   UNL     1      45.172   4.108   8.457  0.00  0.00    +0.000 C 
BRANCH  12  13
ATOM     13  C   UNL     1      46.041   3.020   7.890  0.00  0.00    +0.000 A 
ATOM     14  C   UNL     1      46.983   3.274   6.897  0.00  0.00    +0.000 A 
ATOM     15  C   UNL     1      47.738   2.217   6.423  0.00  0.00    +0.000 A 
ATOM     16  N   UNL     1      47.616   0.962   6.899  0.00  0.00    +0.000 NA
ATOM     17  N   UNL     1      46.719   0.709   7.885  0.00  0.00    +0.000 NA
ATOM     18  C   UNL     1      45.955   1.717   8.359  0.00  0.00    +0.000 A 
ENDBRANCH  12  13
ENDBRANCH  11  12
ENDBRANCH   6  11
TORSDOF 5
ENDMDL
MODEL 2
REMARK VINA RESULT:    -7.027      1.764      2.558
REMARK INTER + INTRA:          -9.453
REMARK INTER:                  -9.003
REMARK INTRA:                  -0.450
REMARK UNBOUND:                -0.577
REMARK  Name = 
REMARK  5 active torsions:
REMARK  status: ('A' for Active; 'I' for Inactive)
REMARK    1  A    between atoms: C_2  and  OXT_3
REMARK    2  A    between atoms: C_2  and  CA_4
REMARK    3  A    between atoms: C_9  and  O_10
REMARK    4  A    between atoms: O_10  and  C_11
REMARK    5  A    between atoms: C_11  and  C_12
REMARK                            x       y       z     vdW  Elec       q    Type
REMARK                         _______ _______ _______ _____ _____    ______ ____
ROOT
ATOM      1  CA  UNL     1      44.787   5.224  11.486  0.00  0.00    +0.000 A 
ATOM      2  N   UNL     1      44.181   5.067  12.717  0.00  0.00    +0.000 NA
ATOM      3  C   UNL     1      43.501   3.911  12.880  0.00  0.00    +0.000 A 
ATOM      4  C   UNL     1      43.422   2.956  11.885  0.00  0.00    +0.000 A 
ATOM      5  N   UNL     1      44.015   3.109  10.679  0.00  0.00    +0.000 NA
ATOM      6  C   UNL     1      44.708   4.263  10.479  0.00  0.00    +0.000 A 
ENDROOT
BRANCH   1   8
ATOM      7  O   UNL     1      46.723   6.680  11.552  0.00  0.00    +0.000 OA
ATOM      8  C   UNL     1      45.536   6.504  11.353  0.00  0.00    +0.000 C 
BRANCH   8   9
ATOM      9  OXT UNL     1      44.686   7.499  10.975  0.00  0.00    +0.000 OA
ATOM     10  HXT UNL     1      45.152   8.113  10.361  0.00  0.00    +0.000 HD
ENDBRANCH   8   9
ENDBRANCH   1   8
BRANCH   6  11
ATOM     11  O   UNL     1      45.312   4.439   9.255  0.00  0.00    +0.000 OA
BRANCH  11  12
ATOM     12  C   UNL     1      44.787   3.565   8.245  0.00  0.00    +0.000 C 
BRANCH  12  13
ATOM     13  C   UNL     1      45.900   2.808   7.576  0.00  0.00    +0.000 A 
ATOM     14  C   UNL     1      46.609   3.339   6.503  0.00  0.00    +0.000 A 
ATOM     15  C   UNL     1      47.615   2.575   5.938  0.00  0.00    +0.000 A 
ATOM     16  N   UNL     1      47.949   1.353   6.399  0.00  0.00    +0.000 NA
ATOM     17  N   UNL     1      47.281   0.837   7.462  0.00  0.00    +0.000 NA
ATOM     18  C   UNL     1      46.283   1.552   8.026  0.00  0.00    +0.000 A 
ENDBRANCH  12  13
ENDBRANCH  11  12
ENDBRANCH   6  11
TORSDOF 5
ENDMDL
MODEL 3
REMARK VINA RESULT:    -6.270      2.203      5.139
REMARK INTER + INTRA:          -8.496
REMARK INTER:                  -7.908
REMARK INTRA:                  -0.589
REMARK UNBOUND:                -0.577
REMARK  Name = 
REMARK  5 active torsions:
REMARK  status: ('A' for Active; 'I' for Inactive)
REMARK    1  A    between atoms: C_2  and  OXT_3
REMARK    2  A    between atoms: C_2  and  CA_4
REMARK    3  A    between atoms: C_9  and  O_10
REMARK    4  A    between atoms: O_10  and  C_11
REMARK    5  A    between atoms: C_11  and  C_12
REMARK                            x       y       z     vdW  Elec       q    Type
REMARK                         _______ _______ _______ _____ _____    ______ ____
ROOT
ATOM      1  CA  UNL     1      44.144   3.437  10.440  0.00  0.00    +0.000 A 
ATOM      2  N   UNL     1      44.152   2.321   9.628  0.00  0.00    +0.000 NA
ATOM      3  C   UNL     1      44.858   2.447   8.483  0.00  0.00    +0.000 A 
ATOM      4  C   UNL     1      45.526   3.612   8.155  0.00  0.00    +0.000 A 
ATOM      5  N   UNL     1      45.519   4.705   8.950  0.00  0.00    +0.000 NA
ATOM      6  C   UNL     1      44.815   4.614  10.111  0.00  0.00    +0.000 A 
ENDROOT
BRANCH   1   8
ATOM      7  O   UNL     1      43.418   2.300  12.454  0.00  0.00    +0.000 OA
ATOM      8  C   UNL     1      43.365   3.250  11.696  0.00  0.00    +0.000 C 
BRANCH   8   9
ATOM      9  OXT UNL     1      42.544   4.318  11.894  0.00  0.00    +0.000 OA
ATOM     10  HXT UNL     1      42.324   4.728  11.025  0.00  0.00    +0.000 HD
ENDBRANCH   8   9
ENDBRANCH   1   8
BRANCH   6  11
ATOM     11  O   UNL     1      44.791   5.720  10.931  0.00  0.00    +0.000 OA
BRANCH  11  12
ATOM     12  C   UNL     1      46.082   6.326  11.083  0.00  0.00    +0.000 C 
BRANCH  12  13
ATOM     13  C   UNL     1      46.692   5.938  12.401  0.00  0.00    +0.000 A 
ATOM     14  C   UNL     1      46.067   5.045  13.266  0.00  0.00    +0.000 A 
ATOM     15  C   UNL     1      46.691   4.744  14.463  0.00  0.00    +0.000 A 
ATOM     16  N   UNL     1      47.886   5.259  14.813  0.00  0.00    +0.000 NA
ATOM     17  N   UNL     1      48.517   6.110  13.964  0.00  0.00    +0.000 NA
ATOM     18  C   UNL     1      47.926   6.436  12.794  0.00  0.00    +0.000 A 
ENDBRANCH  12  13
ENDBRANCH  11  12
ENDBRANCH   6  11
TORSDOF 5
ENDMDL
MODEL 4
REMARK VINA RESULT:    -5.784      1.961      5.725
REMARK INTER + INTRA:          -7.882
REMARK INTER:                  -7.145
REMARK INTRA:                  -0.736
REMARK UNBOUND:                -0.577
REMARK  Name = 
REMARK  5 active torsions:
REMARK  status: ('A' for Active; 'I' for Inactive)
REMARK    1  A    between atoms: C_2  and  OXT_3
REMARK    2  A    between atoms: C_2  and  CA_4
REMARK    3  A    between atoms: C_9  and  O_10
REMARK    4  A    between atoms: O_10  and  C_11
REMARK    5  A    between atoms: C_11  and  C_12
REMARK                            x       y       z     vdW  Elec       q    Type
REMARK                         _______ _______ _______ _____ _____    ______ ____
ROOT
ATOM      1  CA  UNL     1      46.001   3.152   8.153  0.00  0.00    +0.000 A 
ATOM      2  N   UNL     1      47.106   3.046   7.332  0.00  0.00    +0.000 NA
ATOM      3  C   UNL     1      47.518   1.784   7.082  0.00  0.00    +0.000 A 
ATOM      4  C   UNL     1      46.875   0.681   7.610  0.00  0.00    +0.000 A 
ATOM      5  N   UNL     1      45.792   0.783   8.414  0.00  0.00    +0.000 NA
ATOM      6  C   UNL     1      45.350   2.041   8.689  0.00  0.00    +0.000 A 
ENDROOT
BRANCH   1   8
ATOM      7  O   UNL     1      46.295   5.516   8.599  0.00  0.00    +0.000 OA
ATOM      8  C   UNL     1      45.573   4.558   8.392  0.00  0.00    +0.000 C 
BRANCH   8   9
ATOM      9  OXT UNL     1      44.214   4.640   8.359  0.00  0.00    +0.000 OA
ATOM     10  HXT UNL     1      43.943   5.585   8.301  0.00  0.00    +0.000 HD
ENDBRANCH   8   9
ENDBRANCH   1   8
BRANCH   6  11
ATOM     11  O   UNL     1      44.254   2.166   9.512  0.00  0.00    +0.000 OA
BRANCH  11  12
ATOM     12  C   UNL     1      44.590   2.072  10.903  0.00  0.00    +0.000 C 
BRANCH  12  13
ATOM     13  C   UNL     1      44.310   3.374  11.600  0.00  0.00    +0.000 A 
ATOM     14  C   UNL     1      45.302   4.067  12.288  0.00  0.00    +0.000 A 
ATOM     15  C   UNL     1      44.961   5.256  12.909  0.00  0.00    +0.000 A 
ATOM     16  N   UNL     1      43.720   5.779  12.853  0.00  0.00    +0.000 NA
ATOM     17  N   UNL     1      42.753   5.123  12.162  0.00  0.00    +0.000 NA
ATOM     18  C   UNL     1      43.050   3.952  11.559  0.00  0.00    +0.000 A 
ENDBRANCH  12  13
ENDBRANCH  11  12
ENDBRANCH   6  11
TORSDOF 5
ENDMDL
MODEL 5
REMARK VINA RESULT:    -5.747      1.801      2.182
REMARK INTER + INTRA:          -7.835
REMARK INTER:                  -7.387
REMARK INTRA:                  -0.448
REMARK UNBOUND:                -0.577
REMARK  Name = 
REMARK  5 active torsions:
REMARK  status: ('A' for Active; 'I' for Inactive)
REMARK    1  A    between atoms: C_2  and  OXT_3
REMARK    2  A    between atoms: C_2  and  CA_4
REMARK    3  A    between atoms: C_9  and  O_10
REMARK    4  A    between atoms: O_10  and  C_11
REMARK    5  A    between atoms: C_11  and  C_12
REMARK                            x       y       z     vdW  Elec       q    Type
REMARK                         _______ _______ _______ _____ _____    ______ ____
ROOT
ATOM      1  CA  UNL     1      45.116   4.947  13.102  0.00  0.00    +0.000 A 
ATOM      2  N   UNL     1      45.912   4.698  14.203  0.00  0.00    +0.000 NA
ATOM      3  C   UNL     1      47.162   5.206  14.134  0.00  0.00    +0.000 A 
ATOM      4  C   UNL     1      47.606   5.924  13.041  0.00  0.00    +0.000 A 
ATOM      5  N   UNL     1      46.828   6.168  11.963  0.00  0.00    +0.000 NA
ATOM      6  C   UNL     1      45.562   5.669  11.996  0.00  0.00    +0.000 A 
ENDROOT
BRANCH   1   8
ATOM      7  O   UNL     1      43.434   3.204  13.208  0.00  0.00    +0.000 OA
ATOM      8  C   UNL     1      43.743   4.381  13.224  0.00  0.00    +0.000 C 
BRANCH   8   9
ATOM      9  OXT UNL     1      42.837   5.389  13.350  0.00  0.00    +0.000 OA
ATOM     10  HXT UNL     1      42.376   5.527  12.490  0.00  0.00    +0.000 HD
ENDBRANCH   8   9
ENDBRANCH   1   8
BRANCH   6  11
ATOM     11  O   UNL     1      44.756   5.901  10.904  0.00  0.00    +0.000 OA
BRANCH  11  12
ATOM     12  C   UNL     1      45.451   5.747   9.658  0.00  0.00    +0.000 C 
BRANCH  12  13
ATOM     13  C   UNL     1      45.397   4.316   9.201  0.00  0.00    +0.000 A 
ATOM     14  C   UNL     1      46.183   3.849   8.151  0.00  0.00    +0.000 A 
ATOM     15  C   UNL     1      46.069   2.520   7.786  0.00  0.00    +0.000 A 
ATOM     16  N   UNL     1      45.249   1.657   8.419  0.00  0.00    +0.000 NA
ATOM     17  N   UNL     1      44.498   2.097   9.461  0.00  0.00    +0.000 NA
ATOM     18  C   UNL     1      44.575   3.393   9.832  0.00  0.00    +0.000 A 
ENDBRANCH  12  13
ENDBRANCH  11  12
ENDBRANCH   6  11
TORSDOF 5
ENDMDL
MODEL 6
REMARK VINA RESULT:    -5.630      3.413      4.765
REMARK INTER + INTRA:          -7.687
REMARK INTER:                  -7.267
REMARK INTRA:                  -0.420
REMARK UNBOUND:                -0.577
REMARK  Name = 
REMARK  5 active torsions:
REMARK  status: ('A' for Active; 'I' for Inactive)
REMARK    1  A    between atoms: C_2  and  OXT_3
REMARK    2  A    between atoms: C_2  and  CA_4
REMARK    3  A    between atoms: C_9  and  O_10
REMARK    4  A    between atoms: O_10  and  C_11
REMARK    5  A    between atoms: C_11  and  C_12
REMARK                            x       y       z     vdW  Elec       q    Type
REMARK                         _______ _______ _______ _____ _____    ______ ____
ROOT
ATOM      1  CA  UNL     1      47.724   4.703  15.468  0.00  0.00    +0.000 A 
ATOM      2  N   UNL     1      48.702   5.533  15.978  0.00  0.00    +0.000 NA
ATOM      3  C   UNL     1      48.904   6.676  15.286  0.00  0.00    +0.000 A 
ATOM      4  C   UNL     1      48.179   6.988  14.153  0.00  0.00    +0.000 A 
ATOM      5  N   UNL     1      47.220   6.176  13.653  0.00  0.00    +0.000 NA
ATOM      6  C   UNL     1      46.991   5.014  14.324  0.00  0.00    +0.000 A 
ENDROOT
BRANCH   1   8
ATOM      7  O   UNL     1      46.688   3.274  17.131  0.00  0.00    +0.000 OA
ATOM      8  C   UNL     1      47.525   3.461  16.268  0.00  0.00    +0.000 C 
BRANCH   8   9
ATOM      9  OXT UNL     1      48.444   2.525  15.903  0.00  0.00    +0.000 OA
ATOM     10  HXT UNL     1      49.257   2.973  15.573  0.00  0.00    +0.000 HD
ENDBRANCH   8   9
ENDBRANCH   1   8
BRANCH   6  11
ATOM     11  O   UNL     1      46.024   4.170  13.826  0.00  0.00    +0.000 OA
BRANCH  11  12
ATOM     12  C   UNL     1      44.995   4.868  13.108  0.00  0.00    +0.000 C 
BRANCH  12  13
ATOM     13  C   UNL     1      44.938   4.396  11.682  0.00  0.00    +0.000 A 
ATOM     14  C   UNL     1      44.456   3.135  11.344  0.00  0.00    +0.000 A 
ATOM     15  C   UNL     1      44.442   2.774  10.008  0.00  0.00    +0.000 A 
ATOM     16  N   UNL     1      44.853   3.600   9.025  0.00  0.00    +0.000 NA
ATOM     17  N   UNL     1      45.299   4.841   9.343  0.00  0.00    +0.000 NA
ATOM     18  C   UNL     1      45.340   5.218  10.639  0.00  0.00    +0.000 A 
ENDBRANCH  12  13
ENDBRANCH  11  12
ENDBRANCH   6  11
TORSDOF 5
ENDMDL
MODEL 7
REMARK VINA RESULT:    -5.478      5.101      6.883
REMARK INTER + INTRA:          -7.495
REMARK INTER:                  -6.919
REMARK INTRA:                  -0.576
REMARK UNBOUND:                -0.577
REMARK  Name = 
REMARK  5 active torsions:
REMARK  status: ('A' for Active; 'I' for Inactive)
REMARK    1  A    between atoms: C_2  and  OXT_3
REMARK    2  A    between atoms: C_2  and  CA_4
REMARK    3  A    between atoms: C_9  and  O_10
REMARK    4  A    between atoms: O_10  and  C_11
REMARK    5  A    between atoms: C_11  and  C_12
REMARK                            x       y       z     vdW  Elec       q    Type
REMARK                         _______ _______ _______ _____ _____    ______ ____
ROOT
ATOM      1  CA  UNL     1      48.279   4.254  17.469  0.00  0.00    +0.000 A 
ATOM      2  N   UNL     1      49.364   3.786  18.183  0.00  0.00    +0.000 NA
ATOM      3  C   UNL     1      49.946   2.675  17.681  0.00  0.00    +0.000 A 
ATOM      4  C   UNL     1      49.487   2.058  16.533  0.00  0.00    +0.000 A 
ATOM      5  N   UNL     1      48.425   2.516  15.834  0.00  0.00    +0.000 NA
ATOM      6  C   UNL     1      47.812   3.633  16.312  0.00  0.00    +0.000 A 
ENDROOT
BRANCH   1   8
ATOM      7  O   UNL     1      48.204   6.577  18.159  0.00  0.00    +0.000 OA
ATOM      8  C   UNL     1      47.676   5.486  18.050  0.00  0.00    +0.000 C 
BRANCH   8   9
ATOM      9  OXT UNL     1      46.407   5.225  18.472  0.00  0.00    +0.000 OA
ATOM     10  HXT UNL     1      46.414   5.042  19.440  0.00  0.00    +0.000 HD
ENDBRANCH   8   9
ENDBRANCH   1   8
BRANCH   6  11
ATOM     11  O   UNL     1      46.723   4.110  15.617  0.00  0.00    +0.000 OA
BRANCH  11  12
ATOM     12  C   UNL     1      47.082   4.690  14.354  0.00  0.00    +0.000 C 
BRANCH  12  13
ATOM     13  C   UNL     1      45.948   4.560  13.377  0.00  0.00    +0.000 A 
ATOM     14  C   UNL     1      45.752   3.405  12.626  0.00  0.00    +0.000 A 
ATOM     15  C   UNL     1      44.688   3.368  11.743  0.00  0.00    +0.000 A 
ATOM     16  N   UNL     1      43.823   4.392  11.599  0.00  0.00    +0.000 NA
ATOM     17  N   UNL     1      43.990   5.512  12.346  0.00  0.00    +0.000 NA
ATOM     18  C   UNL     1      45.029   5.586  13.206  0.00  0.00    +0.000 A 
ENDBRANCH  12  13
ENDBRANCH  11  12
ENDBRANCH   6  11
TORSDOF 5
ENDMDL
MODEL 8
REMARK VINA RESULT:    -5.290      4.471      5.884
REMARK INTER + INTRA:          -7.258
REMARK INTER:                  -6.607
REMARK INTRA:                  -0.651
REMARK UNBOUND:                -0.577
REMARK  Name = 
REMARK  5 active torsions:
REMARK  status: ('A' for Active; 'I' for Inactive)
REMARK    1  A    between atoms: C_2  and  OXT_3
REMARK    2  A    between atoms: C_2  and  CA_4
REMARK    3  A    between atoms: C_9  and  O_10
REMARK    4  A    between atoms: O_10  and  C_11
REMARK    5  A    between atoms: C_11  and  C_12
REMARK                            x       y       z     vdW  Elec       q    Type
REMARK                         _______ _______ _______ _____ _____    ______ ____
ROOT
ATOM      1  CA  UNL     1      45.410   4.620  13.300  0.00  0.00    +0.000 A 
ATOM      2  N   UNL     1      44.471   3.621  13.133  0.00  0.00    +0.000 NA
ATOM      3  C   UNL     1      43.393   3.963  12.394  0.00  0.00    +0.000 A 
ATOM      4  C   UNL     1      43.246   5.222  11.845  0.00  0.00    +0.000 A 
ATOM      5  N   UNL     1      44.164   6.201  12.009  0.00  0.00    +0.000 NA
ATOM      6  C   UNL     1      45.264   5.892  12.749  0.00  0.00    +0.000 A 
ENDROOT
BRANCH   1   8
ATOM      7  O   UNL     1      47.263   3.198  13.948  0.00  0.00    +0.000 OA
ATOM      8  C   UNL     1      46.587   4.197  14.109  0.00  0.00    +0.000 C 
BRANCH   8   9
ATOM      9  OXT UNL     1      46.816   5.103  15.100  0.00  0.00    +0.000 OA
ATOM     10  HXT UNL     1      47.336   5.859  14.741  0.00  0.00    +0.000 HD
ENDBRANCH   8   9
ENDBRANCH   1   8
BRANCH   6  11
ATOM     11  O   UNL     1      46.207   6.878  12.932  0.00  0.00    +0.000 OA
BRANCH  11  12
ATOM     12  C   UNL     1      47.099   7.008  11.816  0.00  0.00    +0.000 C 
BRANCH  12  13
ATOM     13  C   UNL     1      48.461   7.442  12.280  0.00  0.00    +0.000 A 
ATOM     14  C   UNL     1      49.432   7.892  11.390  0.00  0.00    +0.000 A 
ATOM     15  C   UNL     1      50.664   8.267  11.897  0.00  0.00    +0.000 A 
ATOM     16  N   UNL     1      50.951   8.237  13.214  0.00  0.00    +0.000 NA
ATOM     17  N   UNL     1      50.002   7.825  14.092  0.00  0.00    +0.000 NA
ATOM     18  C   UNL     1      48.794   7.437  13.627  0.00  0.00    +0.000 A 
ENDBRANCH  12  13
ENDBRANCH  11  12
ENDBRANCH   6  11
TORSDOF 5
ENDMDL
MODEL 9
REMARK VINA RESULT:    -5.226      4.092      6.400
REMARK INTER + INTRA:          -7.177
REMARK INTER:                  -6.604
REMARK INTRA:                  -0.573
REMARK UNBOUND:                -0.577
REMARK  Name = 
REMARK  5 active torsions:
REMARK  status: ('A' for Active; 'I' for Inactive)
REMARK    1  A    between atoms: C_2  and  OXT_3
REMARK    2  A    between atoms: C_2  and  CA_4
REMARK    3  A    between atoms: C_9  and  O_10
REMARK    4  A    between atoms: O_10  and  C_11
REMARK    5  A    between atoms: C_11  and  C_12
REMARK                            x       y       z     vdW  Elec       q    Type
REMARK                         _______ _______ _______ _____ _____    ______ ____
ROOT
ATOM      1  CA  UNL     1      45.457   4.323  12.884  0.00  0.00    +0.000 A 
ATOM      2  N   UNL     1      44.652   3.202  12.842  0.00  0.00    +0.000 NA
ATOM      3  C   UNL     1      43.603   3.280  11.995  0.00  0.00    +0.000 A 
ATOM      4  C   UNL     1      43.359   4.401  11.225  0.00  0.00    +0.000 A 
ATOM      5  N   UNL     1      44.147   5.499  11.265  0.00  0.00    +0.000 NA
ATOM      6  C   UNL     1      45.213   5.457  12.111  0.00  0.00    +0.000 A 
ENDROOT
BRANCH   1   8
ATOM      7  O   UNL     1      47.459   3.322  13.815  0.00  0.00    +0.000 OA
ATOM      8  C   UNL     1      46.608   4.191  13.821  0.00  0.00    +0.000 C 
BRANCH   8   9
ATOM      9  OXT UNL     1      46.581   5.203  14.732  0.00  0.00    +0.000 OA
ATOM     10  HXT UNL     1      46.084   5.968  14.358  0.00  0.00    +0.000 HD
ENDBRANCH   8   9
ENDBRANCH   1   8
BRANCH   6  11
ATOM     11  O   UNL     1      46.023   6.568  12.170  0.00  0.00    +0.000 OA
BRANCH  11  12
ATOM     12  C   UNL     1      45.359   7.709  12.733  0.00  0.00    +0.000 C 
BRANCH  12  13
ATOM     13  C   UNL     1      46.027   8.979  12.284  0.00  0.00    +0.000 A 
ATOM     14  C   UNL     1      47.411   9.085  12.178  0.00  0.00    +0.000 A 
ATOM     15  C   UNL     1      47.947  10.290  11.763  0.00  0.00    +0.000 A 
ATOM     16  N   UNL     1      47.187  11.355  11.437  0.00  0.00    +0.000 NA
ATOM     17  N   UNL     1      45.835  11.253  11.513  0.00  0.00    +0.000 NA
ATOM     18  C   UNL     1      45.281  10.094  11.929  0.00  0.00    +0.000 A 
ENDBRANCH  12  13
ENDBRANCH  11  12
ENDBRANCH   6  11
TORSDOF 5
ENDMDL
