MODEL 1
REMARK VINA RESULT:    -8.622      0.000      0.000
REMARK INTER + INTRA:         -11.803
REMARK INTER:                 -11.143
REMARK INTRA:                  -0.660
REMARK UNBOUND:                -0.660
REMARK  Name = 
REMARK  5 active torsions:
REMARK  status: ('A' for Active; 'I' for Inactive)
REMARK    1  A    between atoms: C_2  and  C_4
REMARK    2  A    between atoms: C_7  and  N_8
REMARK    3  A    between atoms: N_8  and  C_9
REMARK    4  A    between atoms: C_9  and  C_10
REMARK    5  A    between atoms: C_14  and  C_15
REMARK                            x       y       z     vdW  Elec       q    Type
REMARK                         _______ _______ _______ _____ _____    ______ ____
ROOT
ATOM      1  N   UNL     1      43.707   4.825   9.851  0.00  0.00    +0.000 N 
ATOM      2  H   UNL     1      43.823   5.787   9.537  0.00  0.00    +0.000 HD
ENDROOT
BRANCH   1   6
ATOM      3  C   UNL     1      46.379   2.261   7.825  0.00  0.00    +0.000 A 
ATOM      4  C   UNL     1      45.455   1.721   8.720  0.00  0.00    +0.000 A 
ATOM      5  C   UNL     1      44.587   2.564   9.428  0.00  0.00    +0.000 A 
ATOM      6  C   UNL     1      44.636   3.957   9.279  0.00  0.00    +0.000 A 
ATOM      7  C   UNL     1      45.573   4.477   8.372  0.00  0.00    +0.000 A 
ATOM      8  C   UNL     1      46.450   3.644   7.667  0.00  0.00    +0.000 A 
BRANCH   3  10
ATOM      9  N   UNL     1      48.388   1.997   6.479  0.00  0.00    +0.000 N 
ATOM     10  C   UNL     1      47.285   1.400   7.023  0.00  0.00    +0.000 C 
ATOM     11  O   UNL     1      47.085   0.199   6.893  0.00  0.00    +0.000 OA
ATOM     12  H   UNL     1      49.061   1.376   6.047  0.00  0.00    +0.000 HD
ATOM     13  H   UNL     1      48.722   2.896   6.795  0.00  0.00    +0.000 HD
ENDBRANCH   3  10
ENDBRANCH   1   6
BRANCH   1  14
ATOM     14  C   UNL     1      43.383   4.770  11.277  0.00  0.00    +0.000 C 
BRANCH  14  15
ATOM     15  C   UNL     1      44.612   5.055  12.110  0.00  0.00    +0.000 A 
ATOM     16  C   UNL     1      45.012   4.143  13.081  0.00  0.00    +0.000 A 
ATOM     17  N   UNL     1      46.137   4.298  13.813  0.00  0.00    +0.000 NA
ATOM     18  C   UNL     1      46.851   5.415  13.536  0.00  0.00    +0.000 A 
ATOM     19  C   UNL     1      46.481   6.351  12.568  0.00  0.00    +0.000 A 
ATOM     20  N   UNL     1      45.340   6.175  11.846  0.00  0.00    +0.000 NA
BRANCH  19  21
ATOM     21  C   UNL     1      47.269   7.557  12.274  0.00  0.00    +0.000 A 
ATOM     22  C   UNL     1      48.635   7.494  11.960  0.00  0.00    +0.000 A 
ATOM     23  C   UNL     1      49.348   8.651  11.645  0.00  0.00    +0.000 A 
ATOM     24  C   UNL     1      48.676   9.859  11.661  0.00  0.00    +0.000 A 
ATOM     25  N   UNL     1      47.372   9.982  11.977  0.00  0.00    +0.000 NA
ATOM     26  C   UNL     1      46.710   8.838  12.280  0.00  0.00    +0.000 A 
ENDBRANCH  19  21
ENDBRANCH  14  15
ENDBRANCH   1  14
TORSDOF 5
ENDMDL
MODEL 2
REMARK VINA RESULT:    -8.068      1.706      3.557
REMARK INTER + INTRA:         -11.086
REMARK INTER:                 -10.625
REMARK INTRA:                  -0.460
REMARK UNBOUND:                -0.660
REMARK  Name = 
REMARK  5 active torsions:
REMARK  status: ('A' for Active; 'I' for Inactive)
REMARK    1  A    between atoms: C_2  and  C_4
REMARK    2  A    between atoms: C_7  and  N_8
REMARK    3  A    between atoms: N_8  and  C_9
REMARK    4  A    between atoms: C_9  and  C_10
REMARK    5  A    between atoms: C_14  and  C_15
REMARK                            x       y       z     vdW  Elec       q    Type
REMARK                         _______ _______ _______ _____ _____    ______ ____
ROOT
ATOM      1  N   UNL     1      43.768   3.790  10.578  0.00  0.00    +0.000 N 
ATOM      2  H   UNL     1      42.942   3.195  10.629  0.00  0.00    +0.000 HD
ENDROOT
BRANCH   1   6
ATOM      3  C   UNL     1      46.498   2.730   7.539  0.00  0.00    +0.000 A 
ATOM      4  C   UNL     1      46.158   4.071   7.720  0.00  0.00    +0.000 A 
ATOM      5  C   UNL     1      45.224   4.433   8.699  0.00  0.00    +0.000 A 
ATOM      6  C   UNL     1      44.594   3.472   9.502  0.00  0.00    +0.000 A 
ATOM      7  C   UNL     1      44.954   2.129   9.304  0.00  0.00    +0.000 A 
ATOM      8  C   UNL     1      45.880   1.756   8.322  0.00  0.00    +0.000 A 
BRANCH   3  10
ATOM      9  N   UNL     1      47.499   2.946   5.332  0.00  0.00    +0.000 N 
ATOM     10  C   UNL     1      47.516   2.310   6.543  0.00  0.00    +0.000 C 
ATOM     11  O   UNL     1      48.365   1.467   6.805  0.00  0.00    +0.000 OA
ATOM     12  H   UNL     1      48.274   2.743   4.713  0.00  0.00    +0.000 HD
ATOM     13  H   UNL     1      47.008   3.817   5.191  0.00  0.00    +0.000 HD
ENDBRANCH   3  10
ENDBRANCH   1   6
BRANCH   1  14
ATOM     14  C   UNL     1      43.442   5.177  10.911  0.00  0.00    +0.000 C 
BRANCH  14  15
ATOM     15  C   UNL     1      44.583   5.822  11.664  0.00  0.00    +0.000 A 
ATOM     16  C   UNL     1      44.887   7.161  11.437  0.00  0.00    +0.000 A 
ATOM     17  N   UNL     1      45.845   7.821  12.124  0.00  0.00    +0.000 NA
ATOM     18  C   UNL     1      46.498   7.081  13.051  0.00  0.00    +0.000 A 
ATOM     19  C   UNL     1      46.219   5.737  13.306  0.00  0.00    +0.000 A 
ATOM     20  N   UNL     1      45.251   5.091  12.598  0.00  0.00    +0.000 NA
BRANCH  19  21
ATOM     21  C   UNL     1      46.933   4.947  14.320  0.00  0.00    +0.000 A 
ATOM     22  C   UNL     1      47.491   5.536  15.465  0.00  0.00    +0.000 A 
ATOM     23  C   UNL     1      48.127   4.756  16.430  0.00  0.00    +0.000 A 
ATOM     24  C   UNL     1      48.201   3.390  16.225  0.00  0.00    +0.000 A 
ATOM     25  N   UNL     1      47.703   2.774  15.135  0.00  0.00    +0.000 NA
ATOM     26  C   UNL     1      47.094   3.562  14.216  0.00  0.00    +0.000 A 
ENDBRANCH  19  21
ENDBRANCH  14  15
ENDBRANCH   1  14
TORSDOF 5
ENDMDL
MODEL 3
REMARK VINA RESULT:    -7.827      2.795      6.552
REMARK INTER + INTRA:         -10.775
REMARK INTER:                 -10.185
REMARK INTRA:                  -0.590
REMARK UNBOUND:                -0.660
REMARK  Name = 
REMARK  5 active torsions:
REMARK  status: ('A' for Active; 'I' for Inactive)
REMARK    1  A    between atoms: C_2  and  C_4
REMARK    2  A    between atoms: C_7  and  N_8
REMARK    3  A    between atoms: N_8  and  C_9
REMARK    4  A    between atoms: C_9  and  C_10
REMARK    5  A    between atoms: C_14  and  C_15
REMARK                            x       y       z     vdW  Elec       q    Type
REMARK                         _______ _______ _______ _____ _____    ______ ____
ROOT
ATOM      1  N   UNL     1      43.733   6.304  12.393  0.00  0.00    +0.000 N 
ATOM      2  H   UNL     1      43.182   5.754  13.051  0.00  0.00    +0.000 HD
ENDROOT
BRANCH   1   6
ATOM      3  C   UNL     1      47.825   6.804  13.298  0.00  0.00    +0.000 A 
ATOM      4  C   UNL     1      47.212   5.575  13.545  0.00  0.00    +0.000 A 
ATOM      5  C   UNL     1      45.846   5.407  13.285  0.00  0.00    +0.000 A 
ATOM      6  C   UNL     1      45.058   6.458  12.798  0.00  0.00    +0.000 A 
ATOM      7  C   UNL     1      45.696   7.685  12.555  0.00  0.00    +0.000 A 
ATOM      8  C   UNL     1      47.059   7.866  12.820  0.00  0.00    +0.000 A 
BRANCH   3  10
ATOM      9  N   UNL     1      50.043   7.272  12.414  0.00  0.00    +0.000 N 
ATOM     10  C   UNL     1      49.279   7.010  13.518  0.00  0.00    +0.000 C 
ATOM     11  O   UNL     1      49.769   6.996  14.640  0.00  0.00    +0.000 OA
ATOM     12  H   UNL     1      51.003   7.537  12.592  0.00  0.00    +0.000 HD
ATOM     13  H   UNL     1      49.636   7.562  11.537  0.00  0.00    +0.000 HD
ENDBRANCH   3  10
ENDBRANCH   1   6
BRANCH   1  14
ATOM     14  C   UNL     1      43.387   5.975  11.010  0.00  0.00    +0.000 C 
BRANCH  14  15
ATOM     15  C   UNL     1      43.732   4.534  10.707  0.00  0.00    +0.000 A 
ATOM     16  C   UNL     1      43.141   3.515  11.446  0.00  0.00    +0.000 A 
ATOM     17  N   UNL     1      43.347   2.206  11.185  0.00  0.00    +0.000 NA
ATOM     18  C   UNL     1      44.180   1.953  10.147  0.00  0.00    +0.000 A 
ATOM     19  C   UNL     1      44.789   2.950   9.382  0.00  0.00    +0.000 A 
ATOM     20  N   UNL     1      44.569   4.263   9.668  0.00  0.00    +0.000 NA
BRANCH  19  21
ATOM     21  C   UNL     1      45.687   2.661   8.254  0.00  0.00    +0.000 A 
ATOM     22  C   UNL     1      45.985   3.622   7.276  0.00  0.00    +0.000 A 
ATOM     23  C   UNL     1      46.873   3.333   6.240  0.00  0.00    +0.000 A 
ATOM     24  C   UNL     1      47.442   2.074   6.197  0.00  0.00    +0.000 A 
ATOM     25  N   UNL     1      47.176   1.106   7.096  0.00  0.00    +0.000 NA
ATOM     26  C   UNL     1      46.307   1.420   8.088  0.00  0.00    +0.000 A 
ENDBRANCH  19  21
ENDBRANCH  14  15
ENDBRANCH   1  14
TORSDOF 5
ENDMDL
MODEL 4
REMARK VINA RESULT:    -7.251      3.222      7.377
REMARK INTER + INTRA:         -10.030
REMARK INTER:                  -9.658
REMARK INTRA:                  -0.372
REMARK UNBOUND:                -0.660
REMARK  Name = 
REMARK  5 active torsions:
REMARK  status: ('A' for Active; 'I' for Inactive)
REMARK    1  A    between atoms: C_2  and  C_4
REMARK    2  A    between atoms: C_7  and  N_8
REMARK    3  A    between atoms: N_8  and  C_9
REMARK    4  A    between atoms: C_9  and  C_10
REMARK    5  A    between atoms: C_14  and  C_15
REMARK                            x       y       z     vdW  Elec       q    Type
REMARK                         _______ _______ _______ _____ _____    ______ ____
ROOT
ATOM      1  N   UNL     1      46.640   6.106  12.010  0.00  0.00    +0.000 N 
ATOM      2  H   UNL     1      47.050   6.959  11.632  0.00  0.00    +0.000 HD
ENDROOT
BRANCH   1   6
ATOM      3  C   UNL     1      47.903   5.134  15.919  0.00  0.00    +0.000 A 
ATOM      4  C   UNL     1      48.401   6.282  15.301  0.00  0.00    +0.000 A 
ATOM      5  C   UNL     1      48.020   6.596  13.990  0.00  0.00    +0.000 A 
ATOM      6  C   UNL     1      47.157   5.768  13.259  0.00  0.00    +0.000 A 
ATOM      7  C   UNL     1      46.666   4.620  13.902  0.00  0.00    +0.000 A 
ATOM      8  C   UNL     1      47.048   4.292  15.209  0.00  0.00    +0.000 A 
BRANCH   3  10
ATOM      9  N   UNL     1      47.252   4.250  18.090  0.00  0.00    +0.000 N 
ATOM     10  C   UNL     1      48.247   4.790  17.321  0.00  0.00    +0.000 C 
ATOM     11  O   UNL     1      49.380   4.935  17.761  0.00  0.00    +0.000 OA
ATOM     12  H   UNL     1      47.533   3.902  18.998  0.00  0.00    +0.000 HD
ATOM     13  H   UNL     1      46.411   3.866  17.685  0.00  0.00    +0.000 HD
ENDBRANCH   3  10
ENDBRANCH   1   6
BRANCH   1  14
ATOM     14  C   UNL     1      45.205   6.040  11.730  0.00  0.00    +0.000 C 
BRANCH  14  15
ATOM     15  C   UNL     1      44.847   4.708  11.111  0.00  0.00    +0.000 A 
ATOM     16  C   UNL     1      43.795   3.966  11.636  0.00  0.00    +0.000 A 
ATOM     17  N   UNL     1      43.375   2.803  11.091  0.00  0.00    +0.000 NA
ATOM     18  C   UNL     1      44.059   2.406   9.992  0.00  0.00    +0.000 A 
ATOM     19  C   UNL     1      45.118   3.126   9.436  0.00  0.00    +0.000 A 
ATOM     20  N   UNL     1      45.527   4.294  10.006  0.00  0.00    +0.000 NA
BRANCH  19  21
ATOM     21  C   UNL     1      45.848   2.685   8.238  0.00  0.00    +0.000 A 
ATOM     22  C   UNL     1      46.093   3.547   7.158  0.00  0.00    +0.000 A 
ATOM     23  C   UNL     1      46.824   3.113   6.053  0.00  0.00    +0.000 A 
ATOM     24  C   UNL     1      47.291   1.812   6.045  0.00  0.00    +0.000 A 
ATOM     25  N   UNL     1      47.067   0.935   7.043  0.00  0.00    +0.000 NA
ATOM     26  C   UNL     1      46.351   1.389   8.101  0.00  0.00    +0.000 A 
ENDBRANCH  19  21
ENDBRANCH  14  15
ENDBRANCH   1  14
TORSDOF 5
ENDMDL
MODEL 5
REMARK VINA RESULT:    -6.830      4.240      8.055
REMARK INTER + INTRA:          -9.486
REMARK INTER:                  -9.104
REMARK INTRA:                  -0.382
REMARK UNBOUND:                -0.660
REMARK  Name = 
REMARK  5 active torsions:
REMARK  status: ('A' for Active; 'I' for Inactive)
REMARK    1  A    between atoms: C_2  and  C_4
REMARK    2  A    between atoms: C_7  and  N_8
REMARK    3  A    between atoms: N_8  and  C_9
REMARK    4  A    between atoms: C_9  and  C_10
REMARK    5  A    between atoms: C_14  and  C_15
REMARK                            x       y       z     vdW  Elec       q    Type
REMARK                         _______ _______ _______ _____ _____    ______ ____
ROOT
ATOM      1  N   UNL     1      46.568   4.258  14.478  0.00  0.00    +0.000 N 
ATOM      2  H   UNL     1      46.994   3.639  13.789  0.00  0.00    +0.000 HD
ENDROOT
BRANCH   1   6
ATOM      3  C   UNL     1      48.551   4.584  18.189  0.00  0.00    +0.000 A 
ATOM      4  C   UNL     1      48.686   5.603  17.247  0.00  0.00    +0.000 A 
ATOM      5  C   UNL     1      48.065   5.491  15.996  0.00  0.00    +0.000 A 
ATOM      6  C   UNL     1      47.318   4.357  15.649  0.00  0.00    +0.000 A 
ATOM      7  C   UNL     1      47.194   3.345  16.614  0.00  0.00    +0.000 A 
ATOM      8  C   UNL     1      47.818   3.444  17.864  0.00  0.00    +0.000 A 
BRANCH   3  10
ATOM      9  N   UNL     1      48.631   3.886  20.518  0.00  0.00    +0.000 N 
ATOM     10  C   UNL     1      49.157   4.685  19.542  0.00  0.00    +0.000 C 
ATOM     11  O   UNL     1      50.116   5.413  19.765  0.00  0.00    +0.000 OA
ATOM     12  H   UNL     1      49.134   3.869  21.397  0.00  0.00    +0.000 HD
ATOM     13  H   UNL     1      48.046   3.092  20.304  0.00  0.00    +0.000 HD
ENDBRANCH   3  10
ENDBRANCH   1   6
BRANCH   1  14
ATOM     14  C   UNL     1      45.985   5.438  13.838  0.00  0.00    +0.000 C 
BRANCH  14  15
ATOM     15  C   UNL     1      45.067   5.028  12.709  0.00  0.00    +0.000 A 
ATOM     16  C   UNL     1      43.696   5.229  12.830  0.00  0.00    +0.000 A 
ATOM     17  N   UNL     1      42.825   4.953  11.834  0.00  0.00    +0.000 NA
ATOM     18  C   UNL     1      43.385   4.459  10.704  0.00  0.00    +0.000 A 
ATOM     19  C   UNL     1      44.755   4.246  10.547  0.00  0.00    +0.000 A 
ATOM     20  N   UNL     1      45.614   4.528  11.567  0.00  0.00    +0.000 NA
BRANCH  19  21
ATOM     21  C   UNL     1      45.350   3.713   9.312  0.00  0.00    +0.000 A 
ATOM     22  C   UNL     1      45.527   2.337   9.106  0.00  0.00    +0.000 A 
ATOM     23  C   UNL     1      46.055   1.858   7.907  0.00  0.00    +0.000 A 
ATOM     24  C   UNL     1      46.409   2.775   6.935  0.00  0.00    +0.000 A 
ATOM     25  N   UNL     1      46.282   4.108   7.087  0.00  0.00    +0.000 NA
ATOM     26  C   UNL     1      45.767   4.539   8.265  0.00  0.00    +0.000 A 
ENDBRANCH  19  21
ENDBRANCH  14  15
ENDBRANCH   1  14
TORSDOF 5
ENDMDL
MODEL 6
REMARK VINA RESULT:    -6.734      1.429      2.032
REMARK INTER + INTRA:          -9.363
REMARK INTER:                  -8.852
REMARK INTRA:                  -0.510
REMARK UNBOUND:                -0.660
REMARK  Name = 
REMARK  5 active torsions:
REMARK  status: ('A' for Active; 'I' for Inactive)
REMARK    1  A    between atoms: C_2  and  C_4
REMARK    2  A    between atoms: C_7  and  N_8
REMARK    3  A    between atoms: N_8  and  C_9
REMARK    4  A    between atoms: C_9  and  C_10
REMARK    5  A    between atoms: C_14  and  C_15
REMARK                            x       y       z     vdW  Elec       q    Type
REMARK                         _______ _______ _______ _____ _____    ______ ____
ROOT
ATOM      1  N   UNL     1      43.875   4.514  11.655  0.00  0.00    +0.000 N 
ATOM      2  H   UNL     1      42.890   4.272  11.753  0.00  0.00    +0.000 HD
ENDROOT
BRANCH   1   6
ATOM      3  C   UNL     1      45.793   2.979   8.223  0.00  0.00    +0.000 A 
ATOM      4  C   UNL     1      45.712   4.359   8.404  0.00  0.00    +0.000 A 
ATOM      5  C   UNL     1      45.045   4.884   9.519  0.00  0.00    +0.000 A 
ATOM      6  C   UNL     1      44.427   4.051  10.462  0.00  0.00    +0.000 A 
ATOM      7  C   UNL     1      44.524   2.664  10.260  0.00  0.00    +0.000 A 
ATOM      8  C   UNL     1      45.181   2.131   9.144  0.00  0.00    +0.000 A 
BRANCH   3  10
ATOM      9  N   UNL     1      47.128   1.172   7.289  0.00  0.00    +0.000 N 
ATOM     10  C   UNL     1      46.529   2.383   7.079  0.00  0.00    +0.000 C 
ATOM     11  O   UNL     1      46.560   2.924   5.980  0.00  0.00    +0.000 OA
ATOM     12  H   UNL     1      47.513   0.719   6.470  0.00  0.00    +0.000 HD
ATOM     13  H   UNL     1      46.888   0.584   8.074  0.00  0.00    +0.000 HD
ENDBRANCH   3  10
ENDBRANCH   1   6
BRANCH   1  14
ATOM     14  C   UNL     1      44.138   5.867  12.146  0.00  0.00    +0.000 C 
BRANCH  14  15
ATOM     15  C   UNL     1      45.552   5.974  12.671  0.00  0.00    +0.000 A 
ATOM     16  C   UNL     1      46.025   5.025  13.571  0.00  0.00    +0.000 A 
ATOM     17  N   UNL     1      47.297   5.017  14.026  0.00  0.00    +0.000 NA
ATOM     18  C   UNL     1      48.083   6.009  13.546  0.00  0.00    +0.000 A 
ATOM     19  C   UNL     1      47.643   6.978  12.642  0.00  0.00    +0.000 A 
ATOM     20  N   UNL     1      46.355   6.968  12.200  0.00  0.00    +0.000 NA
BRANCH  19  21
ATOM     21  C   UNL     1      48.510   8.047  12.124  0.00  0.00    +0.000 A 
ATOM     22  C   UNL     1      48.030   9.345  11.890  0.00  0.00    +0.000 A 
ATOM     23  C   UNL     1      48.885  10.350  11.438  0.00  0.00    +0.000 A 
ATOM     24  C   UNL     1      50.212  10.031  11.217  0.00  0.00    +0.000 A 
ATOM     25  N   UNL     1      50.722   8.798  11.403  0.00  0.00    +0.000 NA
ATOM     26  C   UNL     1      49.863   7.845  11.841  0.00  0.00    +0.000 A 
ENDBRANCH  19  21
ENDBRANCH  14  15
ENDBRANCH   1  14
TORSDOF 5
ENDMDL
MODEL 7
REMARK VINA RESULT:    -6.439      4.806      7.153
REMARK INTER + INTRA:          -8.981
REMARK INTER:                  -8.521
REMARK INTRA:                  -0.460
REMARK UNBOUND:                -0.660
REMARK  Name = 
REMARK  5 active torsions:
REMARK  status: ('A' for Active; 'I' for Inactive)
REMARK    1  A    between atoms: C_2  and  C_4
REMARK    2  A    between atoms: C_7  and  N_8
REMARK    3  A    between atoms: N_8  and  C_9
REMARK    4  A    between atoms: C_9  and  C_10
REMARK    5  A    between atoms: C_14  and  C_15
REMARK                            x       y       z     vdW  Elec       q    Type
REMARK                         _______ _______ _______ _____ _____    ______ ____
ROOT
ATOM      1  N   UNL     1      48.173   6.035  14.044  0.00  0.00    +0.000 N 
ATOM      2  H   UNL     1      48.925   5.386  13.818  0.00  0.00    +0.000 HD
ENDROOT
BRANCH   1   6
ATOM      3  C   UNL     1      44.432   5.288  12.239  0.00  0.00    +0.000 A 
ATOM      4  C   UNL     1      45.259   4.216  12.573  0.00  0.00    +0.000 A 
ATOM      5  C   UNL     1      46.520   4.451  13.138  0.00  0.00    +0.000 A 
ATOM      6  C   UNL     1      46.992   5.751  13.361  0.00  0.00    +0.000 A 
ATOM      7  C   UNL     1      46.141   6.814  13.018  0.00  0.00    +0.000 A 
ATOM      8  C   UNL     1      44.884   6.591  12.445  0.00  0.00    +0.000 A 
BRANCH   3  10
ATOM      9  N   UNL     1      42.234   6.161  11.670  0.00  0.00    +0.000 N 
ATOM     10  C   UNL     1      43.072   5.081  11.680  0.00  0.00    +0.000 C 
ATOM     11  O   UNL     1      42.728   4.006  11.203  0.00  0.00    +0.000 OA
ATOM     12  H   UNL     1      41.361   6.041  11.172  0.00  0.00    +0.000 HD
ATOM     13  H   UNL     1      42.573   7.104  11.791  0.00  0.00    +0.000 HD
ENDBRANCH   3  10
ENDBRANCH   1   6
BRANCH   1  14
ATOM     14  C   UNL     1      48.173   6.367  15.470  0.00  0.00    +0.000 C 
BRANCH  14  15
ATOM     15  C   UNL     1      48.229   5.109  16.306  0.00  0.00    +0.000 A 
ATOM     16  C   UNL     1      47.047   4.489  16.697  0.00  0.00    +0.000 A 
ATOM     17  N   UNL     1      47.022   3.326  17.383  0.00  0.00    +0.000 NA
ATOM     18  C   UNL     1      48.238   2.804  17.670  0.00  0.00    +0.000 A 
ATOM     19  C   UNL     1      49.445   3.397  17.293  0.00  0.00    +0.000 A 
ATOM     20  N   UNL     1      49.445   4.572  16.605  0.00  0.00    +0.000 NA
BRANCH  19  21
ATOM     21  C   UNL     1      50.758   2.816  17.608  0.00  0.00    +0.000 A 
ATOM     22  C   UNL     1      51.074   1.484  17.303  0.00  0.00    +0.000 A 
ATOM     23  C   UNL     1      52.342   0.972  17.576  0.00  0.00    +0.000 A 
ATOM     24  C   UNL     1      53.275   1.807  18.162  0.00  0.00    +0.000 A 
ATOM     25  N   UNL     1      53.020   3.088  18.497  0.00  0.00    +0.000 NA
ATOM     26  C   UNL     1      51.776   3.552  18.220  0.00  0.00    +0.000 A 
ENDBRANCH  19  21
ENDBRANCH  14  15
ENDBRANCH   1  14
TORSDOF 5
ENDMDL
MODEL 8
REMARK VINA RESULT:    -6.404      3.368      5.769
REMARK INTER + INTRA:          -8.935
REMARK INTER:                  -8.435
REMARK INTRA:                  -0.500
REMARK UNBOUND:                -0.660
REMARK  Name = 
REMARK  5 active torsions:
REMARK  status: ('A' for Active; 'I' for Inactive)
REMARK    1  A    between atoms: C_2  and  C_4
REMARK    2  A    between atoms: C_7  and  N_8
REMARK    3  A    between atoms: N_8  and  C_9
REMARK    4  A    between atoms: C_9  and  C_10
REMARK    5  A    between atoms: C_14  and  C_15
REMARK                            x       y       z     vdW  Elec       q    Type
REMARK                         _______ _______ _______ _____ _____    ______ ____
ROOT
ATOM      1  N   UNL     1      46.999   7.569  12.296  0.00  0.00    +0.000 N 
ATOM      2  H   UNL     1      46.756   8.448  11.841  0.00  0.00    +0.000 HD
ENDROOT
BRANCH   1   6
ATOM      3  C   UNL     1      44.748   4.171  11.200  0.00  0.00    +0.000 A 
ATOM      4  C   UNL     1      45.144   5.079  10.218  0.00  0.00    +0.000 A 
ATOM      5  C   UNL     1      45.859   6.231  10.572  0.00  0.00    +0.000 A 
ATOM      6  C   UNL     1      46.174   6.515  11.908  0.00  0.00    +0.000 A 
ATOM      7  C   UNL     1      45.768   5.586  12.879  0.00  0.00    +0.000 A 
ATOM      8  C   UNL     1      45.046   4.436  12.536  0.00  0.00    +0.000 A 
BRANCH   3  10
ATOM      9  N   UNL     1      44.580   2.128   9.890  0.00  0.00    +0.000 N 
ATOM     10  C   UNL     1      44.029   2.917  10.861  0.00  0.00    +0.000 C 
ATOM     11  O   UNL     1      43.014   2.575  11.455  0.00  0.00    +0.000 OA
ATOM     12  H   UNL     1      44.153   1.220   9.760  0.00  0.00    +0.000 HD
ATOM     13  H   UNL     1      45.538   2.238   9.589  0.00  0.00    +0.000 HD
ENDBRANCH   3  10
ENDBRANCH   1   6
BRANCH   1  14
ATOM     14  C   UNL     1      48.450   7.410  12.397  0.00  0.00    +0.000 C 
BRANCH  14  15
ATOM     15  C   UNL     1      48.872   7.307  13.845  0.00  0.00    +0.000 A 
ATOM     16  C   UNL     1      49.562   8.359  14.437  0.00  0.00    +0.000 A 
ATOM     17  N   UNL     1      49.908   8.365  15.744  0.00  0.00    +0.000 NA
ATOM     18  C   UNL     1      49.537   7.264  16.439  0.00  0.00    +0.000 A 
ATOM     19  C   UNL     1      48.842   6.190  15.879  0.00  0.00    +0.000 A 
ATOM     20  N   UNL     1      48.509   6.205  14.558  0.00  0.00    +0.000 NA
BRANCH  19  21
ATOM     21  C   UNL     1      48.441   5.003  16.647  0.00  0.00    +0.000 A 
ATOM     22  C   UNL     1      49.247   4.469  17.664  0.00  0.00    +0.000 A 
ATOM     23  C   UNL     1      48.822   3.366  18.405  0.00  0.00    +0.000 A 
ATOM     24  C   UNL     1      47.593   2.809  18.104  0.00  0.00    +0.000 A 
ATOM     25  N   UNL     1      46.788   3.266  17.125  0.00  0.00    +0.000 NA
ATOM     26  C   UNL     1      47.233   4.337  16.423  0.00  0.00    +0.000 A 
ENDBRANCH  19  21
ENDBRANCH  14  15
ENDBRANCH   1  14
TORSDOF 5
ENDMDL
MODEL 9
REMARK VINA RESULT:    -6.400      5.020      8.152
REMARK INTER + INTRA:          -8.931
REMARK INTER:                  -8.310
REMARK INTRA:                  -0.620
REMARK UNBOUND:                -0.660
REMARK  Name = 
REMARK  5 active torsions:
REMARK  status: ('A' for Active; 'I' for Inactive)
REMARK    1  A    between atoms: C_2  and  C_4
REMARK    2  A    between atoms: C_7  and  N_8
REMARK    3  A    between atoms: N_8  and  C_9
REMARK    4  A    between atoms: C_9  and  C_10
REMARK    5  A    between atoms: C_14  and  C_15
REMARK                            x       y       z     vdW  Elec       q    Type
REMARK                         _______ _______ _______ _____ _____    ______ ____
ROOT
ATOM      1  N   UNL     1      48.868   5.703  17.238  0.00  0.00    +0.000 N 
ATOM      2  H   UNL     1      47.938   5.501  16.875  0.00  0.00    +0.000 HD
ENDROOT
BRANCH   1   6
ATOM      3  C   UNL     1      51.339   2.300  17.606  0.00  0.00    +0.000 A 
ATOM      4  C   UNL     1      49.988   2.138  17.299  0.00  0.00    +0.000 A 
ATOM      5  C   UNL     1      49.148   3.256  17.212  0.00  0.00    +0.000 A 
ATOM      6  C   UNL     1      49.626   4.552  17.448  0.00  0.00    +0.000 A 
ATOM      7  C   UNL     1      50.990   4.691  17.753  0.00  0.00    +0.000 A 
ATOM      8  C   UNL     1      51.835   3.580  17.852  0.00  0.00    +0.000 A 
BRANCH   3  10
ATOM      9  N   UNL     1      51.784  -0.019  18.192  0.00  0.00    +0.000 N 
ATOM     10  C   UNL     1      52.271   1.146  17.665  0.00  0.00    +0.000 C 
ATOM     11  O   UNL     1      53.409   1.213  17.218  0.00  0.00    +0.000 OA
ATOM     12  H   UNL     1      52.385  -0.829  18.108  0.00  0.00    +0.000 HD
ATOM     13  H   UNL     1      50.795  -0.184  18.304  0.00  0.00    +0.000 HD
ENDBRANCH   3  10
ENDBRANCH   1   6
BRANCH   1  14
ATOM     14  C   UNL     1      49.438   6.889  16.599  0.00  0.00    +0.000 C 
BRANCH  14  15
ATOM     15  C   UNL     1      49.114   6.903  15.122  0.00  0.00    +0.000 A 
ATOM     16  C   UNL     1      49.906   7.642  14.251  0.00  0.00    +0.000 A 
ATOM     17  N   UNL     1      49.719   7.644  12.913  0.00  0.00    +0.000 NA
ATOM     18  C   UNL     1      48.694   6.873  12.477  0.00  0.00    +0.000 A 
ATOM     19  C   UNL     1      47.880   6.117  13.322  0.00  0.00    +0.000 A 
ATOM     20  N   UNL     1      48.086   6.135  14.668  0.00  0.00    +0.000 NA
BRANCH  19  21
ATOM     21  C   UNL     1      46.774   5.280  12.834  0.00  0.00    +0.000 A 
ATOM     22  C   UNL     1      45.928   5.697  11.796  0.00  0.00    +0.000 A 
ATOM     23  C   UNL     1      44.912   4.865  11.326  0.00  0.00    +0.000 A 
ATOM     24  C   UNL     1      44.755   3.625  11.917  0.00  0.00    +0.000 A 
ATOM     25  N   UNL     1      45.523   3.181  12.931  0.00  0.00    +0.000 NA
ATOM     26  C   UNL     1      46.499   4.016  13.365  0.00  0.00    +0.000 A 
ENDBRANCH  19  21
ENDBRANCH  14  15
ENDBRANCH   1  14
TORSDOF 5
ENDMDL
