MODEL 1
REMARK VINA RESULT:    -9.186      0.000      0.000
REMARK INTER + INTRA:         -11.744
REMARK INTER:                 -11.871
REMARK INTRA:                   0.128
REMARK UNBOUND:                 0.128
REMARK  Name = 
REMARK  5 active torsions:
REMARK  status: ('A' for Active; 'I' for Inactive)
REMARK    1  A    between atoms: C_2  and  C_4
REMARK    2  A    between atoms: N_8  and  C_9
REMARK    3  A    between atoms: C_9  and  C_10
REMARK    4  A    between atoms: C_10  and  N_11
REMARK    5  A    between atoms: C_14  and  N_15
REMARK                            x       y       z     vdW  Elec       q    Type
REMARK                         _______ _______ _______ _____ _____    ______ ____
ROOT
ATOM      1  C   UNL     1      44.592   4.097  12.066  0.00  0.00    +0.000 C 
ENDROOT
BRANCH   1   2
ATOM      2  N   UNL     1      44.927   5.106  13.098  0.00  0.00    +0.000 NA
ATOM      3  C   UNL     1      45.428   6.347  12.478  0.00  0.00    +0.000 C 
ATOM      4  C   UNL     1      46.917   6.117  12.288  0.00  0.00    +0.000 C 
ATOM      5  C   UNL     1      47.315   5.443  13.597  0.00  0.00    +0.000 C 
ATOM      6  C   UNL     1      46.029   4.677  13.993  0.00  0.00    +0.000 C 
BRANCH   5   7
ATOM      7  N   UNL     1      47.662   6.467  14.599  0.00  0.00    +0.000 N 
ATOM      8  C   UNL     1      48.284   5.977  15.761  0.00  0.00    +0.000 A 
ATOM      9  C   UNL     1      48.718   6.896  16.715  0.00  0.00    +0.000 A 
ATOM     10  C   UNL     1      49.351   6.445  17.873  0.00  0.00    +0.000 A 
ATOM     11  C   UNL     1      49.530   5.081  18.054  0.00  0.00    +0.000 A 
ATOM     12  C   UNL     1      49.074   4.242  17.056  0.00  0.00    +0.000 A 
ATOM     13 CL   UNL     1      49.222   2.539  17.198  0.00  0.00    +0.000 Cl
ATOM     14  N   UNL     1      48.474   4.655  15.922  0.00  0.00    +0.000 NA
ATOM     15  H   UNL     1      46.871   7.043  14.872  0.00  0.00    +0.000 HD
ENDBRANCH   5   7
ENDBRANCH   1   2
BRANCH   1  16
ATOM     16  C   UNL     1      43.421   4.532  11.158  0.00  0.00    +0.000 C 
BRANCH  16  21
ATOM     17  C   UNL     1      46.502   2.490   7.703  0.00  0.00    +0.000 A 
ATOM     18  C   UNL     1      45.641   1.885   8.609  0.00  0.00    +0.000 A 
ATOM     19  C   UNL     1      44.763   2.681   9.341  0.00  0.00    +0.000 A 
ATOM     20  C   UNL     1      44.775   4.065   9.179  0.00  0.00    +0.000 A 
ATOM     21  N   UNL     1      43.873   4.905   9.823  0.00  0.00    +0.000 N 
ATOM     22  N   UNL     1      45.637   4.663   8.335  0.00  0.00    +0.000 NA
ATOM     23  C   UNL     1      46.478   3.873   7.619  0.00  0.00    +0.000 A 
ATOM     24  H   UNL     1      44.199   5.862   9.695  0.00  0.00    +0.000 HD
BRANCH  17  26
ATOM     25  N   UNL     1      48.540   2.360   6.389  0.00  0.00    +0.000 N 
ATOM     26  C   UNL     1      47.420   1.715   6.840  0.00  0.00    +0.000 C 
ATOM     27  O   UNL     1      47.211   0.540   6.573  0.00  0.00    +0.000 OA
ATOM     28  H   UNL     1      49.216   1.790   5.896  0.00  0.00    +0.000 HD
ATOM     29  H   UNL     1      48.868   3.228   6.789  0.00  0.00    +0.000 HD
ENDBRANCH  17  26
ENDBRANCH  16  21
ENDBRANCH   1  16
TORSDOF 5
ENDMDL
MODEL 2
REMARK VINA RESULT:    -8.968      3.108      4.065
REMARK INTER + INTRA:         -11.462
REMARK INTER:                 -11.058
REMARK INTRA:                  -0.404
REMARK UNBOUND:                 0.128
REMARK  Name = 
REMARK  5 active torsions:
REMARK  status: ('A' for Active; 'I' for Inactive)
REMARK    1  A    between atoms: C_2  and  C_4
REMARK    2  A    between atoms: N_8  and  C_9
REMARK    3  A    between atoms: C_9  and  C_10
REMARK    4  A    between atoms: C_10  and  N_11
REMARK    5  A    between atoms: C_14  and  N_15
REMARK                            x       y       z     vdW  Elec       q    Type
REMARK                         _______ _______ _______ _____ _____    ______ ____
ROOT
ATOM      1  C   UNL     1      44.238   5.019  12.319  0.00  0.00    +0.000 C 
ENDROOT
BRANCH   1   2
ATOM      2  N   UNL     1      45.681   4.943  11.997  0.00  0.00    +0.000 NA
ATOM      3  C   UNL     1      46.456   4.468  13.160  0.00  0.00    +0.000 C 
ATOM      4  C   UNL     1      46.752   5.718  13.970  0.00  0.00    +0.000 C 
ATOM      5  C   UNL     1      47.121   6.730  12.891  0.00  0.00    +0.000 C 
ATOM      6  C   UNL     1      46.276   6.264  11.680  0.00  0.00    +0.000 C 
BRANCH   5   7
ATOM      7  N   UNL     1      48.564   6.648  12.604  0.00  0.00    +0.000 N 
ATOM      8  C   UNL     1      49.140   7.827  12.101  0.00  0.00    +0.000 A 
ATOM      9  C   UNL     1      50.518   7.850  11.887  0.00  0.00    +0.000 A 
ATOM     10  C   UNL     1      51.124   9.009  11.402  0.00  0.00    +0.000 A 
ATOM     11  C   UNL     1      50.336  10.119  11.135  0.00  0.00    +0.000 A 
ATOM     12  C   UNL     1      48.981  10.011  11.380  0.00  0.00    +0.000 A 
ATOM     13 CL   UNL     1      47.918  11.317  11.056  0.00  0.00    +0.000 Cl
ATOM     14  N   UNL     1      48.375   8.908  11.863  0.00  0.00    +0.000 NA
ATOM     15  H   UNL     1      48.805   5.879  11.985  0.00  0.00    +0.000 HD
ENDBRANCH   5   7
ENDBRANCH   1   2
BRANCH   1  16
ATOM     16  C   UNL     1      43.345   4.373  11.237  0.00  0.00    +0.000 C 
BRANCH  16  21
ATOM     17  C   UNL     1      46.442   2.466   7.720  0.00  0.00    +0.000 A 
ATOM     18  C   UNL     1      45.632   1.825   8.648  0.00  0.00    +0.000 A 
ATOM     19  C   UNL     1      44.733   2.581   9.397  0.00  0.00    +0.000 A 
ATOM     20  C   UNL     1      44.675   3.964   9.230  0.00  0.00    +0.000 A 
ATOM     21  N   UNL     1      43.749   4.762   9.891  0.00  0.00    +0.000 N 
ATOM     22  N   UNL     1      45.489   4.598   8.364  0.00  0.00    +0.000 NA
ATOM     23  C   UNL     1      46.350   3.847   7.633  0.00  0.00    +0.000 A 
ATOM     24  H   UNL     1      44.025   5.733   9.753  0.00  0.00    +0.000 HD
BRANCH  17  26
ATOM     25  N   UNL     1      48.472   2.419   6.388  0.00  0.00    +0.000 N 
ATOM     26  C   UNL     1      47.377   1.733   6.840  0.00  0.00    +0.000 C 
ATOM     27  O   UNL     1      47.203   0.555   6.559  0.00  0.00    +0.000 OA
ATOM     28  H   UNL     1      49.161   1.877   5.881  0.00  0.00    +0.000 HD
ATOM     29  H   UNL     1      48.774   3.292   6.796  0.00  0.00    +0.000 HD
ENDBRANCH  17  26
ENDBRANCH  16  21
ENDBRANCH   1  16
TORSDOF 5
ENDMDL
MODEL 3
REMARK VINA RESULT:    -8.855      2.433      2.792
REMARK INTER + INTRA:         -11.316
REMARK INTER:                 -11.265
REMARK INTRA:                  -0.052
REMARK UNBOUND:                 0.128
REMARK  Name = 
REMARK  5 active torsions:
REMARK  status: ('A' for Active; 'I' for Inactive)
REMARK    1  A    between atoms: C_2  and  C_4
REMARK    2  A    between atoms: N_8  and  C_9
REMARK    3  A    between atoms: C_9  and  C_10
REMARK    4  A    between atoms: C_10  and  N_11
REMARK    5  A    between atoms: C_14  and  N_15
REMARK                            x       y       z     vdW  Elec       q    Type
REMARK                         _______ _______ _______ _____ _____    ______ ____
ROOT
ATOM      1  C   UNL     1      44.623   3.500  12.046  0.00  0.00    +0.000 C 
ENDROOT
BRANCH   1   2
ATOM      2  N   UNL     1      44.938   4.370  13.203  0.00  0.00    +0.000 NA
ATOM      3  C   UNL     1      44.597   5.776  12.912  0.00  0.00    +0.000 C 
ATOM      4  C   UNL     1      45.823   6.341  12.215  0.00  0.00    +0.000 C 
ATOM      5  C   UNL     1      46.967   5.757  13.038  0.00  0.00    +0.000 C 
ATOM      6  C   UNL     1      46.385   4.407  13.525  0.00  0.00    +0.000 C 
BRANCH   5   7
ATOM      7  N   UNL     1      47.272   6.651  14.170  0.00  0.00    +0.000 N 
ATOM      8  C   UNL     1      48.386   7.488  13.983  0.00  0.00    +0.000 A 
ATOM      9  C   UNL     1      48.684   8.421  14.977  0.00  0.00    +0.000 A 
ATOM     10  C   UNL     1      49.775   9.276  14.818  0.00  0.00    +0.000 A 
ATOM     11  C   UNL     1      50.547   9.175  13.670  0.00  0.00    +0.000 A 
ATOM     12  C   UNL     1      50.178   8.227  12.736  0.00  0.00    +0.000 A 
ATOM     13 CL   UNL     1      51.085   8.004  11.298  0.00  0.00    +0.000 Cl
ATOM     14  N   UNL     1      49.120   7.400  12.860  0.00  0.00    +0.000 NA
ATOM     15  H   UNL     1      47.380   6.158  15.051  0.00  0.00    +0.000 HD
ENDBRANCH   5   7
ENDBRANCH   1   2
BRANCH   1  16
ATOM     16  C   UNL     1      43.403   3.991  11.238  0.00  0.00    +0.000 C 
BRANCH  16  21
ATOM     17  C   UNL     1      46.584   2.712   7.518  0.00  0.00    +0.000 A 
ATOM     18  C   UNL     1      45.801   1.917   8.344  0.00  0.00    +0.000 A 
ATOM     19  C   UNL     1      44.869   2.525   9.182  0.00  0.00    +0.000 A 
ATOM     20  C   UNL     1      44.752   3.914   9.204  0.00  0.00    +0.000 A 
ATOM     21  N   UNL     1      43.792   4.576   9.960  0.00  0.00    +0.000 N 
ATOM     22  N   UNL     1      45.539   4.694   8.438  0.00  0.00    +0.000 NA
ATOM     23  C   UNL     1      46.433   4.086   7.618  0.00  0.00    +0.000 A 
ATOM     24  H   UNL     1      44.026   5.567   9.957  0.00  0.00    +0.000 HD
BRANCH  17  26
ATOM     25  N   UNL     1      47.889   2.926   5.481  0.00  0.00    +0.000 N 
ATOM     26  C   UNL     1      47.551   2.145   6.553  0.00  0.00    +0.000 C 
ATOM     27  O   UNL     1      48.057   1.045   6.724  0.00  0.00    +0.000 OA
ATOM     28  H   UNL     1      48.634   2.577   4.890  0.00  0.00    +0.000 HD
ATOM     29  H   UNL     1      47.691   3.916   5.444  0.00  0.00    +0.000 HD
ENDBRANCH  17  26
ENDBRANCH  16  21
ENDBRANCH   1  16
TORSDOF 5
ENDMDL
MODEL 4
REMARK VINA RESULT:    -8.507      2.353      2.674
REMARK INTER + INTRA:         -10.867
REMARK INTER:                 -10.353
REMARK INTRA:                  -0.514
REMARK UNBOUND:                 0.128
REMARK  Name = 
REMARK  5 active torsions:
REMARK  status: ('A' for Active; 'I' for Inactive)
REMARK    1  A    between atoms: C_2  and  C_4
REMARK    2  A    between atoms: N_8  and  C_9
REMARK    3  A    between atoms: C_9  and  C_10
REMARK    4  A    between atoms: C_10  and  N_11
REMARK    5  A    between atoms: C_14  and  N_15
REMARK                            x       y       z     vdW  Elec       q    Type
REMARK                         _______ _______ _______ _____ _____    ______ ____
ROOT
ATOM      1  C   UNL     1      44.089   5.095  12.252  0.00  0.00    +0.000 C 
ENDROOT
BRANCH   1   2
ATOM      2  N   UNL     1      45.521   5.273  11.917  0.00  0.00    +0.000 NA
ATOM      3  C   UNL     1      46.371   4.422  12.772  0.00  0.00    +0.000 C 
ATOM      4  C   UNL     1      46.612   5.244  14.026  0.00  0.00    +0.000 C 
ATOM      5  C   UNL     1      46.869   6.637  13.461  0.00  0.00    +0.000 C 
ATOM      6  C   UNL     1      46.011   6.648  12.172  0.00  0.00    +0.000 C 
BRANCH   5   7
ATOM      7  N   UNL     1      48.302   6.794  13.155  0.00  0.00    +0.000 N 
ATOM      8  C   UNL     1      49.006   7.650  14.020  0.00  0.00    +0.000 A 
ATOM      9  C   UNL     1      50.383   7.780  13.843  0.00  0.00    +0.000 A 
ATOM     10  C   UNL     1      51.114   8.611  14.692  0.00  0.00    +0.000 A 
ATOM     11  C   UNL     1      50.449   9.300  15.696  0.00  0.00    +0.000 A 
ATOM     12  C   UNL     1      49.085   9.109  15.802  0.00  0.00    +0.000 A 
ATOM     13 CL   UNL     1      48.168   9.937  16.991  0.00  0.00    +0.000 Cl
ATOM     14  N   UNL     1      48.360   8.300  15.004  0.00  0.00    +0.000 NA
ATOM     15  H   UNL     1      48.477   7.083  12.197  0.00  0.00    +0.000 HD
ENDBRANCH   5   7
ENDBRANCH   1   2
BRANCH   1  16
ATOM     16  C   UNL     1      43.298   4.365  11.145  0.00  0.00    +0.000 C 
BRANCH  16  21
ATOM     17  C   UNL     1      46.471   2.479   7.684  0.00  0.00    +0.000 A 
ATOM     18  C   UNL     1      45.641   1.833   8.591  0.00  0.00    +0.000 A 
ATOM     19  C   UNL     1      44.726   2.583   9.324  0.00  0.00    +0.000 A 
ATOM     20  C   UNL     1      44.671   3.967   9.165  0.00  0.00    +0.000 A 
ATOM     21  N   UNL     1      43.730   4.762   9.810  0.00  0.00    +0.000 N 
ATOM     22  N   UNL     1      45.503   4.607   8.320  0.00  0.00    +0.000 NA
ATOM     23  C   UNL     1      46.380   3.861   7.603  0.00  0.00    +0.000 A 
ATOM     24  H   UNL     1      44.010   5.734   9.684  0.00  0.00    +0.000 HD
BRANCH  17  26
ATOM     25  N   UNL     1      48.527   2.441   6.394  0.00  0.00    +0.000 N 
ATOM     26  C   UNL     1      47.425   1.752   6.819  0.00  0.00    +0.000 C 
ATOM     27  O   UNL     1      47.259   0.575   6.529  0.00  0.00    +0.000 OA
ATOM     28  H   UNL     1      49.228   1.903   5.899  0.00  0.00    +0.000 HD
ATOM     29  H   UNL     1      48.821   3.313   6.812  0.00  0.00    +0.000 HD
ENDBRANCH  17  26
ENDBRANCH  16  21
ENDBRANCH   1  16
TORSDOF 5
ENDMDL
MODEL 5
REMARK VINA RESULT:    -7.526      1.600      2.011
REMARK INTER + INTRA:          -9.598
REMARK INTER:                  -9.996
REMARK INTRA:                   0.397
REMARK UNBOUND:                 0.128
REMARK  Name = 
REMARK  5 active torsions:
REMARK  status: ('A' for Active; 'I' for Inactive)
REMARK    1  A    between atoms: C_2  and  C_4
REMARK    2  A    between atoms: N_8  and  C_9
REMARK    3  A    between atoms: C_9  and  C_10
REMARK    4  A    between atoms: C_10  and  N_11
REMARK    5  A    between atoms: C_14  and  N_15
REMARK                            x       y       z     vdW  Elec       q    Type
REMARK                         _______ _______ _______ _____ _____    ______ ____
ROOT
ATOM      1  C   UNL     1      43.557   4.438  12.345  0.00  0.00    +0.000 C 
ENDROOT
BRANCH   1   2
ATOM      2  N   UNL     1      44.146   5.764  12.643  0.00  0.00    +0.000 NA
ATOM      3  C   UNL     1      44.642   6.408  11.412  0.00  0.00    +0.000 C 
ATOM      4  C   UNL     1      46.053   5.876  11.232  0.00  0.00    +0.000 C 
ATOM      5  C   UNL     1      46.603   5.918  12.654  0.00  0.00    +0.000 C 
ATOM      6  C   UNL     1      45.340   5.685  13.518  0.00  0.00    +0.000 C 
BRANCH   5   7
ATOM      7  N   UNL     1      47.200   7.240  12.917  0.00  0.00    +0.000 N 
ATOM      8  C   UNL     1      48.023   7.306  14.055  0.00  0.00    +0.000 A 
ATOM      9  C   UNL     1      48.690   8.502  14.319  0.00  0.00    +0.000 A 
ATOM     10  C   UNL     1      49.524   8.598  15.433  0.00  0.00    +0.000 A 
ATOM     11  C   UNL     1      49.669   7.495  16.262  0.00  0.00    +0.000 A 
ATOM     12  C   UNL     1      48.975   6.350  15.924  0.00  0.00    +0.000 A 
ATOM     13 CL   UNL     1      49.065   4.943  16.900  0.00  0.00    +0.000 Cl
ATOM     14  N   UNL     1      48.176   6.228  14.845  0.00  0.00    +0.000 NA
ATOM     15  H   UNL     1      46.513   7.986  12.969  0.00  0.00    +0.000 HD
ENDBRANCH   5   7
ENDBRANCH   1   2
BRANCH   1  16
ATOM     16  C   UNL     1      43.659   4.055  10.853  0.00  0.00    +0.000 C 
BRANCH  16  21
ATOM     17  C   UNL     1      46.747   2.586   7.124  0.00  0.00    +0.000 A 
ATOM     18  C   UNL     1      46.419   3.859   7.571  0.00  0.00    +0.000 A 
ATOM     19  C   UNL     1      45.673   3.994   8.739  0.00  0.00    +0.000 A 
ATOM     20  C   UNL     1      45.242   2.861   9.428  0.00  0.00    +0.000 A 
ATOM     21  N   UNL     1      44.561   2.930  10.637  0.00  0.00    +0.000 N 
ATOM     22  N   UNL     1      45.519   1.622   8.976  0.00  0.00    +0.000 NA
ATOM     23  C   UNL     1      46.257   1.507   7.844  0.00  0.00    +0.000 A 
ATOM     24  H   UNL     1      44.197   1.999  10.839  0.00  0.00    +0.000 HD
BRANCH  17  26
ATOM     25  N   UNL     1      47.396   3.189   4.863  0.00  0.00    +0.000 N 
ATOM     26  C   UNL     1      47.589   2.354   5.930  0.00  0.00    +0.000 C 
ATOM     27  O   UNL     1      48.447   1.482   5.910  0.00  0.00    +0.000 OA
ATOM     28  H   UNL     1      48.052   3.095   4.098  0.00  0.00    +0.000 HD
ATOM     29  H   UNL     1      46.889   4.059   4.936  0.00  0.00    +0.000 HD
ENDBRANCH  17  26
ENDBRANCH  16  21
ENDBRANCH   1  16
TORSDOF 5
ENDMDL
MODEL 6
REMARK VINA RESULT:    -7.170      3.540      8.281
REMARK INTER + INTRA:          -9.139
REMARK INTER:                  -8.632
REMARK INTRA:                  -0.506
REMARK UNBOUND:                 0.128
REMARK  Name = 
REMARK  5 active torsions:
REMARK  status: ('A' for Active; 'I' for Inactive)
REMARK    1  A    between atoms: C_2  and  C_4
REMARK    2  A    between atoms: N_8  and  C_9
REMARK    3  A    between atoms: C_9  and  C_10
REMARK    4  A    between atoms: C_10  and  N_11
REMARK    5  A    between atoms: C_14  and  N_15
REMARK                            x       y       z     vdW  Elec       q    Type
REMARK                         _______ _______ _______ _____ _____    ______ ____
ROOT
ATOM      1  C   UNL     1      47.920   8.349  15.244  0.00  0.00    +0.000 C 
ENDROOT
BRANCH   1   2
ATOM      2  N   UNL     1      48.092   8.041  13.805  0.00  0.00    +0.000 NA
ATOM      3  C   UNL     1      47.314   8.976  12.970  0.00  0.00    +0.000 C 
ATOM      4  C   UNL     1      45.927   8.363  12.886  0.00  0.00    +0.000 C 
ATOM      5  C   UNL     1      46.233   6.883  12.680  0.00  0.00    +0.000 C 
ATOM      6  C   UNL     1      47.575   6.703  13.432  0.00  0.00    +0.000 C 
BRANCH   5   7
ATOM      7  N   UNL     1      46.380   6.600  11.241  0.00  0.00    +0.000 N 
ATOM      8  C   UNL     1      45.677   5.474  10.780  0.00  0.00    +0.000 A 
ATOM      9  C   UNL     1      45.700   5.195   9.414  0.00  0.00    +0.000 A 
ATOM     10  C   UNL     1      45.002   4.092   8.921  0.00  0.00    +0.000 A 
ATOM     11  C   UNL     1      44.300   3.289   9.808  0.00  0.00    +0.000 A 
ATOM     12  C   UNL     1      44.327   3.641  11.143  0.00  0.00    +0.000 A 
ATOM     13 CL   UNL     1      43.516   2.697  12.322  0.00  0.00    +0.000 Cl
ATOM     14  N   UNL     1      44.981   4.710  11.641  0.00  0.00    +0.000 NA
ATOM     15  H   UNL     1      47.349   6.522  10.946  0.00  0.00    +0.000 HD
ENDBRANCH   5   7
ENDBRANCH   1   2
BRANCH   1  16
ATOM     16  C   UNL     1      48.927   7.602  16.144  0.00  0.00    +0.000 C 
BRANCH  16  21
ATOM     17  C   UNL     1      50.832   3.104  17.465  0.00  0.00    +0.000 A 
ATOM     18  C   UNL     1      51.372   4.378  17.580  0.00  0.00    +0.000 A 
ATOM     19  C   UNL     1      50.568   5.481  17.301  0.00  0.00    +0.000 A 
ATOM     20  C   UNL     1      49.250   5.296  16.884  0.00  0.00    +0.000 A 
ATOM     21  N   UNL     1      48.377   6.355  16.664  0.00  0.00    +0.000 N 
ATOM     22  N   UNL     1      48.734   4.063  16.727  0.00  0.00    +0.000 NA
ATOM     23  C   UNL     1      49.525   2.999  17.015  0.00  0.00    +0.000 A 
ATOM     24  H   UNL     1      47.553   5.981  16.194  0.00  0.00    +0.000 HD
BRANCH  17  26
ATOM     25  N   UNL     1      52.728   2.047  18.554  0.00  0.00    +0.000 N 
ATOM     26  C   UNL     1      51.595   1.883  17.803  0.00  0.00    +0.000 C 
ATOM     27  O   UNL     1      51.212   0.773  17.463  0.00  0.00    +0.000 OA
ATOM     28  H   UNL     1      53.179   1.199  18.875  0.00  0.00    +0.000 HD
ATOM     29  H   UNL     1      52.931   2.900  19.056  0.00  0.00    +0.000 HD
ENDBRANCH  17  26
ENDBRANCH  16  21
ENDBRANCH   1  16
TORSDOF 5
ENDMDL
MODEL 7
REMARK VINA RESULT:    -7.143      2.967      3.988
REMARK INTER + INTRA:          -9.103
REMARK INTER:                  -8.207
REMARK INTRA:                  -0.896
REMARK UNBOUND:                 0.128
REMARK  Name = 
REMARK  5 active torsions:
REMARK  status: ('A' for Active; 'I' for Inactive)
REMARK    1  A    between atoms: C_2  and  C_4
REMARK    2  A    between atoms: N_8  and  C_9
REMARK    3  A    between atoms: C_9  and  C_10
REMARK    4  A    between atoms: C_10  and  N_11
REMARK    5  A    between atoms: C_14  and  N_15
REMARK                            x       y       z     vdW  Elec       q    Type
REMARK                         _______ _______ _______ _____ _____    ______ ____
ROOT
ATOM      1  C   UNL     1      47.000   9.004  12.173  0.00  0.00    +0.000 C 
ENDROOT
BRANCH   1   2
ATOM      2  N   UNL     1      48.231   8.937  12.994  0.00  0.00    +0.000 NA
ATOM      3  C   UNL     1      49.146   7.896  12.485  0.00  0.00    +0.000 C 
ATOM      4  C   UNL     1      48.688   6.611  13.153  0.00  0.00    +0.000 C 
ATOM      5  C   UNL     1      48.412   7.064  14.583  0.00  0.00    +0.000 C 
ATOM      6  C   UNL     1      47.971   8.537  14.398  0.00  0.00    +0.000 C 
BRANCH   5   7
ATOM      7  N   UNL     1      49.648   6.968  15.382  0.00  0.00    +0.000 N 
ATOM      8  C   UNL     1      49.693   5.889  16.282  0.00  0.00    +0.000 A 
ATOM      9  C   UNL     1      50.865   5.686  17.010  0.00  0.00    +0.000 A 
ATOM     10  C   UNL     1      50.948   4.617  17.902  0.00  0.00    +0.000 A 
ATOM     11  C   UNL     1      49.853   3.778  18.051  0.00  0.00    +0.000 A 
ATOM     12  C   UNL     1      48.735   4.050  17.287  0.00  0.00    +0.000 A 
ATOM     13 CL   UNL     1      47.320   3.089  17.420  0.00  0.00    +0.000 Cl
ATOM     14  N   UNL     1      48.636   5.067  16.408  0.00  0.00    +0.000 NA
ATOM     15  H   UNL     1      49.864   7.823  15.887  0.00  0.00    +0.000 HD
ENDBRANCH   5   7
ENDBRANCH   1   2
BRANCH   1  16
ATOM     16  C   UNL     1      45.712   8.804  13.001  0.00  0.00    +0.000 C 
BRANCH  16  21
ATOM     17  C   UNL     1      44.137   4.242  11.482  0.00  0.00    +0.000 A 
ATOM     18  C   UNL     1      44.737   4.636  12.670  0.00  0.00    +0.000 A 
ATOM     19  C   UNL     1      44.918   5.995  12.918  0.00  0.00    +0.000 A 
ATOM     20  C   UNL     1      44.525   6.936  11.967  0.00  0.00    +0.000 A 
ATOM     21  N   UNL     1      44.610   8.306  12.186  0.00  0.00    +0.000 N 
ATOM     22  N   UNL     1      43.984   6.559  10.793  0.00  0.00    +0.000 NA
ATOM     23  C   UNL     1      43.803   5.233  10.571  0.00  0.00    +0.000 A 
ATOM     24  H   UNL     1      44.446   8.771  11.294  0.00  0.00    +0.000 HD
BRANCH  17  26
ATOM     25  N   UNL     1      44.623   2.233  10.207  0.00  0.00    +0.000 N 
ATOM     26  C   UNL     1      43.849   2.825  11.168  0.00  0.00    +0.000 C 
ATOM     27  O   UNL     1      42.987   2.198  11.767  0.00  0.00    +0.000 OA
ATOM     28  H   UNL     1      44.494   1.236  10.080  0.00  0.00    +0.000 HD
ATOM     29  H   UNL     1      45.491   2.634   9.881  0.00  0.00    +0.000 HD
ENDBRANCH  17  26
ENDBRANCH  16  21
ENDBRANCH   1  16
TORSDOF 5
ENDMDL
MODEL 8
REMARK VINA RESULT:    -6.524      3.579      8.436
REMARK INTER + INTRA:          -8.303
REMARK INTER:                  -7.653
REMARK INTRA:                  -0.650
REMARK UNBOUND:                 0.128
REMARK  Name = 
REMARK  5 active torsions:
REMARK  status: ('A' for Active; 'I' for Inactive)
REMARK    1  A    between atoms: C_2  and  C_4
REMARK    2  A    between atoms: N_8  and  C_9
REMARK    3  A    between atoms: C_9  and  C_10
REMARK    4  A    between atoms: C_10  and  N_11
REMARK    5  A    between atoms: C_14  and  N_15
REMARK                            x       y       z     vdW  Elec       q    Type
REMARK                         _______ _______ _______ _____ _____    ______ ____
ROOT
ATOM      1  C   UNL     1      47.634   9.113  14.689  0.00  0.00    +0.000 C 
ENDROOT
BRANCH   1   2
ATOM      2  N   UNL     1      47.751   8.757  13.256  0.00  0.00    +0.000 NA
ATOM      3  C   UNL     1      46.612   9.294  12.486  0.00  0.00    +0.000 C 
ATOM      4  C   UNL     1      45.524   8.241  12.609  0.00  0.00    +0.000 C 
ATOM      5  C   UNL     1      46.303   6.942  12.435  0.00  0.00    +0.000 C 
ATOM      6  C   UNL     1      47.694   7.295  13.015  0.00  0.00    +0.000 C 
BRANCH   5   7
ATOM      7  N   UNL     1      46.387   6.600  11.003  0.00  0.00    +0.000 N 
ATOM      8  C   UNL     1      45.657   5.462  10.618  0.00  0.00    +0.000 A 
ATOM      9  C   UNL     1      45.620   5.128   9.265  0.00  0.00    +0.000 A 
ATOM     10  C   UNL     1      44.894   4.013   8.847  0.00  0.00    +0.000 A 
ATOM     11  C   UNL     1      44.225   3.252   9.795  0.00  0.00    +0.000 A 
ATOM     12  C   UNL     1      44.312   3.657  11.112  0.00  0.00    +0.000 A 
ATOM     13 CL   UNL     1      43.544   2.767  12.362  0.00  0.00    +0.000 Cl
ATOM     14  N   UNL     1      44.993   4.739  11.538  0.00  0.00    +0.000 NA
ATOM     15  H   UNL     1      47.342   6.502  10.671  0.00  0.00    +0.000 HD
ENDBRANCH   5   7
ENDBRANCH   1   2
BRANCH   1  16
ATOM     16  C   UNL     1      49.004   9.237  15.391  0.00  0.00    +0.000 C 
BRANCH  16  21
ATOM     17  C   UNL     1      48.350   4.886  17.889  0.00  0.00    +0.000 A 
ATOM     18  C   UNL     1      49.004   5.146  16.692  0.00  0.00    +0.000 A 
ATOM     19  C   UNL     1      49.196   6.469  16.301  0.00  0.00    +0.000 A 
ATOM     20  C   UNL     1      48.710   7.509  17.092  0.00  0.00    +0.000 A 
ATOM     21  N   UNL     1      48.936   8.848  16.795  0.00  0.00    +0.000 N 
ATOM     22  N   UNL     1      48.035   7.264  18.232  0.00  0.00    +0.000 NA
ATOM     23  C   UNL     1      47.867   5.970  18.606  0.00  0.00    +0.000 A 
ATOM     24  H   UNL     1      48.334   9.403  17.401  0.00  0.00    +0.000 HD
BRANCH  17  26
ATOM     25  N   UNL     1      48.500   3.295  19.717  0.00  0.00    +0.000 N 
ATOM     26  C   UNL     1      48.160   3.515  18.410  0.00  0.00    +0.000 C 
ATOM     27  O   UNL     1      47.684   2.626  17.718  0.00  0.00    +0.000 OA
ATOM     28  H   UNL     1      48.261   2.386  20.095  0.00  0.00    +0.000 HD
ATOM     29  H   UNL     1      48.652   4.047  20.375  0.00  0.00    +0.000 HD
ENDBRANCH  17  26
ENDBRANCH  16  21
ENDBRANCH   1  16
TORSDOF 5
ENDMDL
MODEL 9
REMARK VINA RESULT:    -6.494      3.242      4.856
REMARK INTER + INTRA:          -8.264
REMARK INTER:                  -7.627
REMARK INTRA:                  -0.638
REMARK UNBOUND:                 0.128
REMARK  Name = 
REMARK  5 active torsions:
REMARK  status: ('A' for Active; 'I' for Inactive)
REMARK    1  A    between atoms: C_2  and  C_4
REMARK    2  A    between atoms: N_8  and  C_9
REMARK    3  A    between atoms: C_9  and  C_10
REMARK    4  A    between atoms: C_10  and  N_11
REMARK    5  A    between atoms: C_14  and  N_15
REMARK                            x       y       z     vdW  Elec       q    Type
REMARK                         _______ _______ _______ _____ _____    ______ ____
ROOT
ATOM      1  C   UNL     1      49.770   8.625  12.954  0.00  0.00    +0.000 C 
ENDROOT
BRANCH   1   2
ATOM      2  N   UNL     1      49.512   8.680  14.411  0.00  0.00    +0.000 NA
ATOM      3  C   UNL     1      50.691   9.193  15.135  0.00  0.00    +0.000 C 
ATOM      4  C   UNL     1      51.560   7.972  15.384  0.00  0.00    +0.000 C 
ATOM      5  C   UNL     1      50.537   6.919  15.794  0.00  0.00    +0.000 C 
ATOM      6  C   UNL     1      49.272   7.344  15.009  0.00  0.00    +0.000 C 
BRANCH   5   7
ATOM      7  N   UNL     1      50.313   6.982  17.250  0.00  0.00    +0.000 N 
ATOM      8  C   UNL     1      49.771   5.817  17.821  0.00  0.00    +0.000 A 
ATOM      9  C   UNL     1      49.612   5.774  19.206  0.00  0.00    +0.000 A 
ATOM     10  C   UNL     1      49.090   4.628  19.807  0.00  0.00    +0.000 A 
ATOM     11  C   UNL     1      48.731   3.553  19.006  0.00  0.00    +0.000 A 
ATOM     12  C   UNL     1      48.927   3.680  17.645  0.00  0.00    +0.000 A 
ATOM     13 CL   UNL     1      48.489   2.419  16.568  0.00  0.00    +0.000 Cl
ATOM     14  N   UNL     1      49.444   4.770  17.043  0.00  0.00    +0.000 NA
ATOM     15  H   UNL     1      49.748   7.777  17.534  0.00  0.00    +0.000 HD
ENDBRANCH   5   7
ENDBRANCH   1   2
BRANCH   1  16
ATOM     16  C   UNL     1      49.148   7.383  12.279  0.00  0.00    +0.000 C 
BRANCH  16  21
ATOM     17  C   UNL     1      44.885   4.681  11.917  0.00  0.00    +0.000 A 
ATOM     18  C   UNL     1      45.890   4.653  12.875  0.00  0.00    +0.000 A 
ATOM     19  C   UNL     1      46.883   5.629  12.843  0.00  0.00    +0.000 A 
ATOM     20  C   UNL     1      46.877   6.598  11.841  0.00  0.00    +0.000 A 
ATOM     21  N   UNL     1      47.795   7.641  11.799  0.00  0.00    +0.000 N 
ATOM     22  N   UNL     1      45.932   6.606  10.882  0.00  0.00    +0.000 NA
ATOM     23  C   UNL     1      44.964   5.656  10.934  0.00  0.00    +0.000 A 
ATOM     24  H   UNL     1      47.704   8.094  10.891  0.00  0.00    +0.000 HD
BRANCH  17  26
ATOM     25  N   UNL     1      43.919   2.575  12.643  0.00  0.00    +0.000 N 
ATOM     26  C   UNL     1      43.759   3.724  11.916  0.00  0.00    +0.000 C 
ATOM     27  O   UNL     1      42.714   3.963  11.327  0.00  0.00    +0.000 OA
ATOM     28  H   UNL     1      43.103   1.982  12.729  0.00  0.00    +0.000 HD
ATOM     29  H   UNL     1      44.649   2.464  13.333  0.00  0.00    +0.000 HD
ENDBRANCH  17  26
ENDBRANCH  16  21
ENDBRANCH   1  16
TORSDOF 5
ENDMDL
