MODEL 1
REMARK VINA RESULT:    -7.734      0.000      0.000
REMARK INTER + INTRA:          -9.763
REMARK INTER:                  -9.317
REMARK INTRA:                  -0.446
REMARK UNBOUND:                -0.446
REMARK  Name = 
REMARK  4 active torsions:
REMARK  status: ('A' for Active; 'I' for Inactive)
REMARK    1  A    between atoms: N_1  and  C_2
REMARK    2  A    between atoms: C_2  and  C_3
REMARK    3  A    between atoms: C_6  and  C_7
REMARK    4  A    between atoms: C_7  and  N_8
REMARK                            x       y       z     vdW  Elec       q    Type
REMARK                         _______ _______ _______ _____ _____    ______ ____
ROOT
ATOM      1  C   UNL     1      46.458   2.494   7.538  0.00  0.00    +0.000 A 
ATOM      2  C   UNL     1      45.740   1.776   8.498  0.00  0.00    +0.000 A 
ATOM      3  C   UNL     1      44.941   2.450   9.418  0.00  0.00    +0.000 A 
ATOM      4  C   UNL     1      44.869   3.842   9.362  0.00  0.00    +0.000 A 
ATOM      5  N   UNL     1      45.554   4.561   8.439  0.00  0.00    +0.000 NA
ATOM      6  C   UNL     1      46.326   3.878   7.562  0.00  0.00    +0.000 A 
ENDROOT
BRANCH   1   7
ATOM      7  C   UNL     1      47.353   1.812   6.546  0.00  0.00    +0.000 C 
BRANCH   7   8
ATOM      8  N   UNL     1      48.606   2.532   6.354  0.00  0.00    +0.000 NA
ATOM      9  H   UNL     1      48.544   3.436   6.823  0.00  0.00    +0.000 HD
ATOM     10  H   UNL     1      48.727   2.736   5.364  0.00  0.00    +0.000 HD
ENDBRANCH   7   8
ENDBRANCH   1   7
BRANCH   4  11
ATOM     11  C   UNL     1      43.929   4.593  10.263  0.00  0.00    +0.000 C 
BRANCH  11  12
ATOM     12  N   UNL     1      44.591   5.453  11.240  0.00  0.00    +0.000 N 
ATOM     13  C   UNL     1      44.670   6.821  11.126  0.00  0.00    +0.000 A 
ATOM     14  C   UNL     1      45.765   7.242  11.845  0.00  0.00    +0.000 A 
ATOM     15  C   UNL     1      46.317   6.109  12.497  0.00  0.00    +0.000 A 
ATOM     16  C   UNL     1      47.432   5.901  13.321  0.00  0.00    +0.000 A 
ATOM     17  N   UNL     1      47.679   4.683  13.862  0.00  0.00    +0.000 NA
ATOM     18  C   UNL     1      46.822   3.673  13.595  0.00  0.00    +0.000 A 
ATOM     19  C   UNL     1      45.719   3.761  12.758  0.00  0.00    +0.000 A 
ATOM     20  C   UNL     1      45.501   5.013  12.186  0.00  0.00    +0.000 A 
ENDBRANCH  11  12
ENDBRANCH   4  11
TORSDOF 4
ENDMDL
MODEL 2
REMARK VINA RESULT:    -6.593      1.253      5.876
REMARK INTER + INTRA:          -8.389
REMARK INTER:                  -8.472
REMARK INTRA:                   0.084
REMARK UNBOUND:                -0.446
REMARK  Name = 
REMARK  4 active torsions:
REMARK  status: ('A' for Active; 'I' for Inactive)
REMARK    1  A    between atoms: N_1  and  C_2
REMARK    2  A    between atoms: C_2  and  C_3
REMARK    3  A    between atoms: C_6  and  C_7
REMARK    4  A    between atoms: C_7  and  N_8
REMARK                            x       y       z     vdW  Elec       q    Type
REMARK                         _______ _______ _______ _____ _____    ______ ____
ROOT
ATOM      1  C   UNL     1      46.504   4.757  13.402  0.00  0.00    +0.000 A 
ATOM      2  C   UNL     1      45.808   3.639  12.937  0.00  0.00    +0.000 A 
ATOM      3  C   UNL     1      45.277   3.636  11.649  0.00  0.00    +0.000 A 
ATOM      4  C   UNL     1      45.455   4.758  10.839  0.00  0.00    +0.000 A 
ATOM      5  N   UNL     1      46.128   5.855  11.268  0.00  0.00    +0.000 NA
ATOM      6  C   UNL     1      46.627   5.829  12.526  0.00  0.00    +0.000 A 
ENDROOT
BRANCH   1   7
ATOM      7  C   UNL     1      47.067   4.816  14.792  0.00  0.00    +0.000 C 
BRANCH   7   8
ATOM      8  N   UNL     1      47.441   3.496  15.286  0.00  0.00    +0.000 NA
ATOM      9  H   UNL     1      47.082   2.787  14.645  0.00  0.00    +0.000 HD
ATOM     10  H   UNL     1      46.979   3.329  16.178  0.00  0.00    +0.000 HD
ENDBRANCH   7   8
ENDBRANCH   1   7
BRANCH   4  11
ATOM     11  C   UNL     1      44.998   4.745   9.408  0.00  0.00    +0.000 C 
BRANCH  11  12
ATOM     12  N   UNL     1      45.044   3.430   8.774  0.00  0.00    +0.000 N 
ATOM     13  C   UNL     1      44.288   2.357   9.182  0.00  0.00    +0.000 A 
ATOM     14  C   UNL     1      44.935   1.209   8.786  0.00  0.00    +0.000 A 
ATOM     15  C   UNL     1      46.073   1.592   8.030  0.00  0.00    +0.000 A 
ATOM     16  C   UNL     1      47.115   0.891   7.408  0.00  0.00    +0.000 A 
ATOM     17  N   UNL     1      48.057   1.544   6.683  0.00  0.00    +0.000 NA
ATOM     18  C   UNL     1      47.964   2.887   6.566  0.00  0.00    +0.000 A 
ATOM     19  C   UNL     1      47.002   3.678   7.179  0.00  0.00    +0.000 A 
ATOM     20  C   UNL     1      46.064   2.991   7.947  0.00  0.00    +0.000 A 
ENDBRANCH  11  12
ENDBRANCH   4  11
TORSDOF 4
ENDMDL
MODEL 3
REMARK VINA RESULT:    -6.520      1.353      2.266
REMARK INTER + INTRA:          -8.301
REMARK INTER:                  -7.861
REMARK INTRA:                  -0.440
REMARK UNBOUND:                -0.446
REMARK  Name = 
REMARK  4 active torsions:
REMARK  status: ('A' for Active; 'I' for Inactive)
REMARK    1  A    between atoms: N_1  and  C_2
REMARK    2  A    between atoms: C_2  and  C_3
REMARK    3  A    between atoms: C_6  and  C_7
REMARK    4  A    between atoms: C_7  and  N_8
REMARK                            x       y       z     vdW  Elec       q    Type
REMARK                         _______ _______ _______ _____ _____    ______ ____
ROOT
ATOM      1  C   UNL     1      46.494   2.285   7.488  0.00  0.00    +0.000 A 
ATOM      2  C   UNL     1      46.556   3.674   7.353  0.00  0.00    +0.000 A 
ATOM      3  C   UNL     1      45.912   4.493   8.277  0.00  0.00    +0.000 A 
ATOM      4  C   UNL     1      45.213   3.906   9.333  0.00  0.00    +0.000 A 
ATOM      5  N   UNL     1      45.140   2.560   9.487  0.00  0.00    +0.000 NA
ATOM      6  C   UNL     1      45.771   1.791   8.568  0.00  0.00    +0.000 A 
ENDROOT
BRANCH   1   7
ATOM      7  C   UNL     1      47.148   1.364   6.501  0.00  0.00    +0.000 C 
BRANCH   7   8
ATOM      8  N   UNL     1      48.440   1.869   6.055  0.00  0.00    +0.000 NA
ATOM      9  H   UNL     1      48.321   2.341   5.158  0.00  0.00    +0.000 HD
ATOM     10  H   UNL     1      49.065   1.084   5.879  0.00  0.00    +0.000 HD
ENDBRANCH   7   8
ENDBRANCH   1   7
BRANCH   4  11
ATOM     11  C   UNL     1      44.605   4.758  10.411  0.00  0.00    +0.000 C 
BRANCH  11  12
ATOM     12  N   UNL     1      45.395   4.827  11.638  0.00  0.00    +0.000 N 
ATOM     13  C   UNL     1      45.077   4.149  12.792  0.00  0.00    +0.000 A 
ATOM     14  C   UNL     1      45.644   4.825  13.848  0.00  0.00    +0.000 A 
ATOM     15  C   UNL     1      46.411   5.895  13.317  0.00  0.00    +0.000 A 
ATOM     16  C   UNL     1      47.170   6.929  13.882  0.00  0.00    +0.000 A 
ATOM     17  N   UNL     1      47.862   7.791  13.098  0.00  0.00    +0.000 NA
ATOM     18  C   UNL     1      47.811   7.628  11.757  0.00  0.00    +0.000 A 
ATOM     19  C   UNL     1      47.054   6.669  11.098  0.00  0.00    +0.000 A 
ATOM     20  C   UNL     1      46.324   5.814  11.921  0.00  0.00    +0.000 A 
ENDBRANCH  11  12
ENDBRANCH   4  11
TORSDOF 4
ENDMDL
MODEL 4
REMARK VINA RESULT:    -5.816      1.703      5.629
REMARK INTER + INTRA:          -7.453
REMARK INTER:                  -7.280
REMARK INTRA:                  -0.173
REMARK UNBOUND:                -0.446
REMARK  Name = 
REMARK  4 active torsions:
REMARK  status: ('A' for Active; 'I' for Inactive)
REMARK    1  A    between atoms: N_1  and  C_2
REMARK    2  A    between atoms: C_2  and  C_3
REMARK    3  A    between atoms: C_6  and  C_7
REMARK    4  A    between atoms: C_7  and  N_8
REMARK                            x       y       z     vdW  Elec       q    Type
REMARK                         _______ _______ _______ _____ _____    ______ ____
ROOT
ATOM      1  C   UNL     1      47.546   6.894  13.683  0.00  0.00    +0.000 A 
ATOM      2  C   UNL     1      47.142   5.605  13.327  0.00  0.00    +0.000 A 
ATOM      3  C   UNL     1      45.979   5.421  12.584  0.00  0.00    +0.000 A 
ATOM      4  C   UNL     1      45.234   6.537  12.202  0.00  0.00    +0.000 A 
ATOM      5  N   UNL     1      45.607   7.799  12.533  0.00  0.00    +0.000 NA
ATOM      6  C   UNL     1      46.739   7.944  13.262  0.00  0.00    +0.000 A 
ENDROOT
BRANCH   1   7
ATOM      7  C   UNL     1      48.776   7.137  14.508  0.00  0.00    +0.000 C 
BRANCH   7   8
ATOM      8  N   UNL     1      49.994   7.052  13.711  0.00  0.00    +0.000 NA
ATOM      9  H   UNL     1      50.221   6.069  13.556  0.00  0.00    +0.000 HD
ATOM     10  H   UNL     1      50.771   7.440  14.244  0.00  0.00    +0.000 HD
ENDBRANCH   7   8
ENDBRANCH   1   7
BRANCH   4  11
ATOM     11  C   UNL     1      44.040   6.385  11.303  0.00  0.00    +0.000 C 
BRANCH  11  12
ATOM     12  N   UNL     1      43.762   5.008  10.900  0.00  0.00    +0.000 N 
ATOM     13  C   UNL     1      43.067   4.110  11.676  0.00  0.00    +0.000 A 
ATOM     14  C   UNL     1      43.448   2.843  11.296  0.00  0.00    +0.000 A 
ATOM     15  C   UNL     1      44.330   2.967  10.191  0.00  0.00    +0.000 A 
ATOM     16  C   UNL     1      45.057   2.057   9.413  0.00  0.00    +0.000 A 
ATOM     17  N   UNL     1      45.788   2.478   8.351  0.00  0.00    +0.000 NA
ATOM     18  C   UNL     1      45.794   3.796   8.055  0.00  0.00    +0.000 A 
ATOM     19  C   UNL     1      45.148   4.783   8.787  0.00  0.00    +0.000 A 
ATOM     20  C   UNL     1      44.430   4.333   9.894  0.00  0.00    +0.000 A 
ENDBRANCH  11  12
ENDBRANCH   4  11
TORSDOF 4
ENDMDL
MODEL 5
REMARK VINA RESULT:    -5.381      3.781      7.438
REMARK INTER + INTRA:          -6.928
REMARK INTER:                  -6.526
REMARK INTRA:                  -0.402
REMARK UNBOUND:                -0.446
REMARK  Name = 
REMARK  4 active torsions:
REMARK  status: ('A' for Active; 'I' for Inactive)
REMARK    1  A    between atoms: N_1  and  C_2
REMARK    2  A    between atoms: C_2  and  C_3
REMARK    3  A    between atoms: C_6  and  C_7
REMARK    4  A    between atoms: C_7  and  N_8
REMARK                            x       y       z     vdW  Elec       q    Type
REMARK                         _______ _______ _______ _____ _____    ______ ____
ROOT
ATOM      1  C   UNL     1      50.942   2.492  17.384  0.00  0.00    +0.000 A 
ATOM      2  C   UNL     1      49.706   1.967  16.998  0.00  0.00    +0.000 A 
ATOM      3  C   UNL     1      48.647   2.822  16.705  0.00  0.00    +0.000 A 
ATOM      4  C   UNL     1      48.842   4.200  16.799  0.00  0.00    +0.000 A 
ATOM      5  N   UNL     1      50.032   4.735  17.169  0.00  0.00    +0.000 NA
ATOM      6  C   UNL     1      51.040   3.877  17.453  0.00  0.00    +0.000 A 
ENDROOT
BRANCH   1   7
ATOM      7  C   UNL     1      52.102   1.608  17.737  0.00  0.00    +0.000 C 
BRANCH   7   8
ATOM      8  N   UNL     1      51.674   0.260  18.090  0.00  0.00    +0.000 NA
ATOM      9  H   UNL     1      51.454  -0.253  17.236  0.00  0.00    +0.000 HD
ATOM     10  H   UNL     1      50.805   0.312  18.620  0.00  0.00    +0.000 HD
ENDBRANCH   7   8
ENDBRANCH   1   7
BRANCH   4  11
ATOM     11  C   UNL     1      47.758   5.153  16.379  0.00  0.00    +0.000 C 
BRANCH  11  12
ATOM     12  N   UNL     1      47.885   5.641  15.008  0.00  0.00    +0.000 N 
ATOM     13  C   UNL     1      48.523   6.810  14.667  0.00  0.00    +0.000 A 
ATOM     14  C   UNL     1      48.006   7.239  13.466  0.00  0.00    +0.000 A 
ATOM     15  C   UNL     1      47.093   6.252  13.010  0.00  0.00    +0.000 A 
ATOM     16  C   UNL     1      46.249   6.141  11.897  0.00  0.00    +0.000 A 
ATOM     17  N   UNL     1      45.516   5.019  11.690  0.00  0.00    +0.000 NA
ATOM     18  C   UNL     1      45.623   4.005  12.578  0.00  0.00    +0.000 A 
ATOM     19  C   UNL     1      46.392   4.033  13.733  0.00  0.00    +0.000 A 
ATOM     20  C   UNL     1      47.112   5.208  13.945  0.00  0.00    +0.000 A 
ENDBRANCH  11  12
ENDBRANCH   4  11
TORSDOF 4
ENDMDL
MODEL 6
REMARK VINA RESULT:    -5.013      2.950      5.109
REMARK INTER + INTRA:          -6.485
REMARK INTER:                  -6.149
REMARK INTRA:                  -0.336
REMARK UNBOUND:                -0.446
REMARK  Name = 
REMARK  4 active torsions:
REMARK  status: ('A' for Active; 'I' for Inactive)
REMARK    1  A    between atoms: N_1  and  C_2
REMARK    2  A    between atoms: C_2  and  C_3
REMARK    3  A    between atoms: C_6  and  C_7
REMARK    4  A    between atoms: C_7  and  N_8
REMARK                            x       y       z     vdW  Elec       q    Type
REMARK                         _______ _______ _______ _____ _____    ______ ____
ROOT
ATOM      1  C   UNL     1      44.598   4.092  11.347  0.00  0.00    +0.000 A 
ATOM      2  C   UNL     1      44.625   4.229  12.736  0.00  0.00    +0.000 A 
ATOM      3  C   UNL     1      45.317   5.289  13.318  0.00  0.00    +0.000 A 
ATOM      4  C   UNL     1      45.973   6.204  12.494  0.00  0.00    +0.000 A 
ATOM      5  N   UNL     1      45.960   6.093  11.142  0.00  0.00    +0.000 NA
ATOM      6  C   UNL     1      45.284   5.049  10.608  0.00  0.00    +0.000 A 
ENDROOT
BRANCH   1   7
ATOM      7  C   UNL     1      43.890   2.950  10.679  0.00  0.00    +0.000 C 
BRANCH   7   8
ATOM      8  N   UNL     1      43.043   2.213  11.608  0.00  0.00    +0.000 NA
ATOM      9  H   UNL     1      43.022   1.231  11.332  0.00  0.00    +0.000 HD
ATOM     10  H   UNL     1      42.085   2.548  11.528  0.00  0.00    +0.000 HD
ENDBRANCH   7   8
ENDBRANCH   1   7
BRANCH   4  11
ATOM     11  C   UNL     1      46.630   7.422  13.079  0.00  0.00    +0.000 C 
BRANCH  11  12
ATOM     12  N   UNL     1      48.008   7.210  13.517  0.00  0.00    +0.000 N 
ATOM     13  C   UNL     1      48.351   6.740  14.763  0.00  0.00    +0.000 A 
ATOM     14  C   UNL     1      49.630   7.168  15.038  0.00  0.00    +0.000 A 
ATOM     15  C   UNL     1      50.119   7.840  13.887  0.00  0.00    +0.000 A 
ATOM     16  C   UNL     1      51.311   8.510  13.578  0.00  0.00    +0.000 A 
ATOM     17  N   UNL     1      51.523   9.013  12.338  0.00  0.00    +0.000 NA
ATOM     18  C   UNL     1      50.564   8.849  11.401  0.00  0.00    +0.000 A 
ATOM     19  C   UNL     1      49.333   8.244  11.616  0.00  0.00    +0.000 A 
ATOM     20  C   UNL     1      49.120   7.763  12.907  0.00  0.00    +0.000 A 
ENDBRANCH  11  12
ENDBRANCH   4  11
TORSDOF 4
ENDMDL
MODEL 7
REMARK VINA RESULT:    -4.979      3.326      7.217
REMARK INTER + INTRA:          -6.444
REMARK INTER:                  -6.320
REMARK INTRA:                  -0.124
REMARK UNBOUND:                -0.446
REMARK  Name = 
REMARK  4 active torsions:
REMARK  status: ('A' for Active; 'I' for Inactive)
REMARK    1  A    between atoms: N_1  and  C_2
REMARK    2  A    between atoms: C_2  and  C_3
REMARK    3  A    between atoms: C_6  and  C_7
REMARK    4  A    between atoms: C_7  and  N_8
REMARK                            x       y       z     vdW  Elec       q    Type
REMARK                         _______ _______ _______ _____ _____    ______ ____
ROOT
ATOM      1  C   UNL     1      48.154   5.080  17.880  0.00  0.00    +0.000 A 
ATOM      2  C   UNL     1      47.168   4.116  17.652  0.00  0.00    +0.000 A 
ATOM      3  C   UNL     1      46.834   3.757  16.348  0.00  0.00    +0.000 A 
ATOM      4  C   UNL     1      47.498   4.368  15.285  0.00  0.00    +0.000 A 
ATOM      5  N   UNL     1      48.460   5.305  15.481  0.00  0.00    +0.000 NA
ATOM      6  C   UNL     1      48.758   5.637  16.759  0.00  0.00    +0.000 A 
ENDROOT
BRANCH   1   7
ATOM      7  C   UNL     1      48.525   5.519  19.266  0.00  0.00    +0.000 C 
BRANCH   7   8
ATOM      8  N   UNL     1      49.282   4.497  19.978  0.00  0.00    +0.000 NA
ATOM      9  H   UNL     1      49.433   4.805  20.940  0.00  0.00    +0.000 HD
ATOM     10  H   UNL     1      50.208   4.413  19.561  0.00  0.00    +0.000 HD
ENDBRANCH   7   8
ENDBRANCH   1   7
BRANCH   4  11
ATOM     11  C   UNL     1      47.247   3.923  13.872  0.00  0.00    +0.000 C 
BRANCH  11  12
ATOM     12  N   UNL     1      46.394   4.824  13.101  0.00  0.00    +0.000 N 
ATOM     13  C   UNL     1      46.407   6.192  13.236  0.00  0.00    +0.000 A 
ATOM     14  C   UNL     1      45.184   6.669  12.823  0.00  0.00    +0.000 A 
ATOM     15  C   UNL     1      44.434   5.569  12.330  0.00  0.00    +0.000 A 
ATOM     16  C   UNL     1      43.138   5.420  11.819  0.00  0.00    +0.000 A 
ATOM     17  N   UNL     1      42.707   4.220  11.355  0.00  0.00    +0.000 NA
ATOM     18  C   UNL     1      43.559   3.172  11.389  0.00  0.00    +0.000 A 
ATOM     19  C   UNL     1      44.843   3.202  11.916  0.00  0.00    +0.000 A 
ATOM     20  C   UNL     1      45.255   4.436  12.418  0.00  0.00    +0.000 A 
ENDBRANCH  11  12
ENDBRANCH   4  11
TORSDOF 4
ENDMDL
MODEL 8
REMARK VINA RESULT:    -4.973      4.090      7.282
REMARK INTER + INTRA:          -6.436
REMARK INTER:                  -6.050
REMARK INTRA:                  -0.386
REMARK UNBOUND:                -0.446
REMARK  Name = 
REMARK  4 active torsions:
REMARK  status: ('A' for Active; 'I' for Inactive)
REMARK    1  A    between atoms: N_1  and  C_2
REMARK    2  A    between atoms: C_2  and  C_3
REMARK    3  A    between atoms: C_6  and  C_7
REMARK    4  A    between atoms: C_7  and  N_8
REMARK                            x       y       z     vdW  Elec       q    Type
REMARK                         _______ _______ _______ _____ _____    ______ ____
ROOT
ATOM      1  C   UNL     1      48.294   4.850  17.825  0.00  0.00    +0.000 A 
ATOM      2  C   UNL     1      47.324   3.945  17.388  0.00  0.00    +0.000 A 
ATOM      3  C   UNL     1      46.923   3.944  16.054  0.00  0.00    +0.000 A 
ATOM      4  C   UNL     1      47.505   4.852  15.170  0.00  0.00    +0.000 A 
ATOM      5  N   UNL     1      48.451   5.739  15.570  0.00  0.00    +0.000 NA
ATOM      6  C   UNL     1      48.814   5.720  16.873  0.00  0.00    +0.000 A 
ENDROOT
BRANCH   1   7
ATOM      7  C   UNL     1      48.735   4.907  19.258  0.00  0.00    +0.000 C 
BRANCH   7   8
ATOM      8  N   UNL     1      48.554   3.630  19.936  0.00  0.00    +0.000 NA
ATOM      9  H   UNL     1      48.430   3.798  20.935  0.00  0.00    +0.000 HD
ATOM     10  H   UNL     1      49.406   3.079  19.848  0.00  0.00    +0.000 HD
ENDBRANCH   7   8
ENDBRANCH   1   7
BRANCH   4  11
ATOM     11  C   UNL     1      47.182   4.801  13.703  0.00  0.00    +0.000 C 
BRANCH  11  12
ATOM     12  N   UNL     1      45.933   5.465  13.340  0.00  0.00    +0.000 N 
ATOM     13  C   UNL     1      44.772   4.795  13.033  0.00  0.00    +0.000 A 
ATOM     14  C   UNL     1      44.007   5.618  12.238  0.00  0.00    +0.000 A 
ATOM     15  C   UNL     1      44.678   6.864  12.133  0.00  0.00    +0.000 A 
ATOM     16  C   UNL     1      44.419   8.059  11.447  0.00  0.00    +0.000 A 
ATOM     17  N   UNL     1      45.233   9.133  11.592  0.00  0.00    +0.000 NA
ATOM     18  C   UNL     1      46.296   9.031  12.421  0.00  0.00    +0.000 A 
ATOM     19  C   UNL     1      46.665   7.883  13.109  0.00  0.00    +0.000 A 
ATOM     20  C   UNL     1      45.835   6.780  12.919  0.00  0.00    +0.000 A 
ENDBRANCH  11  12
ENDBRANCH   4  11
TORSDOF 4
ENDMDL
