MODEL 1
REMARK VINA RESULT:    -7.944      0.000      0.000
REMARK INTER + INTRA:         -10.239
REMARK INTER:                  -9.801
REMARK INTRA:                  -0.438
REMARK UNBOUND:                -0.438
REMARK  Name = 
REMARK  5 active torsions:
REMARK  status: ('A' for Active; 'I' for Inactive)
REMARK    1  A    between atoms: C_1  and  C_2
REMARK    2  A    between atoms: C_6  and  C_7
REMARK    3  A    between atoms: C_7  and  N_8
REMARK    4  A    between atoms: N_8  and  C_9
REMARK    5  A    between atoms: C_12  and  C_13
REMARK                            x       y       z     vdW  Elec       q    Type
REMARK                         _______ _______ _______ _____ _____    ______ ____
ROOT
ATOM      1  C   UNL     1      44.561   3.955   9.175  0.00  0.00    +0.000 A 
ATOM      2  C   UNL     1      45.536   4.353   8.258  0.00  0.00    +0.000 A 
ATOM      3  C   UNL     1      46.363   3.404   7.645  0.00  0.00    +0.000 A 
ATOM      4  C   UNL     1      46.211   2.070   7.996  0.00  0.00    +0.000 A 
ATOM      5  N   UNL     1      45.298   1.630   8.903  0.00  0.00    +0.000 NA
ATOM      6  C   UNL     1      44.516   2.587   9.465  0.00  0.00    +0.000 A 
ENDROOT
BRANCH   4   7
ATOM      7  C   UNL     1      47.107   1.027   7.393  0.00  0.00    +0.000 C 
ATOM      8  N   UNL     1      46.759  -0.273   7.657  0.00  0.00    +0.000 N 
ATOM      9  O   UNL     1      48.084   1.306   6.723  0.00  0.00    +0.000 OA
ATOM     10  H   UNL     1      45.950  -0.469   8.238  0.00  0.00    +0.000 HD
ATOM     11  H   UNL     1      47.332  -1.024   7.306  0.00  0.00    +0.000 HD
ENDBRANCH   4   7
BRANCH   1  12
ATOM     12  N   UNL     1      43.790   4.929   9.844  0.00  0.00    +0.000 N 
ATOM     13  H   UNL     1      44.122   5.857   9.567  0.00  0.00    +0.000 HD
BRANCH  12  14
ATOM     14  C   UNL     1      43.768   4.859  11.322  0.00  0.00    +0.000 C 
BRANCH  14  20
ATOM     15  C   UNL     1      47.059   4.361  14.916  0.00  0.00    +0.000 C 
ATOM     16  C   UNL     1      46.655   5.060  13.650  0.00  0.00    +0.000 A 
ATOM     17  C   UNL     1      47.450   6.072  13.125  0.00  0.00    +0.000 A 
ATOM     18  C   UNL     1      47.028   6.717  11.969  0.00  0.00    +0.000 A 
ATOM     19  C   UNL     1      45.830   6.336  11.372  0.00  0.00    +0.000 A 
ATOM     20  C   UNL     1      45.091   5.295  11.933  0.00  0.00    +0.000 A 
ATOM     21  N   UNL     1      45.491   4.664  13.071  0.00  0.00    +0.000 NA
ENDBRANCH  14  20
ENDBRANCH  12  14
ENDBRANCH   1  12
TORSDOF 4
ENDMDL
MODEL 2
REMARK VINA RESULT:    -7.812      0.708      1.569
REMARK INTER + INTRA:         -10.077
REMARK INTER:                  -9.634
REMARK INTRA:                  -0.443
REMARK UNBOUND:                -0.438
REMARK  Name = 
REMARK  5 active torsions:
REMARK  status: ('A' for Active; 'I' for Inactive)
REMARK    1  A    between atoms: C_1  and  C_2
REMARK    2  A    between atoms: C_6  and  C_7
REMARK    3  A    between atoms: C_7  and  N_8
REMARK    4  A    between atoms: N_8  and  C_9
REMARK    5  A    between atoms: C_12  and  C_13
REMARK                            x       y       z     vdW  Elec       q    Type
REMARK                         _______ _______ _______ _____ _____    ______ ____
ROOT
ATOM      1  C   UNL     1      44.579   3.960   9.123  0.00  0.00    +0.000 A 
ATOM      2  C   UNL     1      45.581   4.351   8.232  0.00  0.00    +0.000 A 
ATOM      3  C   UNL     1      46.399   3.393   7.620  0.00  0.00    +0.000 A 
ATOM      4  C   UNL     1      46.211   2.058   7.948  0.00  0.00    +0.000 A 
ATOM      5  N   UNL     1      45.270   1.625   8.829  0.00  0.00    +0.000 NA
ATOM      6  C   UNL     1      44.498   2.590   9.391  0.00  0.00    +0.000 A 
ENDROOT
BRANCH   4   7
ATOM      7  C   UNL     1      47.096   1.005   7.346  0.00  0.00    +0.000 C 
ATOM      8  N   UNL     1      46.782  -0.289   7.677  0.00  0.00    +0.000 N 
ATOM      9  O   UNL     1      48.037   1.270   6.621  0.00  0.00    +0.000 OA
ATOM     10  H   UNL     1      46.003  -0.473   8.302  0.00  0.00    +0.000 HD
ATOM     11  H   UNL     1      47.350  -1.045   7.331  0.00  0.00    +0.000 HD
ENDBRANCH   4   7
BRANCH   1  12
ATOM     12  N   UNL     1      43.816   4.941   9.792  0.00  0.00    +0.000 N 
ATOM     13  H   UNL     1      44.236   5.858   9.617  0.00  0.00    +0.000 HD
BRANCH  12  14
ATOM     14  C   UNL     1      43.648   4.770  11.252  0.00  0.00    +0.000 C 
BRANCH  14  20
ATOM     15  C   UNL     1      47.693   7.482  11.784  0.00  0.00    +0.000 C 
ATOM     16  C   UNL     1      46.872   6.318  12.257  0.00  0.00    +0.000 A 
ATOM     17  C   UNL     1      47.325   5.520  13.301  0.00  0.00    +0.000 A 
ATOM     18  C   UNL     1      46.552   4.433  13.691  0.00  0.00    +0.000 A 
ATOM     19  C   UNL     1      45.354   4.173  13.032  0.00  0.00    +0.000 A 
ATOM     20  C   UNL     1      44.942   5.028  12.009  0.00  0.00    +0.000 A 
ATOM     21  N   UNL     1      45.697   6.089  11.614  0.00  0.00    +0.000 NA
ENDBRANCH  14  20
ENDBRANCH  12  14
ENDBRANCH   1  12
TORSDOF 4
ENDMDL
MODEL 3
REMARK VINA RESULT:    -7.469      2.658      6.146
REMARK INTER + INTRA:          -9.654
REMARK INTER:                  -9.254
REMARK INTRA:                  -0.400
REMARK UNBOUND:                -0.438
REMARK  Name = 
REMARK  5 active torsions:
REMARK  status: ('A' for Active; 'I' for Inactive)
REMARK    1  A    between atoms: C_1  and  C_2
REMARK    2  A    between atoms: C_6  and  C_7
REMARK    3  A    between atoms: C_7  and  N_8
REMARK    4  A    between atoms: N_8  and  C_9
REMARK    5  A    between atoms: C_12  and  C_13
REMARK                            x       y       z     vdW  Elec       q    Type
REMARK                         _______ _______ _______ _____ _____    ______ ____
ROOT
ATOM      1  C   UNL     1      45.305   4.663  11.696  0.00  0.00    +0.000 A 
ATOM      2  C   UNL     1      45.843   5.846  12.207  0.00  0.00    +0.000 A 
ATOM      3  C   UNL     1      46.571   5.836  13.402  0.00  0.00    +0.000 A 
ATOM      4  C   UNL     1      46.713   4.633  14.080  0.00  0.00    +0.000 A 
ATOM      5  N   UNL     1      46.187   3.458  13.643  0.00  0.00    +0.000 NA
ATOM      6  C   UNL     1      45.495   3.517  12.476  0.00  0.00    +0.000 A 
ENDROOT
BRANCH   4   7
ATOM      7  C   UNL     1      47.450   4.589  15.387  0.00  0.00    +0.000 C 
ATOM      8  N   UNL     1      47.056   3.600  16.252  0.00  0.00    +0.000 N 
ATOM      9  O   UNL     1      48.331   5.378  15.674  0.00  0.00    +0.000 OA
ATOM     10  H   UNL     1      46.303   2.973  15.989  0.00  0.00    +0.000 HD
ATOM     11  H   UNL     1      47.489   3.529  17.159  0.00  0.00    +0.000 HD
ENDBRANCH   4   7
BRANCH   1  12
ATOM     12  N   UNL     1      44.506   4.702  10.533  0.00  0.00    +0.000 N 
ATOM     13  H   UNL     1      43.623   5.168  10.758  0.00  0.00    +0.000 HD
BRANCH  12  14
ATOM     14  C   UNL     1      44.204   3.404   9.891  0.00  0.00    +0.000 C 
BRANCH  14  20
ATOM     15  C   UNL     1      46.858  -0.025   7.611  0.00  0.00    +0.000 C 
ATOM     16  C   UNL     1      46.479   1.423   7.723  0.00  0.00    +0.000 A 
ATOM     17  C   UNL     1      47.071   2.367   6.893  0.00  0.00    +0.000 A 
ATOM     18  C   UNL     1      46.718   3.702   7.046  0.00  0.00    +0.000 A 
ATOM     19  C   UNL     1      45.789   4.056   8.020  0.00  0.00    +0.000 A 
ATOM     20  C   UNL     1      45.211   3.058   8.804  0.00  0.00    +0.000 A 
ATOM     21  N   UNL     1      45.558   1.749   8.667  0.00  0.00    +0.000 NA
ENDBRANCH  14  20
ENDBRANCH  12  14
ENDBRANCH   1  12
TORSDOF 4
ENDMDL
MODEL 4
REMARK VINA RESULT:    -7.228      2.633      6.305
REMARK INTER + INTRA:          -9.356
REMARK INTER:                  -9.018
REMARK INTRA:                  -0.338
REMARK UNBOUND:                -0.438
REMARK  Name = 
REMARK  5 active torsions:
REMARK  status: ('A' for Active; 'I' for Inactive)
REMARK    1  A    between atoms: C_1  and  C_2
REMARK    2  A    between atoms: C_6  and  C_7
REMARK    3  A    between atoms: C_7  and  N_8
REMARK    4  A    between atoms: N_8  and  C_9
REMARK    5  A    between atoms: C_12  and  C_13
REMARK                            x       y       z     vdW  Elec       q    Type
REMARK                         _______ _______ _______ _____ _____    ______ ____
ROOT
ATOM      1  C   UNL     1      45.513   5.094  10.987  0.00  0.00    +0.000 A 
ATOM      2  C   UNL     1      46.342   6.082  11.521  0.00  0.00    +0.000 A 
ATOM      3  C   UNL     1      46.867   5.946  12.811  0.00  0.00    +0.000 A 
ATOM      4  C   UNL     1      46.516   4.827  13.554  0.00  0.00    +0.000 A 
ATOM      5  N   UNL     1      45.691   3.849  13.094  0.00  0.00    +0.000 NA
ATOM      6  C   UNL     1      45.212   4.022  11.835  0.00  0.00    +0.000 A 
ENDROOT
BRANCH   4   7
ATOM      7  C   UNL     1      47.024   4.666  14.957  0.00  0.00    +0.000 C 
ATOM      8  N   UNL     1      47.772   5.711  15.436  0.00  0.00    +0.000 N 
ATOM      9  O   UNL     1      46.802   3.675  15.629  0.00  0.00    +0.000 OA
ATOM     10  H   UNL     1      47.956   6.512  14.840  0.00  0.00    +0.000 HD
ATOM     11  H   UNL     1      48.168   5.658  16.361  0.00  0.00    +0.000 HD
ENDBRANCH   4   7
BRANCH   1  12
ATOM     12  N   UNL     1      44.927   5.282   9.717  0.00  0.00    +0.000 N 
ATOM     13  H   UNL     1      44.269   6.064   9.773  0.00  0.00    +0.000 HD
BRANCH  12  14
ATOM     14  C   UNL     1      44.229   4.119   9.128  0.00  0.00    +0.000 C 
BRANCH  14  20
ATOM     15  C   UNL     1      47.208   3.352   5.315  0.00  0.00    +0.000 C 
ATOM     16  C   UNL     1      46.601   2.821   6.581  0.00  0.00    +0.000 A 
ATOM     17  C   UNL     1      46.889   1.530   7.007  0.00  0.00    +0.000 A 
ATOM     18  C   UNL     1      46.285   1.062   8.167  0.00  0.00    +0.000 A 
ATOM     19  C   UNL     1      45.414   1.891   8.867  0.00  0.00    +0.000 A 
ATOM     20  C   UNL     1      45.187   3.186   8.402  0.00  0.00    +0.000 A 
ATOM     21  N   UNL     1      45.767   3.650   7.261  0.00  0.00    +0.000 NA
ENDBRANCH  14  20
ENDBRANCH  12  14
ENDBRANCH   1  12
TORSDOF 4
ENDMDL
MODEL 5
REMARK VINA RESULT:    -6.979      2.982      6.506
REMARK INTER + INTRA:          -9.050
REMARK INTER:                  -8.720
REMARK INTRA:                  -0.330
REMARK UNBOUND:                -0.438
REMARK  Name = 
REMARK  5 active torsions:
REMARK  status: ('A' for Active; 'I' for Inactive)
REMARK    1  A    between atoms: C_1  and  C_2
REMARK    2  A    between atoms: C_6  and  C_7
REMARK    3  A    between atoms: C_7  and  N_8
REMARK    4  A    between atoms: N_8  and  C_9
REMARK    5  A    between atoms: C_12  and  C_13
REMARK                            x       y       z     vdW  Elec       q    Type
REMARK                         _______ _______ _______ _____ _____    ______ ____
ROOT
ATOM      1  C   UNL     1      45.288   4.856  11.745  0.00  0.00    +0.000 A 
ATOM      2  C   UNL     1      44.460   5.816  11.160  0.00  0.00    +0.000 A 
ATOM      3  C   UNL     1      44.648   7.176  11.431  0.00  0.00    +0.000 A 
ATOM      4  C   UNL     1      45.651   7.539  12.319  0.00  0.00    +0.000 A 
ATOM      5  N   UNL     1      46.467   6.645  12.938  0.00  0.00    +0.000 NA
ATOM      6  C   UNL     1      46.250   5.340  12.638  0.00  0.00    +0.000 A 
ENDROOT
BRANCH   4   7
ATOM      7  C   UNL     1      45.857   8.985  12.669  0.00  0.00    +0.000 C 
ATOM      8  N   UNL     1      44.712   9.725  12.815  0.00  0.00    +0.000 N 
ATOM      9  O   UNL     1      46.961   9.479  12.805  0.00  0.00    +0.000 OA
ATOM     10  H   UNL     1      43.807   9.285  12.672  0.00  0.00    +0.000 HD
ATOM     11  H   UNL     1      44.775  10.708  13.022  0.00  0.00    +0.000 HD
ENDBRANCH   4   7
BRANCH   1  12
ATOM     12  N   UNL     1      45.035   3.485  11.525  0.00  0.00    +0.000 N 
ATOM     13  H   UNL     1      45.929   2.987  11.497  0.00  0.00    +0.000 HD
BRANCH  12  14
ATOM     14  C   UNL     1      44.264   3.138  10.311  0.00  0.00    +0.000 C 
BRANCH  14  20
ATOM     15  C   UNL     1      46.846  -0.023   7.600  0.00  0.00    +0.000 C 
ATOM     16  C   UNL     1      46.403   1.394   7.823  0.00  0.00    +0.000 A 
ATOM     17  C   UNL     1      46.850   2.408   6.985  0.00  0.00    +0.000 A 
ATOM     18  C   UNL     1      46.443   3.711   7.241  0.00  0.00    +0.000 A 
ATOM     19  C   UNL     1      45.604   3.966   8.321  0.00  0.00    +0.000 A 
ATOM     20  C   UNL     1      45.168   2.901   9.110  0.00  0.00    +0.000 A 
ATOM     21  N   UNL     1      45.570   1.622   8.872  0.00  0.00    +0.000 NA
ENDBRANCH  14  20
ENDBRANCH  12  14
ENDBRANCH   1  12
TORSDOF 4
ENDMDL
MODEL 6
REMARK VINA RESULT:    -6.079      2.846      6.410
REMARK INTER + INTRA:          -7.939
REMARK INTER:                  -7.555
REMARK INTRA:                  -0.384
REMARK UNBOUND:                -0.438
REMARK  Name = 
REMARK  5 active torsions:
REMARK  status: ('A' for Active; 'I' for Inactive)
REMARK    1  A    between atoms: C_1  and  C_2
REMARK    2  A    between atoms: C_6  and  C_7
REMARK    3  A    between atoms: C_7  and  N_8
REMARK    4  A    between atoms: N_8  and  C_9
REMARK    5  A    between atoms: C_12  and  C_13
REMARK                            x       y       z     vdW  Elec       q    Type
REMARK                         _______ _______ _______ _____ _____    ______ ____
ROOT
ATOM      1  C   UNL     1      45.522   5.253  12.052  0.00  0.00    +0.000 A 
ATOM      2  C   UNL     1      46.164   6.319  11.419  0.00  0.00    +0.000 A 
ATOM      3  C   UNL     1      47.255   6.951  12.026  0.00  0.00    +0.000 A 
ATOM      4  C   UNL     1      47.657   6.515  13.281  0.00  0.00    +0.000 A 
ATOM      5  N   UNL     1      47.051   5.501  13.954  0.00  0.00    +0.000 NA
ATOM      6  C   UNL     1      46.002   4.915  13.322  0.00  0.00    +0.000 A 
ENDROOT
BRANCH   4   7
ATOM      7  C   UNL     1      48.796   7.195  13.984  0.00  0.00    +0.000 C 
ATOM      8  N   UNL     1      48.877   8.552  13.797  0.00  0.00    +0.000 N 
ATOM      9  O   UNL     1      49.604   6.593  14.666  0.00  0.00    +0.000 OA
ATOM     10  H   UNL     1      48.199   9.019  13.204  0.00  0.00    +0.000 HD
ATOM     11  H   UNL     1      49.633   9.069  14.217  0.00  0.00    +0.000 HD
ENDBRANCH   4   7
BRANCH   1  12
ATOM     12  N   UNL     1      44.375   4.678  11.464  0.00  0.00    +0.000 N 
ATOM     13  H   UNL     1      44.374   3.673  11.663  0.00  0.00    +0.000 HD
BRANCH  12  14
ATOM     14  C   UNL     1      44.206   4.871  10.007  0.00  0.00    +0.000 C 
BRANCH  14  20
ATOM     15  C   UNL     1      46.969   3.716   6.130  0.00  0.00    +0.000 C 
ATOM     16  C   UNL     1      46.234   3.247   7.352  0.00  0.00    +0.000 A 
ATOM     17  C   UNL     1      46.195   1.895   7.670  0.00  0.00    +0.000 A 
ATOM     18  C   UNL     1      45.479   1.494   8.790  0.00  0.00    +0.000 A 
ATOM     19  C   UNL     1      44.823   2.451   9.560  0.00  0.00    +0.000 A 
ATOM     20  C   UNL     1      44.922   3.796   9.203  0.00  0.00    +0.000 A 
ATOM     21  N   UNL     1      45.613   4.196   8.101  0.00  0.00    +0.000 NA
ENDBRANCH  14  20
ENDBRANCH  12  14
ENDBRANCH   1  12
TORSDOF 4
ENDMDL
MODEL 7
REMARK VINA RESULT:    -5.862      2.820      4.898
REMARK INTER + INTRA:          -7.671
REMARK INTER:                  -7.311
REMARK INTRA:                  -0.360
REMARK UNBOUND:                -0.438
REMARK  Name = 
REMARK  5 active torsions:
REMARK  status: ('A' for Active; 'I' for Inactive)
REMARK    1  A    between atoms: C_1  and  C_2
REMARK    2  A    between atoms: C_6  and  C_7
REMARK    3  A    between atoms: C_7  and  N_8
REMARK    4  A    between atoms: N_8  and  C_9
REMARK    5  A    between atoms: C_12  and  C_13
REMARK                            x       y       z     vdW  Elec       q    Type
REMARK                         _______ _______ _______ _____ _____    ______ ____
ROOT
ATOM      1  C   UNL     1      46.238   6.337  12.919  0.00  0.00    +0.000 A 
ATOM      2  C   UNL     1      46.316   6.641  11.558  0.00  0.00    +0.000 A 
ATOM      3  C   UNL     1      45.633   5.863  10.617  0.00  0.00    +0.000 A 
ATOM      4  C   UNL     1      44.908   4.767  11.066  0.00  0.00    +0.000 A 
ATOM      5  N   UNL     1      44.820   4.410  12.375  0.00  0.00    +0.000 NA
ATOM      6  C   UNL     1      45.494   5.199  13.250  0.00  0.00    +0.000 A 
ENDROOT
BRANCH   4   7
ATOM      7  C   UNL     1      44.196   3.883  10.083  0.00  0.00    +0.000 C 
ATOM      8  N   UNL     1      44.095   4.380   8.809  0.00  0.00    +0.000 N 
ATOM      9  O   UNL     1      43.727   2.802  10.389  0.00  0.00    +0.000 OA
ATOM     10  H   UNL     1      44.479   5.296   8.595  0.00  0.00    +0.000 HD
ATOM     11  H   UNL     1      43.606   3.852   8.104  0.00  0.00    +0.000 HD
ENDBRANCH   4   7
BRANCH   1  12
ATOM     12  N   UNL     1      46.996   7.081  13.848  0.00  0.00    +0.000 N 
ATOM     13  H   UNL     1      47.045   8.052  13.527  0.00  0.00    +0.000 HD
BRANCH  12  14
ATOM     14  C   UNL     1      48.370   6.604  14.119  0.00  0.00    +0.000 C 
BRANCH  14  20
ATOM     15  C   UNL     1      47.704   2.881  17.233  0.00  0.00    +0.000 C 
ATOM     16  C   UNL     1      48.192   4.284  17.014  0.00  0.00    +0.000 A 
ATOM     17  C   UNL     1      48.699   5.022  18.077  0.00  0.00    +0.000 A 
ATOM     18  C   UNL     1      49.112   6.328  17.843  0.00  0.00    +0.000 A 
ATOM     19  C   UNL     1      49.008   6.859  16.561  0.00  0.00    +0.000 A 
ATOM     20  C   UNL     1      48.515   6.057  15.531  0.00  0.00    +0.000 A 
ATOM     21  N   UNL     1      48.099   4.780  15.753  0.00  0.00    +0.000 NA
ENDBRANCH  14  20
ENDBRANCH  12  14
ENDBRANCH   1  12
TORSDOF 4
ENDMDL
MODEL 8
REMARK VINA RESULT:    -5.819      2.477      4.250
REMARK INTER + INTRA:          -7.618
REMARK INTER:                  -7.287
REMARK INTRA:                  -0.331
REMARK UNBOUND:                -0.438
REMARK  Name = 
REMARK  5 active torsions:
REMARK  status: ('A' for Active; 'I' for Inactive)
REMARK    1  A    between atoms: C_1  and  C_2
REMARK    2  A    between atoms: C_6  and  C_7
REMARK    3  A    between atoms: C_7  and  N_8
REMARK    4  A    between atoms: N_8  and  C_9
REMARK    5  A    between atoms: C_12  and  C_13
REMARK                            x       y       z     vdW  Elec       q    Type
REMARK                         _______ _______ _______ _____ _____    ______ ____
ROOT
ATOM      1  C   UNL     1      45.638   5.201  12.515  0.00  0.00    +0.000 A 
ATOM      2  C   UNL     1      45.699   5.795  11.253  0.00  0.00    +0.000 A 
ATOM      3  C   UNL     1      45.348   5.068  10.110  0.00  0.00    +0.000 A 
ATOM      4  C   UNL     1      44.972   3.740  10.260  0.00  0.00    +0.000 A 
ATOM      5  N   UNL     1      44.923   3.105  11.461  0.00  0.00    +0.000 NA
ATOM      6  C   UNL     1      45.266   3.853  12.540  0.00  0.00    +0.000 A 
ENDROOT
BRANCH   4   7
ATOM      7  C   UNL     1      44.629   2.915   9.054  0.00  0.00    +0.000 C 
ATOM      8  N   UNL     1      44.339   3.626   7.917  0.00  0.00    +0.000 N 
ATOM      9  O   UNL     1      44.597   1.698   9.075  0.00  0.00    +0.000 OA
ATOM     10  H   UNL     1      44.354   4.641   7.941  0.00  0.00    +0.000 HD
ATOM     11  H   UNL     1      44.073   3.137   7.077  0.00  0.00    +0.000 HD
ENDBRANCH   4   7
BRANCH   1  12
ATOM     12  N   UNL     1      46.072   5.921  13.649  0.00  0.00    +0.000 N 
ATOM     13  H   UNL     1      45.754   6.890  13.563  0.00  0.00    +0.000 HD
BRANCH  12  14
ATOM     14  C   UNL     1      47.527   5.924  13.918  0.00  0.00    +0.000 C 
BRANCH  14  20
ATOM     15  C   UNL     1      50.465   5.746  17.833  0.00  0.00    +0.000 C 
ATOM     16  C   UNL     1      49.266   5.195  17.118  0.00  0.00    +0.000 A 
ATOM     17  C   UNL     1      48.556   4.130  17.660  0.00  0.00    +0.000 A 
ATOM     18  C   UNL     1      47.471   3.627  16.954  0.00  0.00    +0.000 A 
ATOM     19  C   UNL     1      47.124   4.198  15.733  0.00  0.00    +0.000 A 
ATOM     20  C   UNL     1      47.861   5.282  15.256  0.00  0.00    +0.000 A 
ATOM     21  N   UNL     1      48.932   5.775  15.936  0.00  0.00    +0.000 NA
ENDBRANCH  14  20
ENDBRANCH  12  14
ENDBRANCH   1  12
TORSDOF 4
ENDMDL
MODEL 9
REMARK VINA RESULT:    -5.410      2.523      4.126
REMARK INTER + INTRA:          -7.113
REMARK INTER:                  -6.745
REMARK INTRA:                  -0.368
REMARK UNBOUND:                -0.438
REMARK  Name = 
REMARK  5 active torsions:
REMARK  status: ('A' for Active; 'I' for Inactive)
REMARK    1  A    between atoms: C_1  and  C_2
REMARK    2  A    between atoms: C_6  and  C_7
REMARK    3  A    between atoms: C_7  and  N_8
REMARK    4  A    between atoms: N_8  and  C_9
REMARK    5  A    between atoms: C_12  and  C_13
REMARK                            x       y       z     vdW  Elec       q    Type
REMARK                         _______ _______ _______ _____ _____    ______ ____
ROOT
ATOM      1  C   UNL     1      45.555   5.273  12.489  0.00  0.00    +0.000 A 
ATOM      2  C   UNL     1      45.633   5.832  11.212  0.00  0.00    +0.000 A 
ATOM      3  C   UNL     1      45.281   5.079  10.085  0.00  0.00    +0.000 A 
ATOM      4  C   UNL     1      44.889   3.760  10.267  0.00  0.00    +0.000 A 
ATOM      5  N   UNL     1      44.822   3.158  11.485  0.00  0.00    +0.000 NA
ATOM      6  C   UNL     1      45.166   3.930  12.547  0.00  0.00    +0.000 A 
ENDROOT
BRANCH   4   7
ATOM      7  C   UNL     1      44.545   2.908   9.081  0.00  0.00    +0.000 C 
ATOM      8  N   UNL     1      44.257   3.592   7.927  0.00  0.00    +0.000 N 
ATOM      9  O   UNL     1      44.509   1.692   9.130  0.00  0.00    +0.000 OA
ATOM     10  H   UNL     1      44.275   4.607   7.927  0.00  0.00    +0.000 HD
ATOM     11  H   UNL     1      43.991   3.084   7.099  0.00  0.00    +0.000 HD
ENDBRANCH   4   7
BRANCH   1  12
ATOM     12  N   UNL     1      45.988   6.017  13.607  0.00  0.00    +0.000 N 
ATOM     13  H   UNL     1      46.163   6.981  13.310  0.00  0.00    +0.000 HD
BRANCH  12  14
ATOM     14  C   UNL     1      47.187   5.517  14.314  0.00  0.00    +0.000 C 
BRANCH  14  20
ATOM     15  C   UNL     1      50.225   7.996  11.377  0.00  0.00    +0.000 C 
ATOM     16  C   UNL     1      49.817   7.644  12.778  0.00  0.00    +0.000 A 
ATOM     17  C   UNL     1      50.530   8.144  13.861  0.00  0.00    +0.000 A 
ATOM     18  C   UNL     1      50.142   7.771  15.142  0.00  0.00    +0.000 A 
ATOM     19  C   UNL     1      49.057   6.914  15.306  0.00  0.00    +0.000 A 
ATOM     20  C   UNL     1      48.367   6.468  14.180  0.00  0.00    +0.000 A 
ATOM     21  N   UNL     1      48.746   6.820  12.920  0.00  0.00    +0.000 NA
ENDBRANCH  14  20
ENDBRANCH  12  14
ENDBRANCH   1  12
TORSDOF 4
ENDMDL
