MODEL 1
REMARK VINA RESULT:    -7.734      0.000      0.000
REMARK INTER + INTRA:         -10.305
REMARK INTER:                  -9.769
REMARK INTRA:                  -0.536
REMARK UNBOUND:                -0.536
REMARK  Name = 
REMARK  5 active torsions:
REMARK  status: ('A' for Active; 'I' for Inactive)
REMARK    1  A    between atoms: C_2  and  C_3
REMARK    2  A    between atoms: C_6  and  N_7
REMARK    3  A    between atoms: N_7  and  C_8
REMARK    4  A    between atoms: C_8  and  C_9
REMARK    5  A    between atoms: C_12  and  O_13
REMARK                            x       y       z     vdW  Elec       q    Type
REMARK                         _______ _______ _______ _____ _____    ______ ____
ROOT
ATOM      1  C   UNL     1      44.089   4.770  11.557  0.00  0.00    +0.000 C 
ATOM      2  C   UNL     1      43.232   3.808  12.362  0.00  0.00    +0.000 C 
ATOM      3  C   UNL     1      42.829   5.238  12.295  0.00  0.00    +0.000 C 
ENDROOT
BRANCH   1   4
ATOM      4  C   UNL     1      45.359   5.385  12.152  0.00  0.00    +0.000 A 
ATOM      5  C   UNL     1      45.987   4.794  13.271  0.00  0.00    +0.000 A 
ATOM      6  C   UNL     1      47.265   5.181  13.686  0.00  0.00    +0.000 A 
ATOM      7  C   UNL     1      47.924   6.187  12.995  0.00  0.00    +0.000 A 
ATOM      8  C   UNL     1      47.300   6.852  11.950  0.00  0.00    +0.000 A 
ATOM      9  C   UNL     1      46.021   6.460  11.540  0.00  0.00    +0.000 A 
BRANCH   7  10
ATOM     10  O   UNL     1      49.206   6.539  13.302  0.00  0.00    +0.000 OA
ATOM     11  H   UNL     1      49.775   6.326  12.544  0.00  0.00    +0.000 HD
ENDBRANCH   7  10
ENDBRANCH   1   4
BRANCH   1  12
ATOM     12  N   UNL     1      44.047   4.732  10.087  0.00  0.00    +0.000 N 
ATOM     13  H   UNL     1      43.249   5.157   9.628  0.00  0.00    +0.000 HD
BRANCH  12  17
ATOM     14  C   UNL     1      46.630   2.722   7.487  0.00  0.00    +0.000 A 
ATOM     15  C   UNL     1      45.868   1.957   8.359  0.00  0.00    +0.000 A 
ATOM     16  C   UNL     1      45.010   2.608   9.252  0.00  0.00    +0.000 A 
ATOM     17  C   UNL     1      44.907   3.999   9.252  0.00  0.00    +0.000 A 
ATOM     18  C   UNL     1      45.722   4.665   8.330  0.00  0.00    +0.000 A 
ATOM     19  N   UNL     1      46.574   4.074   7.454  0.00  0.00    +0.000 NA
BRANCH  14  21
ATOM     20  N   UNL     1      48.311   1.632   5.831  0.00  0.00    +0.000 NA
ATOM     21  C   UNL     1      47.544   2.105   6.559  0.00  0.00    +0.000 C 
ENDBRANCH  14  21
ENDBRANCH  12  17
ENDBRANCH   1  12
TORSDOF 5
ENDMDL
MODEL 2
REMARK VINA RESULT:    -6.685      1.821      2.092
REMARK INTER + INTRA:          -8.979
REMARK INTER:                  -8.581
REMARK INTRA:                  -0.398
REMARK UNBOUND:                -0.536
REMARK  Name = 
REMARK  5 active torsions:
REMARK  status: ('A' for Active; 'I' for Inactive)
REMARK    1  A    between atoms: C_2  and  C_3
REMARK    2  A    between atoms: C_6  and  N_7
REMARK    3  A    between atoms: N_7  and  C_8
REMARK    4  A    between atoms: C_8  and  C_9
REMARK    5  A    between atoms: C_12  and  O_13
REMARK                            x       y       z     vdW  Elec       q    Type
REMARK                         _______ _______ _______ _____ _____    ______ ____
ROOT
ATOM      1  C   UNL     1      44.092   5.396  11.717  0.00  0.00    +0.000 C 
ATOM      2  C   UNL     1      44.337   4.274  12.712  0.00  0.00    +0.000 C 
ATOM      3  C   UNL     1      43.008   4.942  12.701  0.00  0.00    +0.000 C 
ENDROOT
BRANCH   1   4
ATOM      4  C   UNL     1      44.561   6.825  12.006  0.00  0.00    +0.000 A 
ATOM      5  C   UNL     1      45.617   7.064  12.914  0.00  0.00    +0.000 A 
ATOM      6  C   UNL     1      46.226   8.319  13.018  0.00  0.00    +0.000 A 
ATOM      7  C   UNL     1      45.767   9.361  12.226  0.00  0.00    +0.000 A 
ATOM      8  C   UNL     1      44.673   9.185  11.392  0.00  0.00    +0.000 A 
ATOM      9  C   UNL     1      44.068   7.928  11.292  0.00  0.00    +0.000 A 
BRANCH   7  10
ATOM     10  O   UNL     1      46.384  10.577  12.223  0.00  0.00    +0.000 OA
ATOM     11  H   UNL     1      46.025  11.105  11.491  0.00  0.00    +0.000 HD
ENDBRANCH   7  10
ENDBRANCH   1   4
BRANCH   1  12
ATOM     12  N   UNL     1      43.899   5.081  10.293  0.00  0.00    +0.000 N 
ATOM     13  H   UNL     1      43.031   5.375   9.860  0.00  0.00    +0.000 HD
BRANCH  12  17
ATOM     14  C   UNL     1      46.374   2.763   7.850  0.00  0.00    +0.000 A 
ATOM     15  C   UNL     1      45.491   2.098   8.689  0.00  0.00    +0.000 A 
ATOM     16  C   UNL     1      44.665   2.852   9.530  0.00  0.00    +0.000 A 
ATOM     17  C   UNL     1      44.715   4.247   9.511  0.00  0.00    +0.000 A 
ATOM     18  C   UNL     1      45.643   4.806   8.625  0.00  0.00    +0.000 A 
ATOM     19  N   UNL     1      46.468   4.112   7.801  0.00  0.00    +0.000 NA
BRANCH  14  21
ATOM     20  N   UNL     1      47.977   1.420   6.305  0.00  0.00    +0.000 NA
ATOM     21  C   UNL     1      47.261   2.035   6.976  0.00  0.00    +0.000 C 
ENDBRANCH  14  21
ENDBRANCH  12  17
ENDBRANCH   1  12
TORSDOF 5
ENDMDL
MODEL 3
REMARK VINA RESULT:    -6.432      3.225      5.944
REMARK INTER + INTRA:          -8.660
REMARK INTER:                  -8.212
REMARK INTRA:                  -0.448
REMARK UNBOUND:                -0.536
REMARK  Name = 
REMARK  5 active torsions:
REMARK  status: ('A' for Active; 'I' for Inactive)
REMARK    1  A    between atoms: C_2  and  C_3
REMARK    2  A    between atoms: C_6  and  N_7
REMARK    3  A    between atoms: N_7  and  C_8
REMARK    4  A    between atoms: C_8  and  C_9
REMARK    5  A    between atoms: C_12  and  O_13
REMARK                            x       y       z     vdW  Elec       q    Type
REMARK                         _______ _______ _______ _____ _____    ______ ____
ROOT
ATOM      1  C   UNL     1      44.385   4.656  11.134  0.00  0.00    +0.000 C 
ATOM      2  C   UNL     1      43.405   5.812  11.029  0.00  0.00    +0.000 C 
ATOM      3  C   UNL     1      42.885   4.464  11.380  0.00  0.00    +0.000 C 
ENDROOT
BRANCH   1   4
ATOM      4  C   UNL     1      44.859   3.906   9.886  0.00  0.00    +0.000 A 
ATOM      5  C   UNL     1      45.460   4.603   8.814  0.00  0.00    +0.000 A 
ATOM      6  C   UNL     1      46.117   3.932   7.777  0.00  0.00    +0.000 A 
ATOM      7  C   UNL     1      46.158   2.546   7.789  0.00  0.00    +0.000 A 
ATOM      8  C   UNL     1      45.499   1.828   8.776  0.00  0.00    +0.000 A 
ATOM      9  C   UNL     1      44.844   2.505   9.811  0.00  0.00    +0.000 A 
BRANCH   7  10
ATOM     10  O   UNL     1      46.861   1.847   6.852  0.00  0.00    +0.000 OA
ATOM     11  H   UNL     1      47.743   2.246   6.766  0.00  0.00    +0.000 HD
ENDBRANCH   7  10
ENDBRANCH   1   4
BRANCH   1  12
ATOM     12  N   UNL     1      45.287   4.565  12.293  0.00  0.00    +0.000 N 
ATOM     13  H   UNL     1      45.011   3.956  13.056  0.00  0.00    +0.000 HD
BRANCH  12  17
ATOM     14  C   UNL     1      48.615   6.915  13.222  0.00  0.00    +0.000 A 
ATOM     15  C   UNL     1      47.922   7.212  12.058  0.00  0.00    +0.000 A 
ATOM     16  C   UNL     1      46.814   6.427  11.716  0.00  0.00    +0.000 A 
ATOM     17  C   UNL     1      46.405   5.378  12.540  0.00  0.00    +0.000 A 
ATOM     18  C   UNL     1      47.180   5.173  13.687  0.00  0.00    +0.000 A 
ATOM     19  N   UNL     1      48.265   5.903  14.050  0.00  0.00    +0.000 NA
BRANCH  14  21
ATOM     20  N   UNL     1      50.728   8.256  13.927  0.00  0.00    +0.000 NA
ATOM     21  C   UNL     1      49.774   7.679  13.613  0.00  0.00    +0.000 C 
ENDBRANCH  14  21
ENDBRANCH  12  17
ENDBRANCH   1  12
TORSDOF 5
ENDMDL
MODEL 4
REMARK VINA RESULT:    -6.271      3.042      6.162
REMARK INTER + INTRA:          -8.457
REMARK INTER:                  -8.613
REMARK INTRA:                   0.156
REMARK UNBOUND:                -0.536
REMARK  Name = 
REMARK  5 active torsions:
REMARK  status: ('A' for Active; 'I' for Inactive)
REMARK    1  A    between atoms: C_2  and  C_3
REMARK    2  A    between atoms: C_6  and  N_7
REMARK    3  A    between atoms: N_7  and  C_8
REMARK    4  A    between atoms: C_8  and  C_9
REMARK    5  A    between atoms: C_12  and  O_13
REMARK                            x       y       z     vdW  Elec       q    Type
REMARK                         _______ _______ _______ _____ _____    ______ ____
ROOT
ATOM      1  C   UNL     1      44.532   3.966  10.288  0.00  0.00    +0.000 C 
ATOM      2  C   UNL     1      43.437   3.223  11.034  0.00  0.00    +0.000 C 
ATOM      3  C   UNL     1      44.812   3.227  11.601  0.00  0.00    +0.000 C 
ENDROOT
BRANCH   1   4
ATOM      4  C   UNL     1      45.260   3.322   9.105  0.00  0.00    +0.000 A 
ATOM      5  C   UNL     1      45.932   4.121   8.153  0.00  0.00    +0.000 A 
ATOM      6  C   UNL     1      46.801   3.565   7.208  0.00  0.00    +0.000 A 
ATOM      7  C   UNL     1      46.989   2.191   7.190  0.00  0.00    +0.000 A 
ATOM      8  C   UNL     1      46.275   1.369   8.049  0.00  0.00    +0.000 A 
ATOM      9  C   UNL     1      45.408   1.931   8.992  0.00  0.00    +0.000 A 
BRANCH   7  10
ATOM     10  O   UNL     1      47.893   1.609   6.351  0.00  0.00    +0.000 OA
ATOM     11  H   UNL     1      48.513   1.082   6.881  0.00  0.00    +0.000 HD
ENDBRANCH   7  10
ENDBRANCH   1   4
BRANCH   1  12
ATOM     12  N   UNL     1      44.563   5.437  10.309  0.00  0.00    +0.000 N 
ATOM     13  H   UNL     1      44.059   5.929   9.581  0.00  0.00    +0.000 HD
BRANCH  12  17
ATOM     14  C   UNL     1      46.816   7.921  12.804  0.00  0.00    +0.000 A 
ATOM     15  C   UNL     1      47.499   7.154  11.872  0.00  0.00    +0.000 A 
ATOM     16  C   UNL     1      46.768   6.300  11.037  0.00  0.00    +0.000 A 
ATOM     17  C   UNL     1      45.377   6.237  11.129  0.00  0.00    +0.000 A 
ATOM     18  C   UNL     1      44.798   7.055  12.105  0.00  0.00    +0.000 A 
ATOM     19  N   UNL     1      45.470   7.889  12.940  0.00  0.00    +0.000 NA
BRANCH  14  21
ATOM     20  N   UNL     1      48.123   9.491  14.412  0.00  0.00    +0.000 NA
ATOM     21  C   UNL     1      47.520   8.803  13.701  0.00  0.00    +0.000 C 
ENDBRANCH  14  21
ENDBRANCH  12  17
ENDBRANCH   1  12
TORSDOF 5
ENDMDL
MODEL 5
REMARK VINA RESULT:    -5.561      3.215      6.093
REMARK INTER + INTRA:          -7.559
REMARK INTER:                  -7.787
REMARK INTRA:                   0.227
REMARK UNBOUND:                -0.536
REMARK  Name = 
REMARK  5 active torsions:
REMARK  status: ('A' for Active; 'I' for Inactive)
REMARK    1  A    between atoms: C_2  and  C_3
REMARK    2  A    between atoms: C_6  and  N_7
REMARK    3  A    between atoms: N_7  and  C_8
REMARK    4  A    between atoms: C_8  and  C_9
REMARK    5  A    between atoms: C_12  and  O_13
REMARK                            x       y       z     vdW  Elec       q    Type
REMARK                         _______ _______ _______ _____ _____    ______ ____
ROOT
ATOM      1  C   UNL     1      44.294   4.656  10.836  0.00  0.00    +0.000 C 
ATOM      2  C   UNL     1      43.034   4.021  11.401  0.00  0.00    +0.000 C 
ATOM      3  C   UNL     1      44.307   3.882  12.159  0.00  0.00    +0.000 C 
ENDROOT
BRANCH   1   4
ATOM      4  C   UNL     1      45.119   3.951   9.756  0.00  0.00    +0.000 A 
ATOM      5  C   UNL     1      45.129   2.541   9.665  0.00  0.00    +0.000 A 
ATOM      6  C   UNL     1      45.668   1.879   8.557  0.00  0.00    +0.000 A 
ATOM      7  C   UNL     1      46.228   2.625   7.532  0.00  0.00    +0.000 A 
ATOM      8  C   UNL     1      46.319   4.006   7.630  0.00  0.00    +0.000 A 
ATOM      9  C   UNL     1      45.778   4.662   8.741  0.00  0.00    +0.000 A 
BRANCH   7  10
ATOM     10  O   UNL     1      46.685   2.035   6.390  0.00  0.00    +0.000 OA
ATOM     11  H   UNL     1      46.763   1.079   6.545  0.00  0.00    +0.000 HD
ENDBRANCH   7  10
ENDBRANCH   1   4
BRANCH   1  12
ATOM     12  N   UNL     1      44.466   6.116  10.895  0.00  0.00    +0.000 N 
ATOM     13  H   UNL     1      43.909   6.681  10.265  0.00  0.00    +0.000 HD
BRANCH  12  17
ATOM     14  C   UNL     1      47.293   8.308  13.057  0.00  0.00    +0.000 A 
ATOM     15  C   UNL     1      47.760   7.325  12.197  0.00  0.00    +0.000 A 
ATOM     16  C   UNL     1      46.832   6.564  11.476  0.00  0.00    +0.000 A 
ATOM     17  C   UNL     1      45.464   6.805  11.605  0.00  0.00    +0.000 A 
ATOM     18  C   UNL     1      45.111   7.820  12.501  0.00  0.00    +0.000 A 
ATOM     19  N   UNL     1      45.976   8.574  13.225  0.00  0.00    +0.000 NA
BRANCH  14  21
ATOM     20  N   UNL     1      48.955   9.762  14.429  0.00  0.00    +0.000 NA
ATOM     21  C   UNL     1      48.203   9.108  13.838  0.00  0.00    +0.000 C 
ENDBRANCH  14  21
ENDBRANCH  12  17
ENDBRANCH   1  12
TORSDOF 5
ENDMDL
MODEL 6
REMARK VINA RESULT:    -5.209      3.867      6.762
REMARK INTER + INTRA:          -7.115
REMARK INTER:                  -7.155
REMARK INTRA:                   0.040
REMARK UNBOUND:                -0.536
REMARK  Name = 
REMARK  5 active torsions:
REMARK  status: ('A' for Active; 'I' for Inactive)
REMARK    1  A    between atoms: C_2  and  C_3
REMARK    2  A    between atoms: C_6  and  N_7
REMARK    3  A    between atoms: N_7  and  C_8
REMARK    4  A    between atoms: C_8  and  C_9
REMARK    5  A    between atoms: C_12  and  O_13
REMARK                            x       y       z     vdW  Elec       q    Type
REMARK                         _______ _______ _______ _____ _____    ______ ____
ROOT
ATOM      1  C   UNL     1      45.870   6.324  11.816  0.00  0.00    +0.000 C 
ATOM      2  C   UNL     1      45.375   7.742  11.586  0.00  0.00    +0.000 C 
ATOM      3  C   UNL     1      44.795   6.956  12.708  0.00  0.00    +0.000 C 
ENDROOT
BRANCH   1   4
ATOM      4  C   UNL     1      45.317   5.152  11.000  0.00  0.00    +0.000 A 
ATOM      5  C   UNL     1      45.497   5.103   9.600  0.00  0.00    +0.000 A 
ATOM      6  C   UNL     1      45.223   3.946   8.864  0.00  0.00    +0.000 A 
ATOM      7  C   UNL     1      44.740   2.825   9.521  0.00  0.00    +0.000 A 
ATOM      8  C   UNL     1      44.465   2.867  10.881  0.00  0.00    +0.000 A 
ATOM      9  C   UNL     1      44.741   4.027  11.611  0.00  0.00    +0.000 A 
BRANCH   7  10
ATOM     10  O   UNL     1      44.544   1.645   8.866  0.00  0.00    +0.000 OA
ATOM     11  H   UNL     1      45.099   1.638   8.068  0.00  0.00    +0.000 HD
ENDBRANCH   7  10
ENDBRANCH   1   4
BRANCH   1  12
ATOM     12  N   UNL     1      47.201   6.101  12.402  0.00  0.00    +0.000 N 
ATOM     13  H   UNL     1      47.997   6.100  11.774  0.00  0.00    +0.000 HD
BRANCH  12  17
ATOM     14  C   UNL     1      48.159   5.036  16.328  0.00  0.00    +0.000 A 
ATOM     15  C   UNL     1      47.280   4.217  15.635  0.00  0.00    +0.000 A 
ATOM     16  C   UNL     1      46.929   4.563  14.325  0.00  0.00    +0.000 A 
ATOM     17  C   UNL     1      47.469   5.699  13.721  0.00  0.00    +0.000 A 
ATOM     18  C   UNL     1      48.344   6.447  14.516  0.00  0.00    +0.000 A 
ATOM     19  N   UNL     1      48.703   6.154  15.792  0.00  0.00    +0.000 NA
BRANCH  14  21
ATOM     20  N   UNL     1      48.838   4.456  18.770  0.00  0.00    +0.000 NA
ATOM     21  C   UNL     1      48.540   4.738  17.686  0.00  0.00    +0.000 C 
ENDBRANCH  14  21
ENDBRANCH  12  17
ENDBRANCH   1  12
TORSDOF 5
ENDMDL
