MODEL 1
REMARK VINA RESULT:    -7.808      0.000      0.000
REMARK INTER + INTRA:         -12.133
REMARK INTER:                 -11.003
REMARK INTRA:                  -1.130
REMARK UNBOUND:                -1.130
REMARK  Name = 
REMARK  8 active torsions:
REMARK  status: ('A' for Active; 'I' for Inactive)
REMARK    1  A    between atoms: C_1  and  C_2
REMARK    2  A    between atoms: C_2  and  N_3
REMARK    3  A    between atoms: N_3  and  C_4
REMARK    4  A    between atoms: C_4  and  C_5
REMARK    5  A    between atoms: C_8  and  C_9
REMARK    6  A    between atoms: C_9  and  N_10
REMARK    7  A    between atoms: C_11  and  C_13
REMARK    8  A    between atoms: C_20  and  C_22
REMARK                            x       y       z     vdW  Elec       q    Type
REMARK                         _______ _______ _______ _____ _____    ______ ____
ROOT
ATOM      1  C   UNL     1      47.304   6.727  12.129  0.00  0.00    +0.000 C 
ENDROOT
BRANCH   1   2
ATOM      2  C   UNL     1      47.587   5.856  13.327  0.00  0.00    +0.000 A 
ATOM      3  C   UNL     1      48.297   6.377  14.420  0.00  0.00    +0.000 A 
ATOM      4  C   UNL     1      48.350   5.684  15.630  0.00  0.00    +0.000 A 
ATOM      5  C   UNL     1      47.705   4.448  15.764  0.00  0.00    +0.000 A 
ATOM      6  C   UNL     1      47.051   3.899  14.652  0.00  0.00    +0.000 A 
ATOM      7  C   UNL     1      47.004   4.590  13.439  0.00  0.00    +0.000 A 
BRANCH   5   8
ATOM      8  C   UNL     1      47.621   3.774  17.108  0.00  0.00    +0.000 C 
BRANCH   8   9
ATOM      9  N   UNL     1      48.933   3.346  17.538  0.00  0.00    +0.000 N 
ATOM     10  C   UNL     1      49.590   2.316  16.915  0.00  0.00    +0.000 C 
ATOM     11  O   UNL     1      49.101   1.692  15.979  0.00  0.00    +0.000 OA
ATOM     12  H   UNL     1      49.392   3.871  18.267  0.00  0.00    +0.000 HD
BRANCH  10  13
ATOM     13  C   UNL     1      50.903   2.024  17.431  0.00  0.00    +0.000 A 
ATOM     14  C   UNL     1      51.997   2.803  17.757  0.00  0.00    +0.000 A 
ATOM     15  C   UNL     1      52.977   1.898  18.204  0.00  0.00    +0.000 A 
ATOM     16  N   UNL     1      52.550   0.635  18.173  0.00  0.00    +0.000 NA
ATOM     17  N   UNL     1      51.294   0.738  17.705  0.00  0.00    +0.000 N 
ATOM     18  H   UNL     1      50.739  -0.105  17.592  0.00  0.00    +0.000 HD
ENDBRANCH  10  13
ENDBRANCH   8   9
ENDBRANCH   5   8
ENDBRANCH   1   2
BRANCH   1  19
ATOM     19  N   UNL     1      46.150   7.620  12.110  0.00  0.00    +0.000 N 
ATOM     20  C   UNL     1      44.945   7.290  11.453  0.00  0.00    +0.000 C 
ATOM     21  O   UNL     1      43.971   8.040  11.492  0.00  0.00    +0.000 OA
BRANCH  20  22
ATOM     22  C   UNL     1      44.826   6.007  10.739  0.00  0.00    +0.000 A 
ATOM     23  C   UNL     1      45.419   5.713   9.521  0.00  0.00    +0.000 A 
ATOM     24  S   UNL     1      45.161   4.108   8.999  0.00  0.00    +0.000 S 
ATOM     25  C   UNL     1      44.378   3.710  10.455  0.00  0.00    +0.000 A 
ATOM     26  N   UNL     1      43.994   2.433  10.717  0.00  0.00    +0.000 NA
ATOM     27  C   UNL     1      43.475   2.269  11.889  0.00  0.00    +0.000 A 
ATOM     28  N   UNL     1      43.266   3.273  12.800  0.00  0.00    +0.000 N 
ATOM     29  C   UNL     1      43.510   4.599  12.520  0.00  0.00    +0.000 A 
ATOM     30  O   UNL     1      43.090   5.488  13.249  0.00  0.00    +0.000 OA
ATOM     31  C   UNL     1      44.218   4.810  11.270  0.00  0.00    +0.000 A 
ATOM     32  H   UNL     1      42.789   3.089  13.670  0.00  0.00    +0.000 HD
ENDBRANCH  20  22
BRANCH  19  34
ATOM     33  C   UNL     1      46.790  10.012  12.178  0.00  0.00    +0.000 C 
ATOM     34  C   UNL     1      46.147   8.845  12.912  0.00  0.00    +0.000 C 
ENDBRANCH  19  34
ENDBRANCH   1  19
TORSDOF 7
ENDMDL
MODEL 2
REMARK VINA RESULT:    -7.763      3.841      7.898
REMARK INTER + INTRA:         -12.069
REMARK INTER:                 -10.727
REMARK INTRA:                  -1.342
REMARK UNBOUND:                -1.130
REMARK  Name = 
REMARK  8 active torsions:
REMARK  status: ('A' for Active; 'I' for Inactive)
REMARK    1  A    between atoms: C_1  and  C_2
REMARK    2  A    between atoms: C_2  and  N_3
REMARK    3  A    between atoms: N_3  and  C_4
REMARK    4  A    between atoms: C_4  and  C_5
REMARK    5  A    between atoms: C_8  and  C_9
REMARK    6  A    between atoms: C_9  and  N_10
REMARK    7  A    between atoms: C_11  and  C_13
REMARK    8  A    between atoms: C_20  and  C_22
REMARK                            x       y       z     vdW  Elec       q    Type
REMARK                         _______ _______ _______ _____ _____    ______ ____
ROOT
ATOM      1  C   UNL     1      47.423   7.720  13.872  0.00  0.00    +0.000 C 
ENDROOT
BRANCH   1   2
ATOM      2  C   UNL     1      46.459   6.792  13.177  0.00  0.00    +0.000 A 
ATOM      3  C   UNL     1      45.667   7.267  12.120  0.00  0.00    +0.000 A 
ATOM      4  C   UNL     1      44.965   6.380  11.303  0.00  0.00    +0.000 A 
ATOM      5  C   UNL     1      45.030   5.000  11.539  0.00  0.00    +0.000 A 
ATOM      6  C   UNL     1      45.769   4.533  12.635  0.00  0.00    +0.000 A 
ATOM      7  C   UNL     1      46.467   5.422  13.456  0.00  0.00    +0.000 A 
BRANCH   5   8
ATOM      8  C   UNL     1      44.408   4.032  10.568  0.00  0.00    +0.000 C 
BRANCH   8   9
ATOM      9  N   UNL     1      45.318   3.758   9.479  0.00  0.00    +0.000 N 
ATOM     10  C   UNL     1      45.309   2.554   8.823  0.00  0.00    +0.000 C 
ATOM     11  O   UNL     1      44.547   1.643   9.129  0.00  0.00    +0.000 OA
ATOM     12  H   UNL     1      45.921   4.502   9.162  0.00  0.00    +0.000 HD
BRANCH  10  13
ATOM     13  C   UNL     1      46.249   2.439   7.738  0.00  0.00    +0.000 A 
ATOM     14  C   UNL     1      46.581   3.250   6.670  0.00  0.00    +0.000 A 
ATOM     15  C   UNL     1      47.580   2.550   5.969  0.00  0.00    +0.000 A 
ATOM     16  N   UNL     1      47.873   1.381   6.539  0.00  0.00    +0.000 NA
ATOM     17  N   UNL     1      47.058   1.339   7.607  0.00  0.00    +0.000 N 
ATOM     18  H   UNL     1      47.094   0.531   8.223  0.00  0.00    +0.000 HD
ENDBRANCH  10  13
ENDBRANCH   8   9
ENDBRANCH   5   8
ENDBRANCH   1   2
BRANCH   1  19
ATOM     19  N   UNL     1      48.864   7.528  13.752  0.00  0.00    +0.000 N 
ATOM     20  C   UNL     1      49.737   7.621  14.857  0.00  0.00    +0.000 C 
ATOM     21  O   UNL     1      50.942   7.407  14.737  0.00  0.00    +0.000 OA
BRANCH  20  22
ATOM     22  C   UNL     1      49.201   7.936  16.192  0.00  0.00    +0.000 A 
ATOM     23  C   UNL     1      49.063   9.212  16.715  0.00  0.00    +0.000 A 
ATOM     24  S   UNL     1      48.327   9.248  18.256  0.00  0.00    +0.000 S 
ATOM     25  C   UNL     1      48.031   7.574  18.207  0.00  0.00    +0.000 A 
ATOM     26  N   UNL     1      47.314   6.960  19.184  0.00  0.00    +0.000 NA
ATOM     27  C   UNL     1      47.111   5.702  18.978  0.00  0.00    +0.000 A 
ATOM     28  N   UNL     1      47.597   4.996  17.906  0.00  0.00    +0.000 N 
ATOM     29  C   UNL     1      48.442   5.547  16.969  0.00  0.00    +0.000 A 
ATOM     30  O   UNL     1      49.051   4.843  16.173  0.00  0.00    +0.000 OA
ATOM     31  C   UNL     1      48.584   6.986  17.089  0.00  0.00    +0.000 A 
ATOM     32  H   UNL     1      47.462   3.998  17.842  0.00  0.00    +0.000 HD
ENDBRANCH  20  22
BRANCH  19  34
ATOM     33  C   UNL     1      49.297   8.112  11.383  0.00  0.00    +0.000 C 
ATOM     34  C   UNL     1      49.449   7.077  12.487  0.00  0.00    +0.000 C 
ENDBRANCH  19  34
ENDBRANCH   1  19
TORSDOF 7
ENDMDL
MODEL 3
REMARK VINA RESULT:    -7.630      3.384      8.049
REMARK INTER + INTRA:         -11.882
REMARK INTER:                 -10.605
REMARK INTRA:                  -1.276
REMARK UNBOUND:                -1.130
REMARK  Name = 
REMARK  8 active torsions:
REMARK  status: ('A' for Active; 'I' for Inactive)
REMARK    1  A    between atoms: C_1  and  C_2
REMARK    2  A    between atoms: C_2  and  N_3
REMARK    3  A    between atoms: N_3  and  C_4
REMARK    4  A    between atoms: C_4  and  C_5
REMARK    5  A    between atoms: C_8  and  C_9
REMARK    6  A    between atoms: C_9  and  N_10
REMARK    7  A    between atoms: C_11  and  C_13
REMARK    8  A    between atoms: C_20  and  C_22
REMARK                            x       y       z     vdW  Elec       q    Type
REMARK                         _______ _______ _______ _____ _____    ______ ____
ROOT
ATOM      1  C   UNL     1      48.595   6.307  14.278  0.00  0.00    +0.000 C 
ENDROOT
BRANCH   1   2
ATOM      2  C   UNL     1      47.393   6.050  13.406  0.00  0.00    +0.000 A 
ATOM      3  C   UNL     1      47.145   6.871  12.294  0.00  0.00    +0.000 A 
ATOM      4  C   UNL     1      46.199   6.504  11.336  0.00  0.00    +0.000 A 
ATOM      5  C   UNL     1      45.472   5.315  11.480  0.00  0.00    +0.000 A 
ATOM      6  C   UNL     1      45.676   4.530  12.623  0.00  0.00    +0.000 A 
ATOM      7  C   UNL     1      46.618   4.900  13.586  0.00  0.00    +0.000 A 
BRANCH   5   8
ATOM      8  C   UNL     1      44.571   4.835  10.374  0.00  0.00    +0.000 C 
BRANCH   8   9
ATOM      9  N   UNL     1      45.355   4.288   9.289  0.00  0.00    +0.000 N 
ATOM     10  C   UNL     1      45.261   2.967   8.933  0.00  0.00    +0.000 C 
ATOM     11  O   UNL     1      44.528   2.177   9.518  0.00  0.00    +0.000 OA
ATOM     12  H   UNL     1      45.927   4.918   8.748  0.00  0.00    +0.000 HD
BRANCH  10  13
ATOM     13  C   UNL     1      46.077   2.575   7.813  0.00  0.00    +0.000 A 
ATOM     14  C   UNL     1      46.433   3.190   6.627  0.00  0.00    +0.000 A 
ATOM     15  C   UNL     1      47.252   2.260   5.959  0.00  0.00    +0.000 A 
ATOM     16  N   UNL     1      47.415   1.136   6.657  0.00  0.00    +0.000 NA
ATOM     17  N   UNL     1      46.697   1.352   7.773  0.00  0.00    +0.000 N 
ATOM     18  H   UNL     1      46.664   0.628   8.486  0.00  0.00    +0.000 HD
ENDBRANCH  10  13
ENDBRANCH   8   9
ENDBRANCH   5   8
ENDBRANCH   1   2
BRANCH   1  19
ATOM     19  N   UNL     1      48.533   7.270  15.373  0.00  0.00    +0.000 N 
ATOM     20  C   UNL     1      48.482   6.877  16.728  0.00  0.00    +0.000 C 
ATOM     21  O   UNL     1      48.478   7.710  17.633  0.00  0.00    +0.000 OA
BRANCH  20  22
ATOM     22  C   UNL     1      48.475   5.447  17.078  0.00  0.00    +0.000 A 
ATOM     23  C   UNL     1      47.358   4.627  17.062  0.00  0.00    +0.000 A 
ATOM     24  S   UNL     1      47.697   2.995  17.435  0.00  0.00    +0.000 S 
ATOM     25  C   UNL     1      49.369   3.302  17.479  0.00  0.00    +0.000 A 
ATOM     26  N   UNL     1      50.263   2.291  17.639  0.00  0.00    +0.000 NA
ATOM     27  C   UNL     1      51.497   2.666  17.583  0.00  0.00    +0.000 A 
ATOM     28  N   UNL     1      51.915   3.964  17.426  0.00  0.00    +0.000 N 
ATOM     29  C   UNL     1      51.046   5.031  17.402  0.00  0.00    +0.000 A 
ATOM     30  O   UNL     1      51.452   6.181  17.509  0.00  0.00    +0.000 OA
ATOM     31  C   UNL     1      49.649   4.643  17.325  0.00  0.00    +0.000 A 
ATOM     32  H   UNL     1      52.896   4.197  17.464  0.00  0.00    +0.000 HD
ENDBRANCH  20  22
BRANCH  19  34
ATOM     33  C   UNL     1      49.698   8.987  14.018  0.00  0.00    +0.000 C 
ATOM     34  C   UNL     1      48.676   8.704  15.109  0.00  0.00    +0.000 C 
ENDBRANCH  19  34
ENDBRANCH   1  19
TORSDOF 7
ENDMDL
MODEL 4
REMARK VINA RESULT:    -7.102      3.320      7.938
REMARK INTER + INTRA:         -11.138
REMARK INTER:                  -9.704
REMARK INTRA:                  -1.434
REMARK UNBOUND:                -1.130
REMARK  Name = 
REMARK  8 active torsions:
REMARK  status: ('A' for Active; 'I' for Inactive)
REMARK    1  A    between atoms: C_1  and  C_2
REMARK    2  A    between atoms: C_2  and  N_3
REMARK    3  A    between atoms: N_3  and  C_4
REMARK    4  A    between atoms: C_4  and  C_5
REMARK    5  A    between atoms: C_8  and  C_9
REMARK    6  A    between atoms: C_9  and  N_10
REMARK    7  A    between atoms: C_11  and  C_13
REMARK    8  A    between atoms: C_20  and  C_22
REMARK                            x       y       z     vdW  Elec       q    Type
REMARK                         _______ _______ _______ _____ _____    ______ ____
ROOT
ATOM      1  C   UNL     1      49.245   8.053  15.760  0.00  0.00    +0.000 C 
ENDROOT
BRANCH   1   2
ATOM      2  C   UNL     1      48.338   7.769  14.590  0.00  0.00    +0.000 A 
ATOM      3  C   UNL     1      48.178   6.451  14.132  0.00  0.00    +0.000 A 
ATOM      4  C   UNL     1      47.162   6.131  13.230  0.00  0.00    +0.000 A 
ATOM      5  C   UNL     1      46.295   7.125  12.759  0.00  0.00    +0.000 A 
ATOM      6  C   UNL     1      46.497   8.451  13.169  0.00  0.00    +0.000 A 
ATOM      7  C   UNL     1      47.518   8.773  14.067  0.00  0.00    +0.000 A 
BRANCH   5   8
ATOM      8  C   UNL     1      45.102   6.760  11.917  0.00  0.00    +0.000 C 
BRANCH   8   9
ATOM      9  N   UNL     1      45.449   5.714  10.982  0.00  0.00    +0.000 N 
ATOM     10  C   UNL     1      44.510   4.833  10.512  0.00  0.00    +0.000 C 
ATOM     11  O   UNL     1      43.336   4.869  10.866  0.00  0.00    +0.000 OA
ATOM     12  H   UNL     1      46.392   5.686  10.624  0.00  0.00    +0.000 HD
BRANCH  10  13
ATOM     13  C   UNL     1      44.996   3.867   9.561  0.00  0.00    +0.000 A 
ATOM     14  C   UNL     1      45.531   3.962   8.290  0.00  0.00    +0.000 A 
ATOM     15  C   UNL     1      45.799   2.636   7.900  0.00  0.00    +0.000 A 
ATOM     16  N   UNL     1      45.467   1.755   8.844  0.00  0.00    +0.000 NA
ATOM     17  N   UNL     1      44.987   2.523   9.837  0.00  0.00    +0.000 N 
ATOM     18  H   UNL     1      44.664   2.079  10.692  0.00  0.00    +0.000 HD
ENDBRANCH  10  13
ENDBRANCH   8   9
ENDBRANCH   5   8
ENDBRANCH   1   2
BRANCH   1  19
ATOM     19  N   UNL     1      48.716   8.126  17.118  0.00  0.00    +0.000 N 
ATOM     20  C   UNL     1      49.110   7.232  18.136  0.00  0.00    +0.000 C 
ATOM     21  O   UNL     1      48.685   7.346  19.284  0.00  0.00    +0.000 OA
BRANCH  20  22
ATOM     22  C   UNL     1      50.082   6.165  17.841  0.00  0.00    +0.000 A 
ATOM     23  C   UNL     1      51.451   6.256  18.035  0.00  0.00    +0.000 A 
ATOM     24  S   UNL     1      52.295   4.815  17.677  0.00  0.00    +0.000 S 
ATOM     25  C   UNL     1      50.841   3.977  17.399  0.00  0.00    +0.000 A 
ATOM     26  N   UNL     1      50.839   2.640  17.156  0.00  0.00    +0.000 NA
ATOM     27  C   UNL     1      49.659   2.129  17.033  0.00  0.00    +0.000 A 
ATOM     28  N   UNL     1      48.488   2.842  17.086  0.00  0.00    +0.000 N 
ATOM     29  C   UNL     1      48.452   4.214  17.189  0.00  0.00    +0.000 A 
ATOM     30  O   UNL     1      47.417   4.837  16.988  0.00  0.00    +0.000 OA
ATOM     31  C   UNL     1      49.746   4.811  17.466  0.00  0.00    +0.000 A 
ATOM     32  H   UNL     1      47.602   2.391  16.909  0.00  0.00    +0.000 HD
ENDBRANCH  20  22
BRANCH  19  34
ATOM     33  C   UNL     1      48.490  10.592  17.218  0.00  0.00    +0.000 C 
ATOM     34  C   UNL     1      47.856   9.242  17.519  0.00  0.00    +0.000 C 
ENDBRANCH  19  34
ENDBRANCH   1  19
TORSDOF 7
ENDMDL
MODEL 5
REMARK VINA RESULT:    -6.886      2.852      8.205
REMARK INTER + INTRA:         -10.833
REMARK INTER:                  -9.514
REMARK INTRA:                  -1.319
REMARK UNBOUND:                -1.130
REMARK  Name = 
REMARK  8 active torsions:
REMARK  status: ('A' for Active; 'I' for Inactive)
REMARK    1  A    between atoms: C_1  and  C_2
REMARK    2  A    between atoms: C_2  and  N_3
REMARK    3  A    between atoms: N_3  and  C_4
REMARK    4  A    between atoms: C_4  and  C_5
REMARK    5  A    between atoms: C_8  and  C_9
REMARK    6  A    between atoms: C_9  and  N_10
REMARK    7  A    between atoms: C_11  and  C_13
REMARK    8  A    between atoms: C_20  and  C_22
REMARK                            x       y       z     vdW  Elec       q    Type
REMARK                         _______ _______ _______ _____ _____    ______ ____
ROOT
ATOM      1  C   UNL     1      49.323   7.122  16.274  0.00  0.00    +0.000 C 
ENDROOT
BRANCH   1   2
ATOM      2  C   UNL     1      48.533   7.234  14.995  0.00  0.00    +0.000 A 
ATOM      3  C   UNL     1      48.156   6.073  14.301  0.00  0.00    +0.000 A 
ATOM      4  C   UNL     1      47.219   6.135  13.269  0.00  0.00    +0.000 A 
ATOM      5  C   UNL     1      46.651   7.362  12.902  0.00  0.00    +0.000 A 
ATOM      6  C   UNL     1      47.077   8.529  13.554  0.00  0.00    +0.000 A 
ATOM      7  C   UNL     1      48.020   8.467  14.583  0.00  0.00    +0.000 A 
BRANCH   5   8
ATOM      8  C   UNL     1      45.525   7.413  11.904  0.00  0.00    +0.000 C 
BRANCH   8   9
ATOM      9  N   UNL     1      45.512   6.212  11.101  0.00  0.00    +0.000 N 
ATOM     10  C   UNL     1      44.358   5.502  10.893  0.00  0.00    +0.000 C 
ATOM     11  O   UNL     1      43.284   5.831  11.385  0.00  0.00    +0.000 OA
ATOM     12  H   UNL     1      46.364   5.940  10.633  0.00  0.00    +0.000 HD
BRANCH  10  13
ATOM     13  C   UNL     1      44.492   4.346  10.044  0.00  0.00    +0.000 A 
ATOM     14  C   UNL     1      44.621   2.992  10.286  0.00  0.00    +0.000 A 
ATOM     15  C   UNL     1      44.717   2.396   9.015  0.00  0.00    +0.000 A 
ATOM     16  N   UNL     1      44.652   3.292   8.029  0.00  0.00    +0.000 NA
ATOM     17  N   UNL     1      44.514   4.462   8.677  0.00  0.00    +0.000 N 
ATOM     18  H   UNL     1      44.435   5.318   8.136  0.00  0.00    +0.000 HD
ENDBRANCH  10  13
ENDBRANCH   8   9
ENDBRANCH   5   8
ENDBRANCH   1   2
BRANCH   1  19
ATOM     19  N   UNL     1      48.673   7.274  17.571  0.00  0.00    +0.000 N 
ATOM     20  C   UNL     1      48.194   6.174  18.314  0.00  0.00    +0.000 C 
ATOM     21  O   UNL     1      47.693   6.326  19.427  0.00  0.00    +0.000 OA
BRANCH  20  22
ATOM     22  C   UNL     1      48.329   4.810  17.776  0.00  0.00    +0.000 A 
ATOM     23  C   UNL     1      47.399   4.174  16.969  0.00  0.00    +0.000 A 
ATOM     24  S   UNL     1      47.890   2.627  16.438  0.00  0.00    +0.000 S 
ATOM     25  C   UNL     1      49.426   2.820  17.144  0.00  0.00    +0.000 A 
ATOM     26  N   UNL     1      50.401   1.891  16.963  0.00  0.00    +0.000 NA
ATOM     27  C   UNL     1      51.533   2.205  17.500  0.00  0.00    +0.000 A 
ATOM     28  N   UNL     1      51.763   3.341  18.235  0.00  0.00    +0.000 N 
ATOM     29  C   UNL     1      50.768   4.236  18.558  0.00  0.00    +0.000 A 
ATOM     30  O   UNL     1      50.944   5.099  19.410  0.00  0.00    +0.000 OA
ATOM     31  C   UNL     1      49.517   3.992  17.864  0.00  0.00    +0.000 A 
ATOM     32  H   UNL     1      52.652   3.491  18.688  0.00  0.00    +0.000 HD
ENDBRANCH  20  22
BRANCH  19  34
ATOM     33  C   UNL     1      49.985   8.990  18.786  0.00  0.00    +0.000 C 
ATOM     34  C   UNL     1      48.629   8.582  18.230  0.00  0.00    +0.000 C 
ENDBRANCH  19  34
ENDBRANCH   1  19
TORSDOF 7
ENDMDL
MODEL 6
REMARK VINA RESULT:    -6.764      3.729      8.215
REMARK INTER + INTRA:         -10.662
REMARK INTER:                  -9.261
REMARK INTRA:                  -1.401
REMARK UNBOUND:                -1.130
REMARK  Name = 
REMARK  8 active torsions:
REMARK  status: ('A' for Active; 'I' for Inactive)
REMARK    1  A    between atoms: C_1  and  C_2
REMARK    2  A    between atoms: C_2  and  N_3
REMARK    3  A    between atoms: N_3  and  C_4
REMARK    4  A    between atoms: C_4  and  C_5
REMARK    5  A    between atoms: C_8  and  C_9
REMARK    6  A    between atoms: C_9  and  N_10
REMARK    7  A    between atoms: C_11  and  C_13
REMARK    8  A    between atoms: C_20  and  C_22
REMARK                            x       y       z     vdW  Elec       q    Type
REMARK                         _______ _______ _______ _____ _____    ______ ____
ROOT
ATOM      1  C   UNL     1      48.259   8.183  14.774  0.00  0.00    +0.000 C 
ENDROOT
BRANCH   1   2
ATOM      2  C   UNL     1      47.458   7.672  13.604  0.00  0.00    +0.000 A 
ATOM      3  C   UNL     1      47.660   6.364  13.134  0.00  0.00    +0.000 A 
ATOM      4  C   UNL     1      46.766   5.787  12.232  0.00  0.00    +0.000 A 
ATOM      5  C   UNL     1      45.659   6.512  11.772  0.00  0.00    +0.000 A 
ATOM      6  C   UNL     1      45.494   7.839  12.193  0.00  0.00    +0.000 A 
ATOM      7  C   UNL     1      46.393   8.419  13.092  0.00  0.00    +0.000 A 
BRANCH   5   8
ATOM      8  C   UNL     1      44.606   5.842  10.929  0.00  0.00    +0.000 C 
BRANCH   8   9
ATOM      9  N   UNL     1      45.224   5.029   9.907  0.00  0.00    +0.000 N 
ATOM     10  C   UNL     1      44.827   3.735   9.683  0.00  0.00    +0.000 C 
ATOM     11  O   UNL     1      43.946   3.193  10.342  0.00  0.00    +0.000 OA
ATOM     12  H   UNL     1      45.914   5.456   9.308  0.00  0.00    +0.000 HD
BRANCH  10  13
ATOM     13  C   UNL     1      45.510   3.060   8.610  0.00  0.00    +0.000 A 
ATOM     14  C   UNL     1      45.983   1.773   8.438  0.00  0.00    +0.000 A 
ATOM     15  C   UNL     1      46.563   1.759   7.156  0.00  0.00    +0.000 A 
ATOM     16  N   UNL     1      46.471   2.942   6.547  0.00  0.00    +0.000 NA
ATOM     17  N   UNL     1      45.829   3.709   7.445  0.00  0.00    +0.000 N 
ATOM     18  H   UNL     1      45.628   4.678   7.212  0.00  0.00    +0.000 HD
ENDBRANCH  10  13
ENDBRANCH   8   9
ENDBRANCH   5   8
ENDBRANCH   1   2
BRANCH   1  19
ATOM     19  N   UNL     1      49.644   7.767  14.971  0.00  0.00    +0.000 N 
ATOM     20  C   UNL     1      50.019   6.810  15.939  0.00  0.00    +0.000 C 
ATOM     21  O   UNL     1      51.187   6.442  16.052  0.00  0.00    +0.000 OA
BRANCH  20  22
ATOM     22  C   UNL     1      48.996   6.203  16.806  0.00  0.00    +0.000 A 
ATOM     23  C   UNL     1      48.397   4.971  16.593  0.00  0.00    +0.000 A 
ATOM     24  S   UNL     1      47.312   4.509  17.828  0.00  0.00    +0.000 S 
ATOM     25  C   UNL     1      47.722   5.869  18.763  0.00  0.00    +0.000 A 
ATOM     26  N   UNL     1      47.230   6.030  20.019  0.00  0.00    +0.000 NA
ATOM     27  C   UNL     1      47.683   7.073  20.633  0.00  0.00    +0.000 A 
ATOM     28  N   UNL     1      48.547   7.988  20.088  0.00  0.00    +0.000 N 
ATOM     29  C   UNL     1      48.958   7.938  18.775  0.00  0.00    +0.000 A 
ATOM     30  O   UNL     1      49.524   8.890  18.251  0.00  0.00    +0.000 OA
ATOM     31  C   UNL     1      48.583   6.713  18.093  0.00  0.00    +0.000 A 
ATOM     32  H   UNL     1      48.805   8.820  20.597  0.00  0.00    +0.000 HD
ENDBRANCH  20  22
BRANCH  19  34
ATOM     33  C   UNL     1      50.442   9.638  13.556  0.00  0.00    +0.000 C 
ATOM     34  C   UNL     1      50.693   8.223  14.056  0.00  0.00    +0.000 C 
ENDBRANCH  19  34
ENDBRANCH   1  19
TORSDOF 7
ENDMDL
MODEL 7
REMARK VINA RESULT:    -6.746      3.564      7.639
REMARK INTER + INTRA:         -10.637
REMARK INTER:                  -8.895
REMARK INTRA:                  -1.742
REMARK UNBOUND:                -1.130
REMARK  Name = 
REMARK  8 active torsions:
REMARK  status: ('A' for Active; 'I' for Inactive)
REMARK    1  A    between atoms: C_1  and  C_2
REMARK    2  A    between atoms: C_2  and  N_3
REMARK    3  A    between atoms: N_3  and  C_4
REMARK    4  A    between atoms: C_4  and  C_5
REMARK    5  A    between atoms: C_8  and  C_9
REMARK    6  A    between atoms: C_9  and  N_10
REMARK    7  A    between atoms: C_11  and  C_13
REMARK    8  A    between atoms: C_20  and  C_22
REMARK                            x       y       z     vdW  Elec       q    Type
REMARK                         _______ _______ _______ _____ _____    ______ ____
ROOT
ATOM      1  C   UNL     1      49.407   8.439  17.949  0.00  0.00    +0.000 C 
ENDROOT
BRANCH   1   2
ATOM      2  C   UNL     1      49.243   8.299  16.457  0.00  0.00    +0.000 A 
ATOM      3  C   UNL     1      50.059   7.409  15.742  0.00  0.00    +0.000 A 
ATOM      4  C   UNL     1      49.761   7.075  14.421  0.00  0.00    +0.000 A 
ATOM      5  C   UNL     1      48.647   7.637  13.784  0.00  0.00    +0.000 A 
ATOM      6  C   UNL     1      47.870   8.576  14.479  0.00  0.00    +0.000 A 
ATOM      7  C   UNL     1      48.173   8.914  15.800  0.00  0.00    +0.000 A 
BRANCH   5   8
ATOM      8  C   UNL     1      48.228   7.160  12.419  0.00  0.00    +0.000 C 
BRANCH   8   9
ATOM      9  N   UNL     1      46.880   6.641  12.461  0.00  0.00    +0.000 N 
ATOM     10  C   UNL     1      46.596   5.429  13.036  0.00  0.00    +0.000 C 
ATOM     11  O   UNL     1      47.463   4.714  13.529  0.00  0.00    +0.000 OA
ATOM     12  H   UNL     1      46.132   7.224  12.117  0.00  0.00    +0.000 HD
BRANCH  10  13
ATOM     13  C   UNL     1      45.205   5.059  13.033  0.00  0.00    +0.000 A 
ATOM     14  C   UNL     1      44.028   5.764  12.867  0.00  0.00    +0.000 A 
ATOM     15  C   UNL     1      43.003   4.807  12.982  0.00  0.00    +0.000 A 
ATOM     16  N   UNL     1      43.478   3.581  13.201  0.00  0.00    +0.000 NA
ATOM     17  N   UNL     1      44.810   3.759  13.225  0.00  0.00    +0.000 N 
ATOM     18  H   UNL     1      45.412   2.955  13.375  0.00  0.00    +0.000 HD
ENDBRANCH  10  13
ENDBRANCH   8   9
ENDBRANCH   5   8
ENDBRANCH   1   2
BRANCH   1  19
ATOM     19  N   UNL     1      48.416   7.886  18.866  0.00  0.00    +0.000 N 
ATOM     20  C   UNL     1      48.443   6.541  19.294  0.00  0.00    +0.000 C 
ATOM     21  O   UNL     1      47.624   6.113  20.105  0.00  0.00    +0.000 OA
BRANCH  20  22
ATOM     22  C   UNL     1      49.494   5.635  18.800  0.00  0.00    +0.000 A 
ATOM     23  C   UNL     1      50.811   5.629  19.233  0.00  0.00    +0.000 A 
ATOM     24  S   UNL     1      51.761   4.397  18.528  0.00  0.00    +0.000 S 
ATOM     25  C   UNL     1      50.407   3.737  17.739  0.00  0.00    +0.000 A 
ATOM     26  N   UNL     1      50.500   2.575  17.041  0.00  0.00    +0.000 NA
ATOM     27  C   UNL     1      49.377   2.161  16.555  0.00  0.00    +0.000 A 
ATOM     28  N   UNL     1      48.182   2.826  16.668  0.00  0.00    +0.000 N 
ATOM     29  C   UNL     1      48.072   4.071  17.244  0.00  0.00    +0.000 A 
ATOM     30  O   UNL     1      47.055   4.742  17.114  0.00  0.00    +0.000 OA
ATOM     31  C   UNL     1      49.279   4.509  17.920  0.00  0.00    +0.000 A 
ATOM     32  H   UNL     1      47.355   2.483  16.203  0.00  0.00    +0.000 HD
ENDBRANCH  20  22
BRANCH  19  34
ATOM     33  C   UNL     1      47.697  10.230  19.223  0.00  0.00    +0.000 C 
ATOM     34  C   UNL     1      47.428   8.759  19.505  0.00  0.00    +0.000 C 
ENDBRANCH  19  34
ENDBRANCH   1  19
TORSDOF 7
ENDMDL
MODEL 8
REMARK VINA RESULT:    -6.564      2.669      3.762
REMARK INTER + INTRA:         -10.380
REMARK INTER:                  -8.721
REMARK INTRA:                  -1.658
REMARK UNBOUND:                -1.130
REMARK  Name = 
REMARK  8 active torsions:
REMARK  status: ('A' for Active; 'I' for Inactive)
REMARK    1  A    between atoms: C_1  and  C_2
REMARK    2  A    between atoms: C_2  and  N_3
REMARK    3  A    between atoms: N_3  and  C_4
REMARK    4  A    between atoms: C_4  and  C_5
REMARK    5  A    between atoms: C_8  and  C_9
REMARK    6  A    between atoms: C_9  and  N_10
REMARK    7  A    between atoms: C_11  and  C_13
REMARK    8  A    between atoms: C_20  and  C_22
REMARK                            x       y       z     vdW  Elec       q    Type
REMARK                         _______ _______ _______ _____ _____    ______ ____
ROOT
ATOM      1  C   UNL     1      49.652   8.465  14.871  0.00  0.00    +0.000 C 
ENDROOT
BRANCH   1   2
ATOM      2  C   UNL     1      49.448   7.341  15.855  0.00  0.00    +0.000 A 
ATOM      3  C   UNL     1      48.150   6.900  16.156  0.00  0.00    +0.000 A 
ATOM      4  C   UNL     1      47.947   5.710  16.855  0.00  0.00    +0.000 A 
ATOM      5  C   UNL     1      49.041   4.945  17.280  0.00  0.00    +0.000 A 
ATOM      6  C   UNL     1      50.338   5.420  17.035  0.00  0.00    +0.000 A 
ATOM      7  C   UNL     1      50.540   6.615  16.340  0.00  0.00    +0.000 A 
BRANCH   5   8
ATOM      8  C   UNL     1      48.829   3.585  17.891  0.00  0.00    +0.000 C 
BRANCH   8   9
ATOM      9  N   UNL     1      50.100   2.950  18.154  0.00  0.00    +0.000 N 
ATOM     10  C   UNL     1      50.632   2.026  17.292  0.00  0.00    +0.000 C 
ATOM     11  O   UNL     1      50.058   1.676  16.265  0.00  0.00    +0.000 OA
ATOM     12  H   UNL     1      50.628   3.252  18.959  0.00  0.00    +0.000 HD
BRANCH  10  13
ATOM     13  C   UNL     1      51.919   1.503  17.669  0.00  0.00    +0.000 A 
ATOM     14  C   UNL     1      53.197   2.030  17.688  0.00  0.00    +0.000 A 
ATOM     15  C   UNL     1      54.019   0.990  18.161  0.00  0.00    +0.000 A 
ATOM     16  N   UNL     1      53.329  -0.118  18.429  0.00  0.00    +0.000 NA
ATOM     17  N   UNL     1      52.064   0.218  18.126  0.00  0.00    +0.000 N 
ATOM     18  H   UNL     1      51.327  -0.471  18.252  0.00  0.00    +0.000 HD
ENDBRANCH  10  13
ENDBRANCH   8   9
ENDBRANCH   5   8
ENDBRANCH   1   2
BRANCH   1  19
ATOM     19  N   UNL     1      50.179   8.204  13.536  0.00  0.00    +0.000 N 
ATOM     20  C   UNL     1      49.349   8.104  12.398  0.00  0.00    +0.000 C 
ATOM     21  O   UNL     1      49.824   7.931  11.277  0.00  0.00    +0.000 OA
BRANCH  20  22
ATOM     22  C   UNL     1      47.891   8.249  12.538  0.00  0.00    +0.000 A 
ATOM     23  C   UNL     1      47.185   9.429  12.358  0.00  0.00    +0.000 A 
ATOM     24  S   UNL     1      45.493   9.248  12.506  0.00  0.00    +0.000 S 
ATOM     25  C   UNL     1      45.638   7.561  12.663  0.00  0.00    +0.000 A 
ATOM     26  N   UNL     1      44.538   6.765  12.712  0.00  0.00    +0.000 NA
ATOM     27  C   UNL     1      44.804   5.502  12.762  0.00  0.00    +0.000 A 
ATOM     28  N   UNL     1      46.068   4.969  12.812  0.00  0.00    +0.000 N 
ATOM     29  C   UNL     1      47.202   5.743  12.906  0.00  0.00    +0.000 A 
ATOM     30  O   UNL     1      48.285   5.249  13.193  0.00  0.00    +0.000 OA
ATOM     31  C   UNL     1      46.957   7.161  12.716  0.00  0.00    +0.000 A 
ATOM     32  H   UNL     1      46.204   3.975  12.923  0.00  0.00    +0.000 HD
ENDBRANCH  20  22
BRANCH  19  34
ATOM     33  C   UNL     1      52.269   9.534  13.593  0.00  0.00    +0.000 C 
ATOM     34  C   UNL     1      51.624   8.187  13.299  0.00  0.00    +0.000 C 
ENDBRANCH  19  34
ENDBRANCH   1  19
TORSDOF 7
ENDMDL
MODEL 9
REMARK VINA RESULT:    -6.543      3.599      8.375
REMARK INTER + INTRA:         -10.350
REMARK INTER:                  -8.583
REMARK INTRA:                  -1.767
REMARK UNBOUND:                -1.130
REMARK  Name = 
REMARK  8 active torsions:
REMARK  status: ('A' for Active; 'I' for Inactive)
REMARK    1  A    between atoms: C_1  and  C_2
REMARK    2  A    between atoms: C_2  and  N_3
REMARK    3  A    between atoms: N_3  and  C_4
REMARK    4  A    between atoms: C_4  and  C_5
REMARK    5  A    between atoms: C_8  and  C_9
REMARK    6  A    between atoms: C_9  and  N_10
REMARK    7  A    between atoms: C_11  and  C_13
REMARK    8  A    between atoms: C_20  and  C_22
REMARK                            x       y       z     vdW  Elec       q    Type
REMARK                         _______ _______ _______ _____ _____    ______ ____
ROOT
ATOM      1  C   UNL     1      50.197   7.603  18.448  0.00  0.00    +0.000 C 
ENDROOT
BRANCH   1   2
ATOM      2  C   UNL     1      49.285   7.779  17.260  0.00  0.00    +0.000 A 
ATOM      3  C   UNL     1      48.475   8.921  17.161  0.00  0.00    +0.000 A 
ATOM      4  C   UNL     1      47.823   9.229  15.966  0.00  0.00    +0.000 A 
ATOM      5  C   UNL     1      47.958   8.391  14.851  0.00  0.00    +0.000 A 
ATOM      6  C   UNL     1      48.716   7.218  14.972  0.00  0.00    +0.000 A 
ATOM      7  C   UNL     1      49.363   6.906  16.170  0.00  0.00    +0.000 A 
BRANCH   5   8
ATOM      8  C   UNL     1      47.392   8.801  13.518  0.00  0.00    +0.000 C 
BRANCH   8   9
ATOM      9  N   UNL     1      46.142   8.118  13.272  0.00  0.00    +0.000 N 
ATOM     10  C   UNL     1      46.079   7.008  12.469  0.00  0.00    +0.000 C 
ATOM     11  O   UNL     1      47.065   6.545  11.905  0.00  0.00    +0.000 OA
ATOM     12  H   UNL     1      45.320   8.435  13.762  0.00  0.00    +0.000 HD
BRANCH  10  13
ATOM     13  C   UNL     1      44.772   6.415  12.344  0.00  0.00    +0.000 A 
ATOM     14  C   UNL     1      44.134   5.366  12.978  0.00  0.00    +0.000 A 
ATOM     15  C   UNL     1      42.861   5.293  12.383  0.00  0.00    +0.000 A 
ATOM     16  N   UNL     1      42.688   6.222  11.442  0.00  0.00    +0.000 NA
ATOM     17  N   UNL     1      43.856   6.888  11.439  0.00  0.00    +0.000 N 
ATOM     18  H   UNL     1      43.978   7.666  10.797  0.00  0.00    +0.000 HD
ENDBRANCH  10  13
ENDBRANCH   8   9
ENDBRANCH   5   8
ENDBRANCH   1   2
BRANCH   1  19
ATOM     19  N   UNL     1      49.689   7.069  19.708  0.00  0.00    +0.000 N 
ATOM     20  C   UNL     1      49.745   5.696  20.028  0.00  0.00    +0.000 C 
ATOM     21  O   UNL     1      49.354   5.279  21.117  0.00  0.00    +0.000 OA
BRANCH  20  22
ATOM     22  C   UNL     1      50.320   4.740  19.067  0.00  0.00    +0.000 A 
ATOM     23  C   UNL     1      51.649   4.349  19.027  0.00  0.00    +0.000 A 
ATOM     24  S   UNL     1      51.982   3.159  17.848  0.00  0.00    +0.000 S 
ATOM     25  C   UNL     1      50.333   3.016  17.457  0.00  0.00    +0.000 A 
ATOM     26  N   UNL     1      49.899   2.071  16.583  0.00  0.00    +0.000 NA
ATOM     27  C   UNL     1      48.616   2.037  16.437  0.00  0.00    +0.000 A 
ATOM     28  N   UNL     1      47.735   2.890  17.053  0.00  0.00    +0.000 N 
ATOM     29  C   UNL     1      48.142   3.948  17.834  0.00  0.00    +0.000 A 
ATOM     30  O   UNL     1      47.358   4.828  18.166  0.00  0.00    +0.000 OA
ATOM     31  C   UNL     1      49.562   3.939  18.132  0.00  0.00    +0.000 A 
ATOM     32  H   UNL     1      46.750   2.855  16.839  0.00  0.00    +0.000 HD
ENDBRANCH  20  22
BRANCH  19  34
ATOM     33  C   UNL     1      47.738   8.244  20.684  0.00  0.00    +0.000 C 
ATOM     34  C   UNL     1      49.233   7.974  20.766  0.00  0.00    +0.000 C 
ENDBRANCH  19  34
ENDBRANCH   1  19
TORSDOF 7
ENDMDL
