MODEL 1
REMARK VINA RESULT:    -8.349      0.000      0.000
REMARK INTER + INTRA:         -12.296
REMARK INTER:                 -11.277
REMARK INTRA:                  -1.019
REMARK UNBOUND:                -1.019
REMARK  Name = 
REMARK  6 active torsions:
REMARK  status: ('A' for Active; 'I' for Inactive)
REMARK    1  A    between atoms: C_2  and  C_25
REMARK    2  A    between atoms: N_3  and  C_4
REMARK    3  A    between atoms: C_4  and  C_5
REMARK    4  A    between atoms: C_8  and  C_9
REMARK    5  A    between atoms: C_9  and  N_10
REMARK    6  A    between atoms: C_11  and  C_13
REMARK                            x       y       z     vdW  Elec       q    Type
REMARK                         _______ _______ _______ _____ _____    ______ ____
ROOT
ATOM      1  C   UNL     1      44.965   6.203  11.268  0.00  0.00    +0.000 A 
ATOM      2  C   UNL     1      46.175   5.698  11.763  0.00  0.00    +0.000 A 
ATOM      3  C   UNL     1      46.984   6.474  12.602  0.00  0.00    +0.000 A 
ATOM      4  C   UNL     1      46.588   7.764  12.979  0.00  0.00    +0.000 A 
ATOM      5  C   UNL     1      45.381   8.270  12.482  0.00  0.00    +0.000 A 
ATOM      6  C   UNL     1      44.572   7.494  11.644  0.00  0.00    +0.000 A 
ENDROOT
BRANCH   1   7
ATOM      7  C   UNL     1      44.119   5.386  10.329  0.00  0.00    +0.000 C 
BRANCH   7  10
ATOM      8  O   UNL     1      44.285   2.606  10.134  0.00  0.00    +0.000 OA
ATOM      9  C   UNL     1      44.902   3.294   9.328  0.00  0.00    +0.000 C 
ATOM     10  N   UNL     1      44.890   4.672   9.343  0.00  0.00    +0.000 N 
ATOM     11  H   UNL     1      45.442   5.160   8.644  0.00  0.00    +0.000 HD
BRANCH   9  12
ATOM     12  C   UNL     1      45.721   2.661   8.242  0.00  0.00    +0.000 A 
ATOM     13  C   UNL     1      46.024   3.393   7.098  0.00  0.00    +0.000 A 
ATOM     14  C   UNL     1      46.794   2.788   6.111  0.00  0.00    +0.000 A 
ATOM     15  C   UNL     1      47.232   1.481   6.299  0.00  0.00    +0.000 A 
ATOM     16  C   UNL     1      46.882   0.827   7.472  0.00  0.00    +0.000 A 
ATOM     17  N   UNL     1      46.134   1.381   8.454  0.00  0.00    +0.000 NA
ENDBRANCH   9  12
ENDBRANCH   7  10
ENDBRANCH   1   7
BRANCH   4  18
ATOM     18  C   UNL     1      47.451   8.606  13.882  0.00  0.00    +0.000 C 
BRANCH  18  19
ATOM     19  N   UNL     1      47.860   7.883  15.060  0.00  0.00    +0.000 N 
ATOM     20  C   UNL     1      49.130   7.370  15.163  0.00  0.00    +0.000 C 
ATOM     21  O   UNL     1      49.973   7.546  14.287  0.00  0.00    +0.000 OA
ATOM     22  H   UNL     1      47.128   7.538  15.674  0.00  0.00    +0.000 HD
BRANCH  20  23
ATOM     23  C   UNL     1      49.458   6.652  16.401  0.00  0.00    +0.000 A 
ATOM     24  C   UNL     1      50.442   7.153  17.243  0.00  0.00    +0.000 A 
ATOM     25  S   UNL     1      50.662   6.235  18.663  0.00  0.00    +0.000 S 
ATOM     26  C   UNL     1      49.486   5.106  18.179  0.00  0.00    +0.000 A 
ATOM     27  N   UNL     1      49.193   4.026  18.954  0.00  0.00    +0.000 NA
ATOM     28  C   UNL     1      48.307   3.234  18.451  0.00  0.00    +0.000 A 
ATOM     29  N   UNL     1      47.682   3.425  17.245  0.00  0.00    +0.000 N 
ATOM     30  C   UNL     1      47.927   4.514  16.442  0.00  0.00    +0.000 A 
ATOM     31  O   UNL     1      47.326   4.674  15.384  0.00  0.00    +0.000 OA
ATOM     32  C   UNL     1      48.923   5.432  16.957  0.00  0.00    +0.000 A 
ATOM     33  H   UNL     1      46.993   2.769  16.911  0.00  0.00    +0.000 HD
ENDBRANCH  20  23
ENDBRANCH  18  19
ENDBRANCH   4  18
TORSDOF 6
ENDMDL
MODEL 2
REMARK VINA RESULT:    -7.784      1.809      2.134
REMARK INTER + INTRA:         -11.533
REMARK INTER:                 -10.709
REMARK INTRA:                  -0.824
REMARK UNBOUND:                -1.019
REMARK  Name = 
REMARK  6 active torsions:
REMARK  status: ('A' for Active; 'I' for Inactive)
REMARK    1  A    between atoms: C_2  and  C_25
REMARK    2  A    between atoms: N_3  and  C_4
REMARK    3  A    between atoms: C_4  and  C_5
REMARK    4  A    between atoms: C_8  and  C_9
REMARK    5  A    between atoms: C_9  and  N_10
REMARK    6  A    between atoms: C_11  and  C_13
REMARK                            x       y       z     vdW  Elec       q    Type
REMARK                         _______ _______ _______ _____ _____    ______ ____
ROOT
ATOM      1  C   UNL     1      45.220   6.150  11.505  0.00  0.00    +0.000 A 
ATOM      2  C   UNL     1      46.234   5.495  12.216  0.00  0.00    +0.000 A 
ATOM      3  C   UNL     1      47.093   6.211  13.059  0.00  0.00    +0.000 A 
ATOM      4  C   UNL     1      46.942   7.594  13.223  0.00  0.00    +0.000 A 
ATOM      5  C   UNL     1      45.931   8.249  12.509  0.00  0.00    +0.000 A 
ATOM      6  C   UNL     1      45.072   7.534  11.668  0.00  0.00    +0.000 A 
ENDROOT
BRANCH   1   7
ATOM      7  C   UNL     1      44.327   5.389  10.564  0.00  0.00    +0.000 C 
BRANCH   7  10
ATOM      8  O   UNL     1      44.298   2.626  10.157  0.00  0.00    +0.000 OA
ATOM      9  C   UNL     1      44.965   3.329   9.406  0.00  0.00    +0.000 C 
ATOM     10  N   UNL     1      45.050   4.699   9.526  0.00  0.00    +0.000 N 
ATOM     11  H   UNL     1      45.638   5.199   8.865  0.00  0.00    +0.000 HD
BRANCH   9  12
ATOM     12  C   UNL     1      45.743   2.724   8.274  0.00  0.00    +0.000 A 
ATOM     13  C   UNL     1      46.017   3.490   7.145  0.00  0.00    +0.000 A 
ATOM     14  C   UNL     1      46.749   2.910   6.114  0.00  0.00    +0.000 A 
ATOM     15  C   UNL     1      47.179   1.594   6.246  0.00  0.00    +0.000 A 
ATOM     16  C   UNL     1      46.860   0.905   7.408  0.00  0.00    +0.000 A 
ATOM     17  N   UNL     1      46.150   1.434   8.431  0.00  0.00    +0.000 NA
ENDBRANCH   9  12
ENDBRANCH   7  10
ENDBRANCH   1   7
BRANCH   4  18
ATOM     18  C   UNL     1      47.860   8.372  14.128  0.00  0.00    +0.000 C 
BRANCH  18  19
ATOM     19  N   UNL     1      47.938   7.788  15.444  0.00  0.00    +0.000 N 
ATOM     20  C   UNL     1      49.029   7.043  15.817  0.00  0.00    +0.000 C 
ATOM     21  O   UNL     1      49.993   6.886  15.072  0.00  0.00    +0.000 OA
ATOM     22  H   UNL     1      47.075   7.715  15.973  0.00  0.00    +0.000 HD
BRANCH  20  23
ATOM     23  C   UNL     1      49.021   6.491  17.179  0.00  0.00    +0.000 A 
ATOM     24  C   UNL     1      49.521   5.215  17.402  0.00  0.00    +0.000 A 
ATOM     25  S   UNL     1      49.492   4.745  19.042  0.00  0.00    +0.000 S 
ATOM     26  C   UNL     1      48.762   6.210  19.503  0.00  0.00    +0.000 A 
ATOM     27  N   UNL     1      48.439   6.450  20.803  0.00  0.00    +0.000 NA
ATOM     28  C   UNL     1      47.861   7.586  21.008  0.00  0.00    +0.000 A 
ATOM     29  N   UNL     1      47.580   8.506  20.031  0.00  0.00    +0.000 N 
ATOM     30  C   UNL     1      47.912   8.318  18.709  0.00  0.00    +0.000 A 
ATOM     31  O   UNL     1      47.677   9.176  17.865  0.00  0.00    +0.000 OA
ATOM     32  C   UNL     1      48.556   7.052  18.424  0.00  0.00    +0.000 A 
ATOM     33  H   UNL     1      47.130   9.380  20.259  0.00  0.00    +0.000 HD
ENDBRANCH  20  23
ENDBRANCH  18  19
ENDBRANCH   4  18
TORSDOF 6
ENDMDL
MODEL 3
REMARK VINA RESULT:    -7.297      2.017      2.441
REMARK INTER + INTRA:         -10.875
REMARK INTER:                 -10.066
REMARK INTRA:                  -0.809
REMARK UNBOUND:                -1.019
REMARK  Name = 
REMARK  6 active torsions:
REMARK  status: ('A' for Active; 'I' for Inactive)
REMARK    1  A    between atoms: C_2  and  C_25
REMARK    2  A    between atoms: N_3  and  C_4
REMARK    3  A    between atoms: C_4  and  C_5
REMARK    4  A    between atoms: C_8  and  C_9
REMARK    5  A    between atoms: C_9  and  N_10
REMARK    6  A    between atoms: C_11  and  C_13
REMARK                            x       y       z     vdW  Elec       q    Type
REMARK                         _______ _______ _______ _____ _____    ______ ____
ROOT
ATOM      1  C   UNL     1      44.695   4.663  11.937  0.00  0.00    +0.000 A 
ATOM      2  C   UNL     1      45.919   4.513  12.604  0.00  0.00    +0.000 A 
ATOM      3  C   UNL     1      46.591   5.626  13.122  0.00  0.00    +0.000 A 
ATOM      4  C   UNL     1      46.044   6.910  13.001  0.00  0.00    +0.000 A 
ATOM      5  C   UNL     1      44.823   7.060  12.331  0.00  0.00    +0.000 A 
ATOM      6  C   UNL     1      44.150   5.948  11.814  0.00  0.00    +0.000 A 
ENDROOT
BRANCH   1   7
ATOM      7  C   UNL     1      43.996   3.473  11.339  0.00  0.00    +0.000 C 
BRANCH   7  10
ATOM      8  O   UNL     1      44.326   4.337   8.705  0.00  0.00    +0.000 OA
ATOM      9  C   UNL     1      44.885   3.307   9.065  0.00  0.00    +0.000 C 
ATOM     10  N   UNL     1      44.781   2.794  10.340  0.00  0.00    +0.000 N 
ATOM     11  H   UNL     1      45.269   1.927  10.545  0.00  0.00    +0.000 HD
BRANCH   9  12
ATOM     12  C   UNL     1      45.747   2.527   8.117  0.00  0.00    +0.000 A 
ATOM     13  C   UNL     1      46.213   3.136   6.956  0.00  0.00    +0.000 A 
ATOM     14  C   UNL     1      47.020   2.395   6.098  0.00  0.00    +0.000 A 
ATOM     15  C   UNL     1      47.330   1.080   6.428  0.00  0.00    +0.000 A 
ATOM     16  C   UNL     1      46.821   0.554   7.607  0.00  0.00    +0.000 A 
ATOM     17  N   UNL     1      46.034   1.242   8.465  0.00  0.00    +0.000 NA
ENDBRANCH   9  12
ENDBRANCH   7  10
ENDBRANCH   1   7
BRANCH   4  18
ATOM     18  C   UNL     1      46.759   8.114  13.557  0.00  0.00    +0.000 C 
BRANCH  18  19
ATOM     19  N   UNL     1      48.141   7.828  13.849  0.00  0.00    +0.000 N 
ATOM     20  C   UNL     1      48.797   8.492  14.856  0.00  0.00    +0.000 C 
ATOM     21  O   UNL     1      48.227   9.312  15.571  0.00  0.00    +0.000 OA
ATOM     22  H   UNL     1      48.676   7.336  13.140  0.00  0.00    +0.000 HD
BRANCH  20  23
ATOM     23  C   UNL     1      50.203   8.130  15.083  0.00  0.00    +0.000 A 
ATOM     24  C   UNL     1      51.206   8.849  14.446  0.00  0.00    +0.000 A 
ATOM     25  S   UNL     1      52.781   8.341  14.858  0.00  0.00    +0.000 S 
ATOM     26  C   UNL     1      52.178   7.109  15.863  0.00  0.00    +0.000 A 
ATOM     27  N   UNL     1      53.022   6.268  16.521  0.00  0.00    +0.000 NA
ATOM     28  C   UNL     1      52.430   5.360  17.221  0.00  0.00    +0.000 A 
ATOM     29  N   UNL     1      51.070   5.218  17.328  0.00  0.00    +0.000 N 
ATOM     30  C   UNL     1      50.180   6.059  16.703  0.00  0.00    +0.000 A 
ATOM     31  O   UNL     1      48.969   5.926  16.846  0.00  0.00    +0.000 OA
ATOM     32  C   UNL     1      50.794   7.094  15.895  0.00  0.00    +0.000 A 
ATOM     33  H   UNL     1      50.671   4.488  17.898  0.00  0.00    +0.000 HD
ENDBRANCH  20  23
ENDBRANCH  18  19
ENDBRANCH   4  18
TORSDOF 6
ENDMDL
MODEL 4
REMARK VINA RESULT:    -7.286      4.846      9.743
REMARK INTER + INTRA:         -10.861
REMARK INTER:                 -10.046
REMARK INTRA:                  -0.815
REMARK UNBOUND:                -1.019
REMARK  Name = 
REMARK  6 active torsions:
REMARK  status: ('A' for Active; 'I' for Inactive)
REMARK    1  A    between atoms: C_2  and  C_25
REMARK    2  A    between atoms: N_3  and  C_4
REMARK    3  A    between atoms: C_4  and  C_5
REMARK    4  A    between atoms: C_8  and  C_9
REMARK    5  A    between atoms: C_9  and  N_10
REMARK    6  A    between atoms: C_11  and  C_13
REMARK                            x       y       z     vdW  Elec       q    Type
REMARK                         _______ _______ _______ _____ _____    ______ ____
ROOT
ATOM      1  C   UNL     1      51.417   3.254  17.575  0.00  0.00    +0.000 A 
ATOM      2  C   UNL     1      50.713   2.108  17.180  0.00  0.00    +0.000 A 
ATOM      3  C   UNL     1      49.328   2.153  16.982  0.00  0.00    +0.000 A 
ATOM      4  C   UNL     1      48.621   3.350  17.155  0.00  0.00    +0.000 A 
ATOM      5  C   UNL     1      49.324   4.495  17.554  0.00  0.00    +0.000 A 
ATOM      6  C   UNL     1      50.708   4.450  17.751  0.00  0.00    +0.000 A 
ENDROOT
BRANCH   1   7
ATOM      7  C   UNL     1      52.898   3.195  17.833  0.00  0.00    +0.000 C 
BRANCH   7  10
ATOM      8  O   UNL     1      54.254   1.838  19.862  0.00  0.00    +0.000 OA
ATOM      9  C   UNL     1      54.092   1.281  18.782  0.00  0.00    +0.000 C 
ATOM     10  N   UNL     1      53.443   1.866  17.717  0.00  0.00    +0.000 N 
ATOM     11  H   UNL     1      53.367   1.333  16.856  0.00  0.00    +0.000 HD
BRANCH   9  12
ATOM     12  C   UNL     1      54.597  -0.113  18.552  0.00  0.00    +0.000 A 
ATOM     13  C   UNL     1      54.994  -0.495  17.275  0.00  0.00    +0.000 A 
ATOM     14  C   UNL     1      55.469  -1.790  17.089  0.00  0.00    +0.000 A 
ATOM     15  C   UNL     1      55.529  -2.652  18.179  0.00  0.00    +0.000 A 
ATOM     16  C   UNL     1      55.111  -2.185  19.418  0.00  0.00    +0.000 A 
ATOM     17  N   UNL     1      54.643  -0.935  19.637  0.00  0.00    +0.000 NA
ENDBRANCH   9  12
ENDBRANCH   7  10
ENDBRANCH   1   7
BRANCH   4  18
ATOM     18  C   UNL     1      47.131   3.409  16.943  0.00  0.00    +0.000 C 
BRANCH  18  19
ATOM     19  N   UNL     1      46.769   4.400  15.961  0.00  0.00    +0.000 N 
ATOM     20  C   UNL     1      46.885   4.133  14.619  0.00  0.00    +0.000 C 
ATOM     21  O   UNL     1      47.254   3.037  14.205  0.00  0.00    +0.000 OA
ATOM     22  H   UNL     1      46.686   5.361  16.276  0.00  0.00    +0.000 HD
BRANCH  20  23
ATOM     23  C   UNL     1      46.488   5.202  13.693  0.00  0.00    +0.000 A 
ATOM     24  C   UNL     1      47.364   6.250  13.441  0.00  0.00    +0.000 A 
ATOM     25  S   UNL     1      46.777   7.376  12.303  0.00  0.00    +0.000 S 
ATOM     26  C   UNL     1      45.309   6.531  12.145  0.00  0.00    +0.000 A 
ATOM     27  N   UNL     1      44.327   6.985  11.320  0.00  0.00    +0.000 NA
ATOM     28  C   UNL     1      43.255   6.267  11.322  0.00  0.00    +0.000 A 
ATOM     29  N   UNL     1      43.076   5.132  12.071  0.00  0.00    +0.000 N 
ATOM     30  C   UNL     1      44.050   4.622  12.898  0.00  0.00    +0.000 A 
ATOM     31  O   UNL     1      43.871   3.586  13.529  0.00  0.00    +0.000 OA
ATOM     32  C   UNL     1      45.273   5.398  12.939  0.00  0.00    +0.000 A 
ATOM     33  H   UNL     1      42.214   4.612  12.022  0.00  0.00    +0.000 HD
ENDBRANCH  20  23
ENDBRANCH  18  19
ENDBRANCH   4  18
TORSDOF 6
ENDMDL
MODEL 5
REMARK VINA RESULT:    -7.284      2.455      4.197
REMARK INTER + INTRA:         -10.858
REMARK INTER:                  -9.882
REMARK INTRA:                  -0.976
REMARK UNBOUND:                -1.019
REMARK  Name = 
REMARK  6 active torsions:
REMARK  status: ('A' for Active; 'I' for Inactive)
REMARK    1  A    between atoms: C_2  and  C_25
REMARK    2  A    between atoms: N_3  and  C_4
REMARK    3  A    between atoms: C_4  and  C_5
REMARK    4  A    between atoms: C_8  and  C_9
REMARK    5  A    between atoms: C_9  and  N_10
REMARK    6  A    between atoms: C_11  and  C_13
REMARK                            x       y       z     vdW  Elec       q    Type
REMARK                         _______ _______ _______ _____ _____    ______ ____
ROOT
ATOM      1  C   UNL     1      44.763   4.173  11.741  0.00  0.00    +0.000 A 
ATOM      2  C   UNL     1      45.578   3.242  12.398  0.00  0.00    +0.000 A 
ATOM      3  C   UNL     1      46.422   3.642  13.441  0.00  0.00    +0.000 A 
ATOM      4  C   UNL     1      46.455   4.978  13.859  0.00  0.00    +0.000 A 
ATOM      5  C   UNL     1      45.643   5.910  13.199  0.00  0.00    +0.000 A 
ATOM      6  C   UNL     1      44.798   5.510  12.159  0.00  0.00    +0.000 A 
ENDROOT
BRANCH   1   7
ATOM      7  C   UNL     1      43.890   3.751  10.590  0.00  0.00    +0.000 C 
BRANCH   7  10
ATOM      8  O   UNL     1      45.600   5.020   8.784  0.00  0.00    +0.000 OA
ATOM      9  C   UNL     1      45.442   3.808   8.699  0.00  0.00    +0.000 C 
ATOM     10  N   UNL     1      44.617   3.090   9.537  0.00  0.00    +0.000 N 
ATOM     11  H   UNL     1      44.537   2.089   9.383  0.00  0.00    +0.000 HD
BRANCH   9  12
ATOM     12  C   UNL     1      46.165   3.009   7.654  0.00  0.00    +0.000 A 
ATOM     13  C   UNL     1      46.430   3.583   6.415  0.00  0.00    +0.000 A 
ATOM     14  C   UNL     1      47.111   2.826   5.467  0.00  0.00    +0.000 A 
ATOM     15  C   UNL     1      47.501   1.530   5.789  0.00  0.00    +0.000 A 
ATOM     16  C   UNL     1      47.194   1.038   7.050  0.00  0.00    +0.000 A 
ATOM     17  N   UNL     1      46.533   1.743   7.997  0.00  0.00    +0.000 NA
ENDBRANCH   9  12
ENDBRANCH   7  10
ENDBRANCH   1   7
BRANCH   4  18
ATOM     18  C   UNL     1      47.359   5.419  14.981  0.00  0.00    +0.000 C 
BRANCH  18  19
ATOM     19  N   UNL     1      47.916   6.726  14.738  0.00  0.00    +0.000 N 
ATOM     20  C   UNL     1      49.178   7.045  15.176  0.00  0.00    +0.000 C 
ATOM     21  O   UNL     1      49.893   6.224  15.744  0.00  0.00    +0.000 OA
ATOM     22  H   UNL     1      47.271   7.468  14.482  0.00  0.00    +0.000 HD
BRANCH  20  23
ATOM     23  C   UNL     1      49.661   8.399  14.878  0.00  0.00    +0.000 A 
ATOM     24  C   UNL     1      50.239   9.156  15.888  0.00  0.00    +0.000 A 
ATOM     25  S   UNL     1      50.799  10.681  15.368  0.00  0.00    +0.000 S 
ATOM     26  C   UNL     1      50.242  10.404  13.785  0.00  0.00    +0.000 A 
ATOM     27  N   UNL     1      50.390  11.349  12.817  0.00  0.00    +0.000 NA
ATOM     28  C   UNL     1      49.892  11.021  11.672  0.00  0.00    +0.000 A 
ATOM     29  N   UNL     1      49.264   9.831  11.405  0.00  0.00    +0.000 N 
ATOM     30  C   UNL     1      49.115   8.838  12.344  0.00  0.00    +0.000 A 
ATOM     31  O   UNL     1      48.578   7.771  12.064  0.00  0.00    +0.000 OA
ATOM     32  C   UNL     1      49.650   9.160  13.652  0.00  0.00    +0.000 A 
ATOM     33  H   UNL     1      48.901   9.634  10.484  0.00  0.00    +0.000 HD
ENDBRANCH  20  23
ENDBRANCH  18  19
ENDBRANCH   4  18
TORSDOF 6
ENDMDL
MODEL 6
REMARK VINA RESULT:    -6.848      2.667      3.617
REMARK INTER + INTRA:         -10.269
REMARK INTER:                  -9.503
REMARK INTRA:                  -0.766
REMARK UNBOUND:                -1.019
REMARK  Name = 
REMARK  6 active torsions:
REMARK  status: ('A' for Active; 'I' for Inactive)
REMARK    1  A    between atoms: C_2  and  C_25
REMARK    2  A    between atoms: N_3  and  C_4
REMARK    3  A    between atoms: C_4  and  C_5
REMARK    4  A    between atoms: C_8  and  C_9
REMARK    5  A    between atoms: C_9  and  N_10
REMARK    6  A    between atoms: C_11  and  C_13
REMARK                            x       y       z     vdW  Elec       q    Type
REMARK                         _______ _______ _______ _____ _____    ______ ____
ROOT
ATOM      1  C   UNL     1      44.946   4.452  11.756  0.00  0.00    +0.000 A 
ATOM      2  C   UNL     1      45.567   3.338  12.337  0.00  0.00    +0.000 A 
ATOM      3  C   UNL     1      46.403   3.487  13.450  0.00  0.00    +0.000 A 
ATOM      4  C   UNL     1      46.619   4.749  14.017  0.00  0.00    +0.000 A 
ATOM      5  C   UNL     1      46.001   5.863  13.434  0.00  0.00    +0.000 A 
ATOM      6  C   UNL     1      45.165   5.714  12.322  0.00  0.00    +0.000 A 
ENDROOT
BRANCH   1   7
ATOM      7  C   UNL     1      44.085   4.298  10.532  0.00  0.00    +0.000 C 
BRANCH   7  10
ATOM      8  O   UNL     1      45.985   5.254   8.724  0.00  0.00    +0.000 OA
ATOM      9  C   UNL     1      45.639   4.080   8.654  0.00  0.00    +0.000 C 
ATOM     10  N   UNL     1      44.705   3.514   9.494  0.00  0.00    +0.000 N 
ATOM     11  H   UNL     1      44.470   2.536   9.354  0.00  0.00    +0.000 HD
BRANCH   9  12
ATOM     12  C   UNL     1      46.234   3.162   7.627  0.00  0.00    +0.000 A 
ATOM     13  C   UNL     1      46.566   3.662   6.372  0.00  0.00    +0.000 A 
ATOM     14  C   UNL     1      47.126   2.793   5.441  0.00  0.00    +0.000 A 
ATOM     15  C   UNL     1      47.333   1.463   5.795  0.00  0.00    +0.000 A 
ATOM     16  C   UNL     1      46.971   1.052   7.070  0.00  0.00    +0.000 A 
ATOM     17  N   UNL     1      46.424   1.866   8.001  0.00  0.00    +0.000 NA
ENDBRANCH   9  12
ENDBRANCH   7  10
ENDBRANCH   1   7
BRANCH   4  18
ATOM     18  C   UNL     1      47.516   4.919  15.215  0.00  0.00    +0.000 C 
BRANCH  18  19
ATOM     19  N   UNL     1      47.936   6.289  15.380  0.00  0.00    +0.000 N 
ATOM     20  C   UNL     1      48.711   6.661  16.450  0.00  0.00    +0.000 C 
ATOM     21  O   UNL     1      49.113   5.844  17.275  0.00  0.00    +0.000 OA
ATOM     22  H   UNL     1      47.435   6.997  14.852  0.00  0.00    +0.000 HD
BRANCH  20  23
ATOM     23  C   UNL     1      49.094   8.077  16.532  0.00  0.00    +0.000 A 
ATOM     24  C   UNL     1      50.014   8.590  15.628  0.00  0.00    +0.000 A 
ATOM     25  S   UNL     1      50.307  10.260  15.821  0.00  0.00    +0.000 S 
ATOM     26  C   UNL     1      49.254  10.344  17.153  0.00  0.00    +0.000 A 
ATOM     27  N   UNL     1      49.060  11.516  17.818  0.00  0.00    +0.000 NA
ATOM     28  C   UNL     1      48.262  11.430  18.829  0.00  0.00    +0.000 A 
ATOM     29  N   UNL     1      47.636  10.279  19.234  0.00  0.00    +0.000 N 
ATOM     30  C   UNL     1      47.781   9.079  18.578  0.00  0.00    +0.000 A 
ATOM     31  O   UNL     1      47.180   8.075  18.946  0.00  0.00    +0.000 OA
ATOM     32  C   UNL     1      48.675   9.119  17.438  0.00  0.00    +0.000 A 
ATOM     33  H   UNL     1      47.018  10.281  20.032  0.00  0.00    +0.000 HD
ENDBRANCH  20  23
ENDBRANCH  18  19
ENDBRANCH   4  18
TORSDOF 6
ENDMDL
MODEL 7
REMARK VINA RESULT:    -6.764      3.922      8.720
REMARK INTER + INTRA:         -10.155
REMARK INTER:                  -9.118
REMARK INTRA:                  -1.037
REMARK UNBOUND:                -1.019
REMARK  Name = 
REMARK  6 active torsions:
REMARK  status: ('A' for Active; 'I' for Inactive)
REMARK    1  A    between atoms: C_2  and  C_25
REMARK    2  A    between atoms: N_3  and  C_4
REMARK    3  A    between atoms: C_4  and  C_5
REMARK    4  A    between atoms: C_8  and  C_9
REMARK    5  A    between atoms: C_9  and  N_10
REMARK    6  A    between atoms: C_11  and  C_13
REMARK                            x       y       z     vdW  Elec       q    Type
REMARK                         _______ _______ _______ _____ _____    ______ ____
ROOT
ATOM      1  C   UNL     1      49.737   4.937  17.737  0.00  0.00    +0.000 A 
ATOM      2  C   UNL     1      50.525   5.969  17.207  0.00  0.00    +0.000 A 
ATOM      3  C   UNL     1      50.074   6.724  16.117  0.00  0.00    +0.000 A 
ATOM      4  C   UNL     1      48.818   6.475  15.548  0.00  0.00    +0.000 A 
ATOM      5  C   UNL     1      48.033   5.442  16.076  0.00  0.00    +0.000 A 
ATOM      6  C   UNL     1      48.483   4.688  17.165  0.00  0.00    +0.000 A 
ENDROOT
BRANCH   1   7
ATOM      7  C   UNL     1      50.242   4.096  18.878  0.00  0.00    +0.000 C 
BRANCH   7  10
ATOM      8  O   UNL     1      50.721   1.864  17.269  0.00  0.00    +0.000 OA
ATOM      9  C   UNL     1      51.670   2.417  17.813  0.00  0.00    +0.000 C 
ATOM     10  N   UNL     1      51.539   3.519  18.630  0.00  0.00    +0.000 N 
ATOM     11  H   UNL     1      52.381   3.904  19.049  0.00  0.00    +0.000 HD
BRANCH   9  12
ATOM     12  C   UNL     1      53.071   1.919  17.611  0.00  0.00    +0.000 A 
ATOM     13  C   UNL     1      53.281   0.588  17.263  0.00  0.00    +0.000 A 
ATOM     14  C   UNL     1      54.588   0.154  17.070  0.00  0.00    +0.000 A 
ATOM     15  C   UNL     1      55.633   1.058  17.230  0.00  0.00    +0.000 A 
ATOM     16  C   UNL     1      55.330   2.366  17.579  0.00  0.00    +0.000 A 
ATOM     17  N   UNL     1      54.073   2.826  17.775  0.00  0.00    +0.000 NA
ENDBRANCH   9  12
ENDBRANCH   7  10
ENDBRANCH   1   7
BRANCH   4  18
ATOM     18  C   UNL     1      48.324   7.283  14.377  0.00  0.00    +0.000 C 
BRANCH  18  19
ATOM     19  N   UNL     1      47.072   6.779  13.869  0.00  0.00    +0.000 N 
ATOM     20  C   UNL     1      46.789   6.825  12.527  0.00  0.00    +0.000 C 
ATOM     21  O   UNL     1      47.601   7.249  11.708  0.00  0.00    +0.000 OA
ATOM     22  H   UNL     1      46.319   6.644  14.537  0.00  0.00    +0.000 HD
BRANCH  20  23
ATOM     23  C   UNL     1      45.491   6.285  12.103  0.00  0.00    +0.000 A 
ATOM     24  C   UNL     1      44.539   7.138  11.560  0.00  0.00    +0.000 A 
ATOM     25  S   UNL     1      43.110   6.347  11.068  0.00  0.00    +0.000 S 
ATOM     26  C   UNL     1      43.693   4.844  11.610  0.00  0.00    +0.000 A 
ATOM     27  N   UNL     1      42.933   3.721  11.503  0.00  0.00    +0.000 NA
ATOM     28  C   UNL     1      43.483   2.657  11.984  0.00  0.00    +0.000 A 
ATOM     29  N   UNL     1      44.727   2.613  12.559  0.00  0.00    +0.000 N 
ATOM     30  C   UNL     1      45.541   3.717  12.665  0.00  0.00    +0.000 A 
ATOM     31  O   UNL     1      46.663   3.637  13.154  0.00  0.00    +0.000 OA
ATOM     32  C   UNL     1      44.965   4.942  12.147  0.00  0.00    +0.000 A 
ATOM     33  H   UNL     1      45.103   1.746  12.911  0.00  0.00    +0.000 HD
ENDBRANCH  20  23
ENDBRANCH  18  19
ENDBRANCH   4  18
TORSDOF 6
ENDMDL
MODEL 8
REMARK VINA RESULT:    -6.698      4.022      5.280
REMARK INTER + INTRA:         -10.067
REMARK INTER:                  -9.147
REMARK INTRA:                  -0.920
REMARK UNBOUND:                -1.019
REMARK  Name = 
REMARK  6 active torsions:
REMARK  status: ('A' for Active; 'I' for Inactive)
REMARK    1  A    between atoms: C_2  and  C_25
REMARK    2  A    between atoms: N_3  and  C_4
REMARK    3  A    between atoms: C_4  and  C_5
REMARK    4  A    between atoms: C_8  and  C_9
REMARK    5  A    between atoms: C_9  and  N_10
REMARK    6  A    between atoms: C_11  and  C_13
REMARK                            x       y       z     vdW  Elec       q    Type
REMARK                         _______ _______ _______ _____ _____    ______ ____
ROOT
ATOM      1  C   UNL     1      45.335   6.365  11.437  0.00  0.00    +0.000 A 
ATOM      2  C   UNL     1      44.719   7.301  12.279  0.00  0.00    +0.000 A 
ATOM      3  C   UNL     1      45.476   8.282  12.931  0.00  0.00    +0.000 A 
ATOM      4  C   UNL     1      46.862   8.358  12.739  0.00  0.00    +0.000 A 
ATOM      5  C   UNL     1      47.477   7.420  11.901  0.00  0.00    +0.000 A 
ATOM      6  C   UNL     1      46.721   6.441  11.248  0.00  0.00    +0.000 A 
ENDROOT
BRANCH   1   7
ATOM      7  C   UNL     1      44.528   5.283  10.773  0.00  0.00    +0.000 C 
BRANCH   7  10
ATOM      8  O   UNL     1      43.972   2.678   9.933  0.00  0.00    +0.000 OA
ATOM      9  C   UNL     1      44.901   3.284   9.410  0.00  0.00    +0.000 C 
ATOM     10  N   UNL     1      45.259   4.569   9.757  0.00  0.00    +0.000 N 
ATOM     11  H   UNL     1      46.052   4.987   9.279  0.00  0.00    +0.000 HD
BRANCH   9  12
ATOM     12  C   UNL     1      45.720   2.650   8.324  0.00  0.00    +0.000 A 
ATOM     13  C   UNL     1      46.101   3.410   7.222  0.00  0.00    +0.000 A 
ATOM     14  C   UNL     1      46.870   2.802   6.235  0.00  0.00    +0.000 A 
ATOM     15  C   UNL     1      47.227   1.465   6.381  0.00  0.00    +0.000 A 
ATOM     16  C   UNL     1      46.802   0.785   7.514  0.00  0.00    +0.000 A 
ATOM     17  N   UNL     1      46.054   1.341   8.495  0.00  0.00    +0.000 NA
ENDBRANCH   9  12
ENDBRANCH   7  10
ENDBRANCH   1   7
BRANCH   4  18
ATOM     18  C   UNL     1      47.685   9.410  13.436  0.00  0.00    +0.000 C 
BRANCH  18  19
ATOM     19  N   UNL     1      48.837   9.791  12.657  0.00  0.00    +0.000 N 
ATOM     20  C   UNL     1      50.107   9.525  13.107  0.00  0.00    +0.000 C 
ATOM     21  O   UNL     1      50.309   8.917  14.155  0.00  0.00    +0.000 OA
ATOM     22  H   UNL     1      48.698  10.479  11.924  0.00  0.00    +0.000 HD
BRANCH  20  23
ATOM     23  C   UNL     1      51.219   9.946  12.244  0.00  0.00    +0.000 A 
ATOM     24  C   UNL     1      51.782  11.203  12.420  0.00  0.00    +0.000 A 
ATOM     25  S   UNL     1      53.097  11.516  11.378  0.00  0.00    +0.000 S 
ATOM     26  C   UNL     1      52.925  10.003  10.620  0.00  0.00    +0.000 A 
ATOM     27  N   UNL     1      53.745   9.637   9.598  0.00  0.00    +0.000 NA
ATOM     28  C   UNL     1      53.482   8.478   9.093  0.00  0.00    +0.000 A 
ATOM     29  N   UNL     1      52.477   7.650   9.521  0.00  0.00    +0.000 N 
ATOM     30  C   UNL     1      51.641   7.966  10.566  0.00  0.00    +0.000 A 
ATOM     31  O   UNL     1      50.773   7.188  10.946  0.00  0.00    +0.000 OA
ATOM     32  C   UNL     1      51.888   9.263  11.164  0.00  0.00    +0.000 A 
ATOM     33  H   UNL     1      52.328   6.752   9.086  0.00  0.00    +0.000 HD
ENDBRANCH  20  23
ENDBRANCH  18  19
ENDBRANCH   4  18
TORSDOF 6
ENDMDL
MODEL 9
REMARK VINA RESULT:    -6.685      5.077      7.686
REMARK INTER + INTRA:         -10.049
REMARK INTER:                  -9.111
REMARK INTRA:                  -0.938
REMARK UNBOUND:                -1.019
REMARK  Name = 
REMARK  6 active torsions:
REMARK  status: ('A' for Active; 'I' for Inactive)
REMARK    1  A    between atoms: C_2  and  C_25
REMARK    2  A    between atoms: N_3  and  C_4
REMARK    3  A    between atoms: C_4  and  C_5
REMARK    4  A    between atoms: C_8  and  C_9
REMARK    5  A    between atoms: C_9  and  N_10
REMARK    6  A    between atoms: C_11  and  C_13
REMARK                            x       y       z     vdW  Elec       q    Type
REMARK                         _______ _______ _______ _____ _____    ______ ____
ROOT
ATOM      1  C   UNL     1      50.692   8.778  11.282  0.00  0.00    +0.000 A 
ATOM      2  C   UNL     1      49.860   9.900  11.397  0.00  0.00    +0.000 A 
ATOM      3  C   UNL     1      48.532   9.764  11.821  0.00  0.00    +0.000 A 
ATOM      4  C   UNL     1      48.016   8.506  12.158  0.00  0.00    +0.000 A 
ATOM      5  C   UNL     1      48.847   7.385  12.039  0.00  0.00    +0.000 A 
ATOM      6  C   UNL     1      50.173   7.520  11.616  0.00  0.00    +0.000 A 
ENDROOT
BRANCH   1   7
ATOM      7  C   UNL     1      52.104   8.918  10.782  0.00  0.00    +0.000 C 
BRANCH   7  10
ATOM      8  O   UNL     1      54.239   7.136  11.028  0.00  0.00    +0.000 OA
ATOM      9  C   UNL     1      53.536   7.083  10.025  0.00  0.00    +0.000 C 
ATOM     10  N   UNL     1      52.464   7.921   9.806  0.00  0.00    +0.000 N 
ATOM     11  H   UNL     1      51.946   7.813   8.940  0.00  0.00    +0.000 HD
BRANCH   9  12
ATOM     12  C   UNL     1      53.802   6.070   8.951  0.00  0.00    +0.000 A 
ATOM     13  C   UNL     1      52.941   5.986   7.861  0.00  0.00    +0.000 A 
ATOM     14  C   UNL     1      53.215   5.046   6.873  0.00  0.00    +0.000 A 
ATOM     15  C   UNL     1      54.331   4.228   7.008  0.00  0.00    +0.000 A 
ATOM     16  C   UNL     1      55.135   4.381   8.129  0.00  0.00    +0.000 A 
ATOM     17  N   UNL     1      54.901   5.283   9.111  0.00  0.00    +0.000 NA
ENDBRANCH   9  12
ENDBRANCH   7  10
ENDBRANCH   1   7
BRANCH   4  18
ATOM     18  C   UNL     1      46.590   8.350  12.616  0.00  0.00    +0.000 C 
BRANCH  18  19
ATOM     19  N   UNL     1      46.102   7.010  12.402  0.00  0.00    +0.000 N 
ATOM     20  C   UNL     1      45.006   6.780  11.609  0.00  0.00    +0.000 C 
ATOM     21  O   UNL     1      44.431   7.690  11.018  0.00  0.00    +0.000 OA
ATOM     22  H   UNL     1      46.414   6.291  13.049  0.00  0.00    +0.000 HD
BRANCH  20  23
ATOM     23  C   UNL     1      44.585   5.382  11.446  0.00  0.00    +0.000 A 
ATOM     24  C   UNL     1      43.869   4.760  12.461  0.00  0.00    +0.000 A 
ATOM     25  S   UNL     1      43.409   3.159  12.094  0.00  0.00    +0.000 S 
ATOM     26  C   UNL     1      44.196   3.223  10.587  0.00  0.00    +0.000 A 
ATOM     27  N   UNL     1      44.205   2.144   9.758  0.00  0.00    +0.000 NA
ATOM     28  C   UNL     1      44.866   2.318   8.663  0.00  0.00    +0.000 A 
ATOM     29  N   UNL     1      45.516   3.476   8.319  0.00  0.00    +0.000 N 
ATOM     30  C   UNL     1      45.512   4.599   9.113  0.00  0.00    +0.000 A 
ATOM     31  O   UNL     1      46.075   5.630   8.761  0.00  0.00    +0.000 OA
ATOM     32  C   UNL     1      44.789   4.453  10.361  0.00  0.00    +0.000 A 
ATOM     33  H   UNL     1      46.011   3.549   7.444  0.00  0.00    +0.000 HD
ENDBRANCH  20  23
ENDBRANCH  18  19
ENDBRANCH   4  18
TORSDOF 6
ENDMDL
