MODEL 1
REMARK VINA RESULT:    -8.335      0.000      0.000
REMARK INTER + INTRA:         -11.965
REMARK INTER:                 -11.258
REMARK INTRA:                  -0.707
REMARK UNBOUND:                -0.707
REMARK  Name = 
REMARK  7 active torsions:
REMARK  status: ('A' for Active; 'I' for Inactive)
REMARK    1  A    between atoms: C_1  and  C_2
REMARK    2  A    between atoms: C_7  and  C_8
REMARK    3  A    between atoms: N_10  and  C_11
REMARK    4  A    between atoms: C_11  and  C_12
REMARK    5  A    between atoms: C_15  and  C_16
REMARK    6  A    between atoms: C_16  and  O_17
REMARK    7  A    between atoms: O_17  and  C_18
REMARK                            x       y       z     vdW  Elec       q    Type
REMARK                         _______ _______ _______ _____ _____    ______ ____
ROOT
ATOM      1  C   UNL     1      47.446   6.760  13.384  0.00  0.00    +0.000 C 
ATOM      2  O   UNL     1      47.969   6.895  12.275  0.00  0.00    +0.000 OA
ATOM      3  N   UNL     1      46.087   6.802  13.546  0.00  0.00    +0.000 N 
ATOM      4  H   UNL     1      45.704   6.670  14.473  0.00  0.00    +0.000 HD
ENDROOT
BRANCH   1  11
ATOM      5  C   UNL     1      48.597   2.983  19.016  0.00  0.00    +0.000 C 
ATOM      6  C   UNL     1      48.543   3.938  17.863  0.00  0.00    +0.000 A 
ATOM      7  N   UNL     1      49.370   4.927  17.737  0.00  0.00    +0.000 NA
ATOM      8  C   UNL     1      49.178   5.702  16.631  0.00  0.00    +0.000 A 
ATOM      9  S   UNL     1      50.173   7.045  16.307  0.00  0.00    +0.000 S 
ATOM     10  C   UNL     1      49.319   7.412  14.874  0.00  0.00    +0.000 A 
ATOM     11  C   UNL     1      48.270   6.544  14.599  0.00  0.00    +0.000 A 
ATOM     12  C   UNL     1      48.209   5.542  15.651  0.00  0.00    +0.000 A 
ATOM     13  C   UNL     1      47.321   4.421  15.850  0.00  0.00    +0.000 A 
ATOM     14  O   UNL     1      46.402   4.127  15.077  0.00  0.00    +0.000 OA
ATOM     15  N   UNL     1      47.542   3.672  16.960  0.00  0.00    +0.000 N 
ATOM     16  H   UNL     1      46.916   2.885  17.099  0.00  0.00    +0.000 HD
ENDBRANCH   1  11
BRANCH   3  17
ATOM     17  C   UNL     1      45.146   6.992  12.453  0.00  0.00    +0.000 C 
BRANCH  17  18
ATOM     18  C   UNL     1      44.989   5.792  11.540  0.00  0.00    +0.000 A 
ATOM     19  C   UNL     1      44.322   4.643  11.982  0.00  0.00    +0.000 A 
ATOM     20  C   UNL     1      44.166   3.531  11.138  0.00  0.00    +0.000 A 
ATOM     21  C   UNL     1      44.671   3.541   9.832  0.00  0.00    +0.000 A 
ATOM     22  C   UNL     1      45.321   4.682   9.381  0.00  0.00    +0.000 A 
ATOM     23  C   UNL     1      45.482   5.781  10.225  0.00  0.00    +0.000 A 
BRANCH  21  24
ATOM     24  C   UNL     1      44.571   2.380   8.893  0.00  0.00    +0.000 C 
BRANCH  24  25
ATOM     25  O   UNL     1      45.855   1.780   8.739  0.00  0.00    +0.000 OA
BRANCH  25  26
ATOM     26  C   UNL     1      46.456   2.046   7.542  0.00  0.00    +0.000 A 
ATOM     27  C   UNL     1      46.060   3.038   6.646  0.00  0.00    +0.000 A 
ATOM     28  C   UNL     1      46.795   3.238   5.484  0.00  0.00    +0.000 A 
ATOM     29  C   UNL     1      47.900   2.435   5.255  0.00  0.00    +0.000 A 
ATOM     30  N   UNL     1      48.310   1.458   6.098  0.00  0.00    +0.000 NA
ATOM     31  C   UNL     1      47.573   1.286   7.220  0.00  0.00    +0.000 A 
ENDBRANCH  25  26
ENDBRANCH  24  25
ENDBRANCH  21  24
ENDBRANCH  17  18
ENDBRANCH   3  17
TORSDOF 6
ENDMDL
MODEL 2
REMARK VINA RESULT:    -8.111      3.268      4.061
REMARK INTER + INTRA:         -11.664
REMARK INTER:                 -10.642
REMARK INTRA:                  -1.022
REMARK UNBOUND:                -0.707
REMARK  Name = 
REMARK  7 active torsions:
REMARK  status: ('A' for Active; 'I' for Inactive)
REMARK    1  A    between atoms: C_1  and  C_2
REMARK    2  A    between atoms: C_7  and  C_8
REMARK    3  A    between atoms: N_10  and  C_11
REMARK    4  A    between atoms: C_11  and  C_12
REMARK    5  A    between atoms: C_15  and  C_16
REMARK    6  A    between atoms: C_16  and  O_17
REMARK    7  A    between atoms: O_17  and  C_18
REMARK                            x       y       z     vdW  Elec       q    Type
REMARK                         _______ _______ _______ _____ _____    ______ ____
ROOT
ATOM      1  C   UNL     1      45.825   8.454  12.205  0.00  0.00    +0.000 C 
ATOM      2  O   UNL     1      44.800   8.803  11.615  0.00  0.00    +0.000 OA
ATOM      3  N   UNL     1      45.866   7.309  12.955  0.00  0.00    +0.000 N 
ATOM      4  H   UNL     1      46.735   7.057  13.408  0.00  0.00    +0.000 HD
ENDROOT
BRANCH   1  11
ATOM      5  C   UNL     1      52.702   8.545  12.247  0.00  0.00    +0.000 C 
ATOM      6  C   UNL     1      51.222   8.771  12.208  0.00  0.00    +0.000 A 
ATOM      7  N   UNL     1      50.699   9.951  12.091  0.00  0.00    +0.000 NA
ATOM      8  C   UNL     1      49.336   9.978  12.077  0.00  0.00    +0.000 A 
ATOM      9  S   UNL     1      48.481  11.443  11.931  0.00  0.00    +0.000 S 
ATOM     10  C   UNL     1      46.973  10.643  11.997  0.00  0.00    +0.000 A 
ATOM     11  C   UNL     1      47.067   9.264  12.130  0.00  0.00    +0.000 A 
ATOM     12  C   UNL     1      48.472   8.896  12.173  0.00  0.00    +0.000 A 
ATOM     13  C   UNL     1      49.119   7.611  12.300  0.00  0.00    +0.000 A 
ATOM     14  O   UNL     1      48.506   6.541  12.395  0.00  0.00    +0.000 OA
ATOM     15  N   UNL     1      50.476   7.622  12.310  0.00  0.00    +0.000 N 
ATOM     16  H   UNL     1      50.928   6.717  12.400  0.00  0.00    +0.000 HD
ENDBRANCH   1  11
BRANCH   3  17
ATOM     17  C   UNL     1      44.739   6.405  13.115  0.00  0.00    +0.000 C 
BRANCH  17  18
ATOM     18  C   UNL     1      44.683   5.280  12.100  0.00  0.00    +0.000 A 
ATOM     19  C   UNL     1      45.137   3.997  12.431  0.00  0.00    +0.000 A 
ATOM     20  C   UNL     1      45.080   2.949  11.498  0.00  0.00    +0.000 A 
ATOM     21  C   UNL     1      44.567   3.157  10.212  0.00  0.00    +0.000 A 
ATOM     22  C   UNL     1      44.102   4.422   9.879  0.00  0.00    +0.000 A 
ATOM     23  C   UNL     1      44.168   5.462  10.806  0.00  0.00    +0.000 A 
BRANCH  21  24
ATOM     24  C   UNL     1      44.510   2.096   9.159  0.00  0.00    +0.000 C 
BRANCH  24  25
ATOM     25  O   UNL     1      45.817   1.569   8.941  0.00  0.00    +0.000 OA
BRANCH  25  26
ATOM     26  C   UNL     1      46.385   1.955   7.760  0.00  0.00    +0.000 A 
ATOM     27  C   UNL     1      46.048   3.101   7.042  0.00  0.00    +0.000 A 
ATOM     28  C   UNL     1      46.745   3.406   5.879  0.00  0.00    +0.000 A 
ATOM     29  C   UNL     1      47.754   2.549   5.470  0.00  0.00    +0.000 A 
ATOM     30  N   UNL     1      48.103   1.424   6.138  0.00  0.00    +0.000 NA
ATOM     31  C   UNL     1      47.406   1.154   7.266  0.00  0.00    +0.000 A 
ENDBRANCH  25  26
ENDBRANCH  24  25
ENDBRANCH  21  24
ENDBRANCH  17  18
ENDBRANCH   3  17
TORSDOF 6
ENDMDL
MODEL 3
REMARK VINA RESULT:    -7.868      2.143      2.684
REMARK INTER + INTRA:         -11.334
REMARK INTER:                 -10.398
REMARK INTRA:                  -0.937
REMARK UNBOUND:                -0.707
REMARK  Name = 
REMARK  7 active torsions:
REMARK  status: ('A' for Active; 'I' for Inactive)
REMARK    1  A    between atoms: C_1  and  C_2
REMARK    2  A    between atoms: C_7  and  C_8
REMARK    3  A    between atoms: N_10  and  C_11
REMARK    4  A    between atoms: C_11  and  C_12
REMARK    5  A    between atoms: C_15  and  C_16
REMARK    6  A    between atoms: C_16  and  O_17
REMARK    7  A    between atoms: O_17  and  C_18
REMARK                            x       y       z     vdW  Elec       q    Type
REMARK                         _______ _______ _______ _____ _____    ______ ____
ROOT
ATOM      1  C   UNL     1      48.831   8.186  15.286  0.00  0.00    +0.000 C 
ATOM      2  O   UNL     1      49.658   8.922  14.742  0.00  0.00    +0.000 OA
ATOM      3  N   UNL     1      48.016   7.362  14.556  0.00  0.00    +0.000 N 
ATOM      4  H   UNL     1      47.365   6.764  15.048  0.00  0.00    +0.000 HD
ENDROOT
BRANCH   1  11
ATOM      5  C   UNL     1      48.705   4.415  21.036  0.00  0.00    +0.000 C 
ATOM      6  C   UNL     1      48.697   5.430  19.934  0.00  0.00    +0.000 A 
ATOM      7  N   UNL     1      48.506   6.693  20.151  0.00  0.00    +0.000 NA
ATOM      8  C   UNL     1      48.525   7.478  19.037  0.00  0.00    +0.000 A 
ATOM      9  S   UNL     1      48.291   9.161  19.135  0.00  0.00    +0.000 S 
ATOM     10  C   UNL     1      48.450   9.346  17.444  0.00  0.00    +0.000 A 
ATOM     11  C   UNL     1      48.681   8.159  16.762  0.00  0.00    +0.000 A 
ATOM     12  C   UNL     1      48.723   7.071  17.724  0.00  0.00    +0.000 A 
ATOM     13  C   UNL     1      48.931   5.652  17.553  0.00  0.00    +0.000 A 
ATOM     14  O   UNL     1      49.124   5.115  16.456  0.00  0.00    +0.000 OA
ATOM     15  N   UNL     1      48.906   4.902  18.683  0.00  0.00    +0.000 N 
ATOM     16  H   UNL     1      49.051   3.905  18.560  0.00  0.00    +0.000 HD
ENDBRANCH   1  11
BRANCH   3  17
ATOM     17  C   UNL     1      48.052   7.264  13.106  0.00  0.00    +0.000 C 
BRANCH  17  18
ATOM     18  C   UNL     1      47.018   6.327  12.511  0.00  0.00    +0.000 A 
ATOM     19  C   UNL     1      46.716   5.111  13.136  0.00  0.00    +0.000 A 
ATOM     20  C   UNL     1      45.754   4.242  12.594  0.00  0.00    +0.000 A 
ATOM     21  C   UNL     1      45.070   4.569  11.417  0.00  0.00    +0.000 A 
ATOM     22  C   UNL     1      45.352   5.780  10.799  0.00  0.00    +0.000 A 
ATOM     23  C   UNL     1      46.315   6.636  11.336  0.00  0.00    +0.000 A 
BRANCH  21  24
ATOM     24  C   UNL     1      44.059   3.676  10.768  0.00  0.00    +0.000 C 
BRANCH  24  25
ATOM     25  O   UNL     1      44.050   3.910   9.362  0.00  0.00    +0.000 OA
BRANCH  25  26
ATOM     26  C   UNL     1      44.998   3.209   8.673  0.00  0.00    +0.000 A 
ATOM     27  C   UNL     1      45.892   3.753   7.752  0.00  0.00    +0.000 A 
ATOM     28  C   UNL     1      46.845   2.933   7.160  0.00  0.00    +0.000 A 
ATOM     29  C   UNL     1      46.869   1.593   7.507  0.00  0.00    +0.000 A 
ATOM     30  N   UNL     1      46.013   1.028   8.391  0.00  0.00    +0.000 NA
ATOM     31  C   UNL     1      45.097   1.851   8.950  0.00  0.00    +0.000 A 
ENDBRANCH  25  26
ENDBRANCH  24  25
ENDBRANCH  21  24
ENDBRANCH  17  18
ENDBRANCH   3  17
TORSDOF 6
ENDMDL
MODEL 4
REMARK VINA RESULT:    -7.669      2.571      4.321
REMARK INTER + INTRA:         -11.066
REMARK INTER:                  -9.916
REMARK INTRA:                  -1.150
REMARK UNBOUND:                -0.707
REMARK  Name = 
REMARK  7 active torsions:
REMARK  status: ('A' for Active; 'I' for Inactive)
REMARK    1  A    between atoms: C_1  and  C_2
REMARK    2  A    between atoms: C_7  and  C_8
REMARK    3  A    between atoms: N_10  and  C_11
REMARK    4  A    between atoms: C_11  and  C_12
REMARK    5  A    between atoms: C_15  and  C_16
REMARK    6  A    between atoms: C_16  and  O_17
REMARK    7  A    between atoms: O_17  and  C_18
REMARK                            x       y       z     vdW  Elec       q    Type
REMARK                         _______ _______ _______ _____ _____    ______ ____
ROOT
ATOM      1  C   UNL     1      48.692   6.553  15.169  0.00  0.00    +0.000 C 
ATOM      2  O   UNL     1      49.136   5.669  15.905  0.00  0.00    +0.000 OA
ATOM      3  N   UNL     1      47.573   6.354  14.405  0.00  0.00    +0.000 N 
ATOM      4  H   UNL     1      47.238   7.115  13.828  0.00  0.00    +0.000 HD
ENDROOT
BRANCH   1  11
ATOM      5  C   UNL     1      51.467  11.384  11.138  0.00  0.00    +0.000 C 
ATOM      6  C   UNL     1      50.916  10.486  12.203  0.00  0.00    +0.000 A 
ATOM      7  N   UNL     1      50.952  10.793  13.461  0.00  0.00    +0.000 NA
ATOM      8  C   UNL     1      50.410   9.861  14.297  0.00  0.00    +0.000 A 
ATOM      9  S   UNL     1      50.374  10.098  15.982  0.00  0.00    +0.000 S 
ATOM     10  C   UNL     1      49.603   8.596  16.240  0.00  0.00    +0.000 A 
ATOM     11  C   UNL     1      49.352   7.878  15.078  0.00  0.00    +0.000 A 
ATOM     12  C   UNL     1      49.837   8.648  13.944  0.00  0.00    +0.000 A 
ATOM     13  C   UNL     1      49.827   8.369  12.527  0.00  0.00    +0.000 A 
ATOM     14  O   UNL     1      49.355   7.338  12.034  0.00  0.00    +0.000 OA
ATOM     15  N   UNL     1      50.374   9.318  11.726  0.00  0.00    +0.000 N 
ATOM     16  H   UNL     1      50.367   9.119  10.730  0.00  0.00    +0.000 HD
ENDBRANCH   1  11
BRANCH   3  17
ATOM     17  C   UNL     1      46.808   5.117  14.394  0.00  0.00    +0.000 C 
BRANCH  17  18
ATOM     18  C   UNL     1      46.148   4.795  13.066  0.00  0.00    +0.000 A 
ATOM     19  C   UNL     1      46.086   5.756  12.050  0.00  0.00    +0.000 A 
ATOM     20  C   UNL     1      45.483   5.462  10.816  0.00  0.00    +0.000 A 
ATOM     21  C   UNL     1      44.930   4.200  10.568  0.00  0.00    +0.000 A 
ATOM     22  C   UNL     1      45.000   3.236  11.565  0.00  0.00    +0.000 A 
ATOM     23  C   UNL     1      45.592   3.535  12.792  0.00  0.00    +0.000 A 
BRANCH  21  24
ATOM     24  C   UNL     1      44.243   3.831   9.291  0.00  0.00    +0.000 C 
BRANCH  24  25
ATOM     25  O   UNL     1      44.588   2.494   8.933  0.00  0.00    +0.000 OA
BRANCH  25  26
ATOM     26  C   UNL     1      45.604   2.403   8.026  0.00  0.00    +0.000 A 
ATOM     27  C   UNL     1      45.985   3.410   7.141  0.00  0.00    +0.000 A 
ATOM     28  C   UNL     1      47.076   3.205   6.304  0.00  0.00    +0.000 A 
ATOM     29  C   UNL     1      47.747   1.996   6.379  0.00  0.00    +0.000 A 
ATOM     30  N   UNL     1      47.402   0.994   7.221  0.00  0.00    +0.000 NA
ATOM     31  C   UNL     1      46.335   1.222   8.021  0.00  0.00    +0.000 A 
ENDBRANCH  25  26
ENDBRANCH  24  25
ENDBRANCH  21  24
ENDBRANCH  17  18
ENDBRANCH   3  17
TORSDOF 6
ENDMDL
MODEL 5
REMARK VINA RESULT:    -7.490      3.250      4.295
REMARK INTER + INTRA:         -10.824
REMARK INTER:                  -9.922
REMARK INTRA:                  -0.902
REMARK UNBOUND:                -0.707
REMARK  Name = 
REMARK  7 active torsions:
REMARK  status: ('A' for Active; 'I' for Inactive)
REMARK    1  A    between atoms: C_1  and  C_2
REMARK    2  A    between atoms: C_7  and  C_8
REMARK    3  A    between atoms: N_10  and  C_11
REMARK    4  A    between atoms: C_11  and  C_12
REMARK    5  A    between atoms: C_15  and  C_16
REMARK    6  A    between atoms: C_16  and  O_17
REMARK    7  A    between atoms: O_17  and  C_18
REMARK                            x       y       z     vdW  Elec       q    Type
REMARK                         _______ _______ _______ _____ _____    ______ ____
ROOT
ATOM      1  C   UNL     1      48.738   6.119  16.623  0.00  0.00    +0.000 C 
ATOM      2  O   UNL     1      49.565   5.215  16.487  0.00  0.00    +0.000 OA
ATOM      3  N   UNL     1      48.217   6.783  15.544  0.00  0.00    +0.000 N 
ATOM      4  H   UNL     1      47.529   7.507  15.706  0.00  0.00    +0.000 HD
ENDROOT
BRANCH   1  11
ATOM      5  C   UNL     1      46.774  11.251  20.760  0.00  0.00    +0.000 C 
ATOM      6  C   UNL     1      47.157   9.986  20.054  0.00  0.00    +0.000 A 
ATOM      7  N   UNL     1      47.143   8.830  20.637  0.00  0.00    +0.000 NA
ATOM      8  C   UNL     1      47.524   7.783  19.851  0.00  0.00    +0.000 A 
ATOM      9  S   UNL     1      47.566   6.192  20.455  0.00  0.00    +0.000 S 
ATOM     10  C   UNL     1      48.104   5.570  18.957  0.00  0.00    +0.000 A 
ATOM     11  C   UNL     1      48.267   6.532  17.969  0.00  0.00    +0.000 A 
ATOM     12  C   UNL     1      47.917   7.830  18.521  0.00  0.00    +0.000 A 
ATOM     13  C   UNL     1      47.909   9.148  17.931  0.00  0.00    +0.000 A 
ATOM     14  O   UNL     1      48.227   9.376  16.758  0.00  0.00    +0.000 OA
ATOM     15  N   UNL     1      47.524  10.165  18.742  0.00  0.00    +0.000 N 
ATOM     16  H   UNL     1      47.521  11.091  18.325  0.00  0.00    +0.000 HD
ENDBRANCH   1  11
BRANCH   3  17
ATOM     17  C   UNL     1      48.566   6.487  14.164  0.00  0.00    +0.000 C 
BRANCH  17  18
ATOM     18  C   UNL     1      47.388   6.142  13.274  0.00  0.00    +0.000 A 
ATOM     19  C   UNL     1      47.153   6.858  12.094  0.00  0.00    +0.000 A 
ATOM     20  C   UNL     1      46.068   6.539  11.261  0.00  0.00    +0.000 A 
ATOM     21  C   UNL     1      45.193   5.496  11.587  0.00  0.00    +0.000 A 
ATOM     22  C   UNL     1      45.426   4.772  12.748  0.00  0.00    +0.000 A 
ATOM     23  C   UNL     1      46.500   5.098  13.577  0.00  0.00    +0.000 A 
BRANCH  21  24
ATOM     24  C   UNL     1      43.998   5.126  10.765  0.00  0.00    +0.000 C 
BRANCH  24  25
ATOM     25  O   UNL     1      44.015   3.725  10.504  0.00  0.00    +0.000 OA
BRANCH  25  26
ATOM     26  C   UNL     1      44.805   3.362   9.451  0.00  0.00    +0.000 A 
ATOM     27  C   UNL     1      45.290   4.228   8.473  0.00  0.00    +0.000 A 
ATOM     28  C   UNL     1      46.132   3.736   7.483  0.00  0.00    +0.000 A 
ATOM     29  C   UNL     1      46.457   2.389   7.503  0.00  0.00    +0.000 A 
ATOM     30  N   UNL     1      46.000   1.518   8.433  0.00  0.00    +0.000 NA
ATOM     31  C   UNL     1      45.182   2.027   9.382  0.00  0.00    +0.000 A 
ENDBRANCH  25  26
ENDBRANCH  24  25
ENDBRANCH  21  24
ENDBRANCH  17  18
ENDBRANCH   3  17
TORSDOF 6
ENDMDL
MODEL 6
REMARK VINA RESULT:    -7.340      2.535      3.396
REMARK INTER + INTRA:         -10.621
REMARK INTER:                  -9.652
REMARK INTRA:                  -0.970
REMARK UNBOUND:                -0.707
REMARK  Name = 
REMARK  7 active torsions:
REMARK  status: ('A' for Active; 'I' for Inactive)
REMARK    1  A    between atoms: C_1  and  C_2
REMARK    2  A    between atoms: C_7  and  C_8
REMARK    3  A    between atoms: N_10  and  C_11
REMARK    4  A    between atoms: C_11  and  C_12
REMARK    5  A    between atoms: C_15  and  C_16
REMARK    6  A    between atoms: C_16  and  O_17
REMARK    7  A    between atoms: O_17  and  C_18
REMARK                            x       y       z     vdW  Elec       q    Type
REMARK                         _______ _______ _______ _____ _____    ______ ____
ROOT
ATOM      1  C   UNL     1      48.918   5.704  16.804  0.00  0.00    +0.000 C 
ATOM      2  O   UNL     1      47.963   5.897  17.561  0.00  0.00    +0.000 OA
ATOM      3  N   UNL     1      48.850   6.011  15.471  0.00  0.00    +0.000 N 
ATOM      4  H   UNL     1      49.665   5.849  14.894  0.00  0.00    +0.000 HD
ENDROOT
BRANCH   1  11
ATOM      5  C   UNL     1      52.729   0.073  17.837  0.00  0.00    +0.000 C 
ATOM      6  C   UNL     1      52.091   1.423  17.709  0.00  0.00    +0.000 A 
ATOM      7  N   UNL     1      52.671   2.508  18.113  0.00  0.00    +0.000 NA
ATOM      8  C   UNL     1      51.949   3.650  17.925  0.00  0.00    +0.000 A 
ATOM      9  S   UNL     1      52.556   5.169  18.398  0.00  0.00    +0.000 S 
ATOM     10  C   UNL     1      51.149   5.971  17.855  0.00  0.00    +0.000 A 
ATOM     11  C   UNL     1      50.190   5.129  17.307  0.00  0.00    +0.000 A 
ATOM     12  C   UNL     1      50.687   3.764  17.359  0.00  0.00    +0.000 A 
ATOM     13  C   UNL     1      50.099   2.517  16.929  0.00  0.00    +0.000 A 
ATOM     14  O   UNL     1      48.984   2.430  16.403  0.00  0.00    +0.000 OA
ATOM     15  N   UNL     1      50.845   1.402  17.131  0.00  0.00    +0.000 N 
ATOM     16  H   UNL     1      50.429   0.527  16.829  0.00  0.00    +0.000 HD
ENDBRANCH   1  11
BRANCH   3  17
ATOM     17  C   UNL     1      47.681   6.591  14.832  0.00  0.00    +0.000 C 
BRANCH  17  18
ATOM     18  C   UNL     1      46.922   5.642  13.923  0.00  0.00    +0.000 A 
ATOM     19  C   UNL     1      47.076   4.257  14.052  0.00  0.00    +0.000 A 
ATOM     20  C   UNL     1      46.371   3.372  13.219  0.00  0.00    +0.000 A 
ATOM     21  C   UNL     1      45.495   3.852  12.238  0.00  0.00    +0.000 A 
ATOM     22  C   UNL     1      45.325   5.225  12.113  0.00  0.00    +0.000 A 
ATOM     23  C   UNL     1      46.034   6.099  12.937  0.00  0.00    +0.000 A 
BRANCH  21  24
ATOM     24  C   UNL     1      44.740   2.969  11.295  0.00  0.00    +0.000 C 
BRANCH  24  25
ATOM     25  O   UNL     1      44.492   3.671  10.079  0.00  0.00    +0.000 OA
BRANCH  25  26
ATOM     26  C   UNL     1      45.267   3.263   9.031  0.00  0.00    +0.000 A 
ATOM     27  C   UNL     1      45.856   4.105   8.090  0.00  0.00    +0.000 A 
ATOM     28  C   UNL     1      46.668   3.561   7.102  0.00  0.00    +0.000 A 
ATOM     29  C   UNL     1      46.859   2.189   7.087  0.00  0.00    +0.000 A 
ATOM     30  N   UNL     1      46.299   1.340   7.980  0.00  0.00    +0.000 NA
ATOM     31  C   UNL     1      45.513   1.899   8.928  0.00  0.00    +0.000 A 
ENDBRANCH  25  26
ENDBRANCH  24  25
ENDBRANCH  21  24
ENDBRANCH  17  18
ENDBRANCH   3  17
TORSDOF 6
ENDMDL
MODEL 7
REMARK VINA RESULT:    -7.183      4.508      9.085
REMARK INTER + INTRA:         -10.410
REMARK INTER:                  -9.375
REMARK INTRA:                  -1.035
REMARK UNBOUND:                -0.707
REMARK  Name = 
REMARK  7 active torsions:
REMARK  status: ('A' for Active; 'I' for Inactive)
REMARK    1  A    between atoms: C_1  and  C_2
REMARK    2  A    between atoms: C_7  and  C_8
REMARK    3  A    between atoms: N_10  and  C_11
REMARK    4  A    between atoms: C_11  and  C_12
REMARK    5  A    between atoms: C_15  and  C_16
REMARK    6  A    between atoms: C_16  and  O_17
REMARK    7  A    between atoms: O_17  and  C_18
REMARK                            x       y       z     vdW  Elec       q    Type
REMARK                         _______ _______ _______ _____ _____    ______ ____
ROOT
ATOM      1  C   UNL     1      47.145   4.282  14.691  0.00  0.00    +0.000 C 
ATOM      2  O   UNL     1      47.298   3.104  14.360  0.00  0.00    +0.000 OA
ATOM      3  N   UNL     1      47.181   4.667  16.005  0.00  0.00    +0.000 N 
ATOM      4  H   UNL     1      47.065   5.648  16.225  0.00  0.00    +0.000 HD
ENDROOT
BRANCH   1  11
ATOM      5  C   UNL     1      49.296  10.159  11.839  0.00  0.00    +0.000 C 
ATOM      6  C   UNL     1      48.642   8.890  12.296  0.00  0.00    +0.000 A 
ATOM      7  N   UNL     1      47.545   8.444  11.772  0.00  0.00    +0.000 NA
ATOM      8  C   UNL     1      47.083   7.278  12.308  0.00  0.00    +0.000 A 
ATOM      9  S   UNL     1      45.653   6.548  11.742  0.00  0.00    +0.000 S 
ATOM     10  C   UNL     1      45.795   5.260  12.854  0.00  0.00    +0.000 A 
ATOM     11  C   UNL     1      46.911   5.339  13.676  0.00  0.00    +0.000 A 
ATOM     12  C   UNL     1      47.656   6.539  13.333  0.00  0.00    +0.000 A 
ATOM     13  C   UNL     1      48.878   7.091  13.871  0.00  0.00    +0.000 A 
ATOM     14  O   UNL     1      49.524   6.565  14.785  0.00  0.00    +0.000 OA
ATOM     15  N   UNL     1      49.307   8.251  13.313  0.00  0.00    +0.000 N 
ATOM     16  H   UNL     1      50.166   8.637  13.694  0.00  0.00    +0.000 HD
ENDBRANCH   1  11
BRANCH   3  17
ATOM     17  C   UNL     1      47.413   3.754  17.111  0.00  0.00    +0.000 C 
BRANCH  17  18
ATOM     18  C   UNL     1      48.865   3.367  17.317  0.00  0.00    +0.000 A 
ATOM     19  C   UNL     1      49.763   4.261  17.913  0.00  0.00    +0.000 A 
ATOM     20  C   UNL     1      51.107   3.906  18.114  0.00  0.00    +0.000 A 
ATOM     21  C   UNL     1      51.585   2.648  17.725  0.00  0.00    +0.000 A 
ATOM     22  C   UNL     1      50.698   1.750  17.146  0.00  0.00    +0.000 A 
ATOM     23  C   UNL     1      49.366   2.110  16.941  0.00  0.00    +0.000 A 
BRANCH  21  24
ATOM     24  C   UNL     1      53.010   2.218  17.877  0.00  0.00    +0.000 C 
BRANCH  24  25
ATOM     25  O   UNL     1      53.059   0.950  18.526  0.00  0.00    +0.000 OA
BRANCH  25  26
ATOM     26  C   UNL     1      53.863   0.036  17.907  0.00  0.00    +0.000 A 
ATOM     27  C   UNL     1      54.377   0.160  16.618  0.00  0.00    +0.000 A 
ATOM     28  C   UNL     1      55.230  -0.822  16.127  0.00  0.00    +0.000 A 
ATOM     29  C   UNL     1      55.536  -1.899  16.943  0.00  0.00    +0.000 A 
ATOM     30  N   UNL     1      55.050  -2.056  18.197  0.00  0.00    +0.000 NA
ATOM     31  C   UNL     1      54.222  -1.084  18.646  0.00  0.00    +0.000 A 
ENDBRANCH  25  26
ENDBRANCH  24  25
ENDBRANCH  21  24
ENDBRANCH  17  18
ENDBRANCH   3  17
TORSDOF 6
ENDMDL
MODEL 8
REMARK VINA RESULT:    -7.173      3.204      4.573
REMARK INTER + INTRA:         -10.396
REMARK INTER:                  -9.230
REMARK INTRA:                  -1.166
REMARK UNBOUND:                -0.707
REMARK  Name = 
REMARK  7 active torsions:
REMARK  status: ('A' for Active; 'I' for Inactive)
REMARK    1  A    between atoms: C_1  and  C_2
REMARK    2  A    between atoms: C_7  and  C_8
REMARK    3  A    between atoms: N_10  and  C_11
REMARK    4  A    between atoms: C_11  and  C_12
REMARK    5  A    between atoms: C_15  and  C_16
REMARK    6  A    between atoms: C_16  and  O_17
REMARK    7  A    between atoms: O_17  and  C_18
REMARK                            x       y       z     vdW  Elec       q    Type
REMARK                         _______ _______ _______ _____ _____    ______ ____
ROOT
ATOM      1  C   UNL     1      48.289   8.929  14.188  0.00  0.00    +0.000 C 
ATOM      2  O   UNL     1      47.893   8.793  15.348  0.00  0.00    +0.000 OA
ATOM      3  N   UNL     1      47.444   8.779  13.120  0.00  0.00    +0.000 N 
ATOM      4  H   UNL     1      47.812   8.916  12.188  0.00  0.00    +0.000 HD
ENDROOT
BRANCH   1  11
ATOM      5  C   UNL     1      53.817   7.809  10.252  0.00  0.00    +0.000 C 
ATOM      6  C   UNL     1      52.755   8.220  11.226  0.00  0.00    +0.000 A 
ATOM      7  N   UNL     1      52.963   9.099  12.154  0.00  0.00    +0.000 NA
ATOM      8  C   UNL     1      51.891   9.352  12.958  0.00  0.00    +0.000 A 
ATOM      9  S   UNL     1      51.984  10.479  14.231  0.00  0.00    +0.000 S 
ATOM     10  C   UNL     1      50.360  10.202  14.680  0.00  0.00    +0.000 A 
ATOM     11  C   UNL     1      49.705   9.263  13.894  0.00  0.00    +0.000 A 
ATOM     12  C   UNL     1      50.630   8.777  12.884  0.00  0.00    +0.000 A 
ATOM     13  C   UNL     1      50.465   7.808  11.826  0.00  0.00    +0.000 A 
ATOM     14  O   UNL     1      49.410   7.199  11.611  0.00  0.00    +0.000 OA
ATOM     15  N   UNL     1      51.552   7.581  11.047  0.00  0.00    +0.000 N 
ATOM     16  H   UNL     1      51.434   6.898  10.305  0.00  0.00    +0.000 HD
ENDBRANCH   1  11
BRANCH   3  17
ATOM     17  C   UNL     1      46.030   8.465  13.244  0.00  0.00    +0.000 C 
BRANCH  17  18
ATOM     18  C   UNL     1      45.623   7.135  12.639  0.00  0.00    +0.000 A 
ATOM     19  C   UNL     1      44.772   7.089  11.528  0.00  0.00    +0.000 A 
ATOM     20  C   UNL     1      44.398   5.861  10.957  0.00  0.00    +0.000 A 
ATOM     21  C   UNL     1      44.866   4.651  11.483  0.00  0.00    +0.000 A 
ATOM     22  C   UNL     1      45.723   4.688  12.575  0.00  0.00    +0.000 A 
ATOM     23  C   UNL     1      46.085   5.909  13.144  0.00  0.00    +0.000 A 
BRANCH  21  24
ATOM     24  C   UNL     1      44.480   3.307  10.948  0.00  0.00    +0.000 C 
BRANCH  24  25
ATOM     25  O   UNL     1      44.141   3.424   9.568  0.00  0.00    +0.000 OA
BRANCH  25  26
ATOM     26  C   UNL     1      45.100   2.957   8.715  0.00  0.00    +0.000 A 
ATOM     27  C   UNL     1      45.802   3.731   7.793  0.00  0.00    +0.000 A 
ATOM     28  C   UNL     1      46.793   3.138   7.020  0.00  0.00    +0.000 A 
ATOM     29  C   UNL     1      47.047   1.788   7.195  0.00  0.00    +0.000 A 
ATOM     30  N   UNL     1      46.382   1.004   8.076  0.00  0.00    +0.000 NA
ATOM     31  C   UNL     1      45.422   1.609   8.812  0.00  0.00    +0.000 A 
ENDBRANCH  25  26
ENDBRANCH  24  25
ENDBRANCH  21  24
ENDBRANCH  17  18
ENDBRANCH   3  17
TORSDOF 6
ENDMDL
MODEL 9
REMARK VINA RESULT:    -6.829      4.682      7.360
REMARK INTER + INTRA:          -9.931
REMARK INTER:                  -8.985
REMARK INTRA:                  -0.947
REMARK UNBOUND:                -0.707
REMARK  Name = 
REMARK  7 active torsions:
REMARK  status: ('A' for Active; 'I' for Inactive)
REMARK    1  A    between atoms: C_1  and  C_2
REMARK    2  A    between atoms: C_7  and  C_8
REMARK    3  A    between atoms: N_10  and  C_11
REMARK    4  A    between atoms: C_11  and  C_12
REMARK    5  A    between atoms: C_15  and  C_16
REMARK    6  A    between atoms: C_16  and  O_17
REMARK    7  A    between atoms: O_17  and  C_18
REMARK                            x       y       z     vdW  Elec       q    Type
REMARK                         _______ _______ _______ _____ _____    ______ ____
ROOT
ATOM      1  C   UNL     1      45.184   7.612  11.706  0.00  0.00    +0.000 C 
ATOM      2  O   UNL     1      44.569   8.528  11.154  0.00  0.00    +0.000 OA
ATOM      3  N   UNL     1      46.410   7.817  12.282  0.00  0.00    +0.000 N 
ATOM      4  H   UNL     1      46.869   7.037  12.736  0.00  0.00    +0.000 HD
ENDROOT
BRANCH   1  11
ATOM      5  C   UNL     1      44.602   1.437   8.734  0.00  0.00    +0.000 C 
ATOM      6  C   UNL     1      44.588   2.686   9.562  0.00  0.00    +0.000 A 
ATOM      7  N   UNL     1      43.941   2.773  10.680  0.00  0.00    +0.000 NA
ATOM      8  C   UNL     1      44.031   3.982  11.304  0.00  0.00    +0.000 A 
ATOM      9  S   UNL     1      43.242   4.277  12.784  0.00  0.00    +0.000 S 
ATOM     10  C   UNL     1      43.825   5.881  12.849  0.00  0.00    +0.000 A 
ATOM     11  C   UNL     1      44.622   6.240  11.770  0.00  0.00    +0.000 A 
ATOM     12  C   UNL     1      44.730   5.101  10.873  0.00  0.00    +0.000 A 
ATOM     13  C   UNL     1      45.431   4.936   9.621  0.00  0.00    +0.000 A 
ATOM     14  O   UNL     1      46.104   5.825   9.089  0.00  0.00    +0.000 OA
ATOM     15  N   UNL     1      45.319   3.720   9.029  0.00  0.00    +0.000 N 
ATOM     16  H   UNL     1      45.811   3.606   8.148  0.00  0.00    +0.000 HD
ENDBRANCH   1  11
BRANCH   3  17
ATOM     17  C   UNL     1      47.086   9.103  12.313  0.00  0.00    +0.000 C 
BRANCH  17  18
ATOM     18  C   UNL     1      48.530   9.069  11.849  0.00  0.00    +0.000 A 
ATOM     19  C   UNL     1      49.257   7.872  11.871  0.00  0.00    +0.000 A 
ATOM     20  C   UNL     1      50.592   7.831  11.436  0.00  0.00    +0.000 A 
ATOM     21  C   UNL     1      51.231   8.985  10.966  0.00  0.00    +0.000 A 
ATOM     22  C   UNL     1      50.513  10.173  10.926  0.00  0.00    +0.000 A 
ATOM     23  C   UNL     1      49.190  10.210  11.368  0.00  0.00    +0.000 A 
BRANCH  21  24
ATOM     24  C   UNL     1      52.659   9.020  10.520  0.00  0.00    +0.000 C 
BRANCH  24  25
ATOM     25  O   UNL     1      52.714   9.056   9.096  0.00  0.00    +0.000 OA
BRANCH  25  26
ATOM     26  C   UNL     1      53.004   7.853   8.519  0.00  0.00    +0.000 A 
ATOM     27  C   UNL     1      53.444   6.719   9.199  0.00  0.00    +0.000 A 
ATOM     28  C   UNL     1      53.652   5.539   8.494  0.00  0.00    +0.000 A 
ATOM     29  C   UNL     1      53.416   5.536   7.129  0.00  0.00    +0.000 A 
ATOM     30  N   UNL     1      52.995   6.618   6.434  0.00  0.00    +0.000 NA
ATOM     31  C   UNL     1      52.803   7.752   7.148  0.00  0.00    +0.000 A 
ENDBRANCH  25  26
ENDBRANCH  24  25
ENDBRANCH  21  24
ENDBRANCH  17  18
ENDBRANCH   3  17
TORSDOF 6
ENDMDL
