MODEL 1
REMARK VINA RESULT:    -8.221      0.000      0.000
REMARK INTER + INTRA:         -13.629
REMARK INTER:                 -12.787
REMARK INTRA:                  -0.843
REMARK UNBOUND:                -0.843
REMARK  Name = 
REMARK  10 active torsions:
REMARK  status: ('A' for Active; 'I' for Inactive)
REMARK    1  A    between atoms: C_2  and  C_3
REMARK    2  A    between atoms: C_3  and  N_4
REMARK    3  A    between atoms: C_3  and  C_21
REMARK    4  A    between atoms: N_4  and  C_5
REMARK    5  A    between atoms: C_5  and  C_6
REMARK    6  A    between atoms: C_9  and  C_10
REMARK    7  A    between atoms: C_10  and  O_11
REMARK    8  A    between atoms: C_10  and  C_12
REMARK    9  A    between atoms: C_12  and  C_13
REMARK   10  A    between atoms: C_13  and  C_14
REMARK                            x       y       z     vdW  Elec       q    Type
REMARK                         _______ _______ _______ _____ _____    ______ ____
ROOT
ATOM      1  C   UNL     1      48.203   6.100  14.146  0.00  0.00    +0.000 C 
ENDROOT
BRANCH   1   2
ATOM      2  C   UNL     1      47.087   5.632  13.248  0.00  0.00    +0.000 A 
ATOM      3  C   UNL     1      46.434   4.416  13.499  0.00  0.00    +0.000 A 
ATOM      4  C   UNL     1      45.436   3.958  12.641  0.00  0.00    +0.000 A 
ATOM      5  C   UNL     1      45.059   4.709  11.519  0.00  0.00    +0.000 A 
ATOM      6  C   UNL     1      45.698   5.936  11.284  0.00  0.00    +0.000 A 
ATOM      7  C   UNL     1      46.702   6.392  12.138  0.00  0.00    +0.000 A 
BRANCH   5   8
ATOM      8  C   UNL     1      44.001   4.166  10.581  0.00  0.00    +0.000 C 
BRANCH   8   9
ATOM      9  O   UNL     1      43.403   5.242   9.857  0.00  0.00    +0.000 OA
ATOM     10  H   UNL     1      42.439   5.148   9.919  0.00  0.00    +0.000 HD
ENDBRANCH   8   9
BRANCH   8  11
ATOM     11  C   UNL     1      44.542   3.152   9.569  0.00  0.00    +0.000 C 
BRANCH  11  12
ATOM     12  C   UNL     1      44.874   3.769   8.208  0.00  0.00    +0.000 C 
BRANCH  12  13
ATOM     13  C   UNL     1      45.943   2.978   7.530  0.00  0.00    +0.000 A 
ATOM     14  C   UNL     1      46.705   3.267   6.416  0.00  0.00    +0.000 A 
ATOM     15  C   UNL     1      47.623   2.206   6.240  0.00  0.00    +0.000 A 
ATOM     16  C   UNL     1      47.390   1.292   7.243  0.00  0.00    +0.000 A 
ATOM     17  N   UNL     1      46.357   1.758   8.010  0.00  0.00    +0.000 N 
ATOM     18  H   UNL     1      45.976   1.288   8.822  0.00  0.00    +0.000 HD
ENDBRANCH  12  13
ENDBRANCH  11  12
ENDBRANCH   8  11
ENDBRANCH   5   8
ENDBRANCH   1   2
BRANCH   1  19
ATOM     19  N   UNL     1      47.778   6.038  15.544  0.00  0.00    +0.000 NA
ATOM     20  H   UNL     1      48.051   6.904  16.005  0.00  0.00    +0.000 HD
BRANCH  19  21
ATOM     21  C   UNL     1      48.416   4.923  16.260  0.00  0.00    +0.000 C 
BRANCH  21  22
ATOM     22  C   UNL     1      49.279   5.512  17.363  0.00  0.00    +0.000 A 
ATOM     23  C   UNL     1      49.099   6.761  17.944  0.00  0.00    +0.000 A 
ATOM     24  S   UNL     1      50.268   7.134  19.132  0.00  0.00    +0.000 S 
ATOM     25  C   UNL     1      51.034   5.626  18.939  0.00  0.00    +0.000 A 
ATOM     26  N   UNL     1      52.125   5.285  19.677  0.00  0.00    +0.000 NA
ATOM     27  C   UNL     1      52.582   4.102  19.436  0.00  0.00    +0.000 A 
ATOM     28  N   UNL     1      52.054   3.230  18.516  0.00  0.00    +0.000 N 
ATOM     29  C   UNL     1      50.964   3.536  17.734  0.00  0.00    +0.000 A 
ATOM     30  O   UNL     1      50.515   2.757  16.900  0.00  0.00    +0.000 OA
ATOM     31  C   UNL     1      50.411   4.856  17.978  0.00  0.00    +0.000 A 
ATOM     32  H   UNL     1      52.461   2.315  18.380  0.00  0.00    +0.000 HD
ENDBRANCH  21  22
BRANCH  21  34
ATOM     33  N   UNL     1      46.579   3.159  17.376  0.00  0.00    +0.000 NA
ATOM     34  C   UNL     1      47.412   3.958  16.870  0.00  0.00    +0.000 C 
ENDBRANCH  21  34
ENDBRANCH  19  21
ENDBRANCH   1  19
TORSDOF 10
ENDMDL
MODEL 2
REMARK VINA RESULT:    -7.957      1.359      2.084
REMARK INTER + INTRA:         -13.219
REMARK INTER:                 -12.145
REMARK INTRA:                  -1.075
REMARK UNBOUND:                -0.843
REMARK  Name = 
REMARK  10 active torsions:
REMARK  status: ('A' for Active; 'I' for Inactive)
REMARK    1  A    between atoms: C_2  and  C_3
REMARK    2  A    between atoms: C_3  and  N_4
REMARK    3  A    between atoms: C_3  and  C_21
REMARK    4  A    between atoms: N_4  and  C_5
REMARK    5  A    between atoms: C_5  and  C_6
REMARK    6  A    between atoms: C_9  and  C_10
REMARK    7  A    between atoms: C_10  and  O_11
REMARK    8  A    between atoms: C_10  and  C_12
REMARK    9  A    between atoms: C_12  and  C_13
REMARK   10  A    between atoms: C_13  and  C_14
REMARK                            x       y       z     vdW  Elec       q    Type
REMARK                         _______ _______ _______ _____ _____    ______ ____
ROOT
ATOM      1  C   UNL     1      47.950   6.377  14.569  0.00  0.00    +0.000 C 
ENDROOT
BRANCH   1   2
ATOM      2  C   UNL     1      46.991   5.779  13.573  0.00  0.00    +0.000 A 
ATOM      3  C   UNL     1      46.565   6.520  12.461  0.00  0.00    +0.000 A 
ATOM      4  C   UNL     1      45.639   5.986  11.566  0.00  0.00    +0.000 A 
ATOM      5  C   UNL     1      45.126   4.697  11.756  0.00  0.00    +0.000 A 
ATOM      6  C   UNL     1      45.571   3.949  12.856  0.00  0.00    +0.000 A 
ATOM      7  C   UNL     1      46.491   4.485  13.757  0.00  0.00    +0.000 A 
BRANCH   5   8
ATOM      8  C   UNL     1      44.089   4.159  10.791  0.00  0.00    +0.000 C 
BRANCH   8   9
ATOM      9  O   UNL     1      43.496   5.239  10.070  0.00  0.00    +0.000 OA
ATOM     10  H   UNL     1      42.570   5.010   9.892  0.00  0.00    +0.000 HD
ENDBRANCH   8   9
BRANCH   8  11
ATOM     11  C   UNL     1      44.656   3.161   9.777  0.00  0.00    +0.000 C 
BRANCH  11  12
ATOM     12  C   UNL     1      44.863   3.761   8.384  0.00  0.00    +0.000 C 
BRANCH  12  13
ATOM     13  C   UNL     1      45.905   2.993   7.641  0.00  0.00    +0.000 A 
ATOM     14  C   UNL     1      46.625   3.319   6.509  0.00  0.00    +0.000 A 
ATOM     15  C   UNL     1      47.535   2.264   6.264  0.00  0.00    +0.000 A 
ATOM     16  C   UNL     1      47.338   1.317   7.244  0.00  0.00    +0.000 A 
ATOM     17  N   UNL     1      46.335   1.758   8.064  0.00  0.00    +0.000 N 
ATOM     18  H   UNL     1      45.983   1.261   8.873  0.00  0.00    +0.000 HD
ENDBRANCH  12  13
ENDBRANCH  11  12
ENDBRANCH   8  11
ENDBRANCH   5   8
ENDBRANCH   1   2
BRANCH   1  19
ATOM     19  N   UNL     1      48.601   5.315  15.335  0.00  0.00    +0.000 NA
ATOM     20  H   UNL     1      48.046   4.466  15.250  0.00  0.00    +0.000 HD
BRANCH  19  21
ATOM     21  C   UNL     1      48.696   5.651  16.764  0.00  0.00    +0.000 C 
BRANCH  21  22
ATOM     22  C   UNL     1      50.036   5.145  17.272  0.00  0.00    +0.000 A 
ATOM     23  C   UNL     1      51.048   5.937  17.797  0.00  0.00    +0.000 A 
ATOM     24  S   UNL     1      52.441   5.055  18.242  0.00  0.00    +0.000 S 
ATOM     25  C   UNL     1      51.727   3.580  17.785  0.00  0.00    +0.000 A 
ATOM     26  N   UNL     1      52.392   2.400  17.916  0.00  0.00    +0.000 NA
ATOM     27  C   UNL     1      51.714   1.363  17.549  0.00  0.00    +0.000 A 
ATOM     28  N   UNL     1      50.435   1.399  17.053  0.00  0.00    +0.000 N 
ATOM     29  C   UNL     1      49.729   2.568  16.885  0.00  0.00    +0.000 A 
ATOM     30  O   UNL     1      48.594   2.589  16.420  0.00  0.00    +0.000 OA
ATOM     31  C   UNL     1      50.450   3.760  17.294  0.00  0.00    +0.000 A 
ATOM     32  H   UNL     1      49.961   0.547  16.787  0.00  0.00    +0.000 HD
ENDBRANCH  21  22
BRANCH  21  34
ATOM     33  N   UNL     1      48.504   8.383  17.251  0.00  0.00    +0.000 NA
ATOM     34  C   UNL     1      48.592   7.145  17.030  0.00  0.00    +0.000 C 
ENDBRANCH  21  34
ENDBRANCH  19  21
ENDBRANCH   1  19
TORSDOF 10
ENDMDL
MODEL 3
REMARK VINA RESULT:    -7.919      3.165      8.955
REMARK INTER + INTRA:         -13.159
REMARK INTER:                 -11.812
REMARK INTRA:                  -1.347
REMARK UNBOUND:                -0.843
REMARK  Name = 
REMARK  10 active torsions:
REMARK  status: ('A' for Active; 'I' for Inactive)
REMARK    1  A    between atoms: C_2  and  C_3
REMARK    2  A    between atoms: C_3  and  N_4
REMARK    3  A    between atoms: C_3  and  C_21
REMARK    4  A    between atoms: N_4  and  C_5
REMARK    5  A    between atoms: C_5  and  C_6
REMARK    6  A    between atoms: C_9  and  C_10
REMARK    7  A    between atoms: C_10  and  O_11
REMARK    8  A    between atoms: C_10  and  C_12
REMARK    9  A    between atoms: C_12  and  C_13
REMARK   10  A    between atoms: C_13  and  C_14
REMARK                            x       y       z     vdW  Elec       q    Type
REMARK                         _______ _______ _______ _____ _____    ______ ____
ROOT
ATOM      1  C   UNL     1      47.572   6.744  12.718  0.00  0.00    +0.000 C 
ENDROOT
BRANCH   1   2
ATOM      2  C   UNL     1      47.646   5.964  14.005  0.00  0.00    +0.000 A 
ATOM      3  C   UNL     1      46.972   4.742  14.136  0.00  0.00    +0.000 A 
ATOM      4  C   UNL     1      46.998   4.044  15.343  0.00  0.00    +0.000 A 
ATOM      5  C   UNL     1      47.708   4.546  16.442  0.00  0.00    +0.000 A 
ATOM      6  C   UNL     1      48.401   5.758  16.300  0.00  0.00    +0.000 A 
ATOM      7  C   UNL     1      48.369   6.461  15.095  0.00  0.00    +0.000 A 
BRANCH   5   8
ATOM      8  C   UNL     1      47.685   3.788  17.753  0.00  0.00    +0.000 C 
BRANCH   8   9
ATOM      9  O   UNL     1      46.740   2.720  17.674  0.00  0.00    +0.000 OA
ATOM     10  H   UNL     1      45.891   3.089  17.383  0.00  0.00    +0.000 HD
ENDBRANCH   8   9
BRANCH   8  11
ATOM     11  C   UNL     1      49.043   3.198  18.143  0.00  0.00    +0.000 C 
BRANCH  11  12
ATOM     12  C   UNL     1      49.688   2.370  17.030  0.00  0.00    +0.000 C 
BRANCH  12  13
ATOM     13  C   UNL     1      51.100   2.039  17.385  0.00  0.00    +0.000 A 
ATOM     14  C   UNL     1      52.135   2.850  17.806  0.00  0.00    +0.000 A 
ATOM     15  C   UNL     1      53.246   2.018  18.075  0.00  0.00    +0.000 A 
ATOM     16  C   UNL     1      52.866   0.724  17.801  0.00  0.00    +0.000 A 
ATOM     17  N   UNL     1      51.569   0.747  17.365  0.00  0.00    +0.000 N 
ATOM     18  H   UNL     1      51.030  -0.067  17.094  0.00  0.00    +0.000 HD
ENDBRANCH  12  13
ENDBRANCH  11  12
ENDBRANCH   8  11
ENDBRANCH   5   8
ENDBRANCH   1   2
BRANCH   1  19
ATOM     19  N   UNL     1      46.352   7.551  12.693  0.00  0.00    +0.000 NA
ATOM     20  H   UNL     1      45.778   7.296  13.494  0.00  0.00    +0.000 HD
BRANCH  19  21
ATOM     21  C   UNL     1      45.562   7.311  11.476  0.00  0.00    +0.000 C 
BRANCH  21  22
ATOM     22  C   UNL     1      44.796   6.013  11.667  0.00  0.00    +0.000 A 
ATOM     23  C   UNL     1      43.991   5.708  12.757  0.00  0.00    +0.000 A 
ATOM     24  S   UNL     1      43.301   4.149  12.678  0.00  0.00    +0.000 S 
ATOM     25  C   UNL     1      44.022   3.839  11.169  0.00  0.00    +0.000 A 
ATOM     26  N   UNL     1      43.830   2.659  10.519  0.00  0.00    +0.000 NA
ATOM     27  C   UNL     1      44.422   2.579   9.374  0.00  0.00    +0.000 A 
ATOM     28  N   UNL     1      45.198   3.567   8.822  0.00  0.00    +0.000 N 
ATOM     29  C   UNL     1      45.437   4.768   9.448  0.00  0.00    +0.000 A 
ATOM     30  O   UNL     1      46.151   5.635   8.955  0.00  0.00    +0.000 OA
ATOM     31  C   UNL     1      44.782   4.907  10.736  0.00  0.00    +0.000 A 
ATOM     32  H   UNL     1      45.631   3.438   7.918  0.00  0.00    +0.000 HD
ENDBRANCH  21  22
BRANCH  21  34
ATOM     33  N   UNL     1      43.768   9.363  10.923  0.00  0.00    +0.000 NA
ATOM     34  C   UNL     1      44.582   8.433  11.173  0.00  0.00    +0.000 C 
ENDBRANCH  21  34
ENDBRANCH  19  21
ENDBRANCH   1  19
TORSDOF 10
ENDMDL
MODEL 4
REMARK VINA RESULT:    -7.823      1.471      2.165
REMARK INTER + INTRA:         -13.011
REMARK INTER:                 -11.792
REMARK INTRA:                  -1.218
REMARK UNBOUND:                -0.843
REMARK  Name = 
REMARK  10 active torsions:
REMARK  status: ('A' for Active; 'I' for Inactive)
REMARK    1  A    between atoms: C_2  and  C_3
REMARK    2  A    between atoms: C_3  and  N_4
REMARK    3  A    between atoms: C_3  and  C_21
REMARK    4  A    between atoms: N_4  and  C_5
REMARK    5  A    between atoms: C_5  and  C_6
REMARK    6  A    between atoms: C_9  and  C_10
REMARK    7  A    between atoms: C_10  and  O_11
REMARK    8  A    between atoms: C_10  and  C_12
REMARK    9  A    between atoms: C_12  and  C_13
REMARK   10  A    between atoms: C_13  and  C_14
REMARK                            x       y       z     vdW  Elec       q    Type
REMARK                         _______ _______ _______ _____ _____    ______ ____
ROOT
ATOM      1  C   UNL     1      48.260   6.448  14.101  0.00  0.00    +0.000 C 
ENDROOT
BRANCH   1   2
ATOM      2  C   UNL     1      47.201   5.831  13.223  0.00  0.00    +0.000 A 
ATOM      3  C   UNL     1      46.753   6.496  12.073  0.00  0.00    +0.000 A 
ATOM      4  C   UNL     1      45.738   5.950  11.288  0.00  0.00    +0.000 A 
ATOM      5  C   UNL     1      45.156   4.722  11.629  0.00  0.00    +0.000 A 
ATOM      6  C   UNL     1      45.623   4.047  12.768  0.00  0.00    +0.000 A 
ATOM      7  C   UNL     1      46.633   4.597  13.558  0.00  0.00    +0.000 A 
BRANCH   5   8
ATOM      8  C   UNL     1      44.027   4.173  10.783  0.00  0.00    +0.000 C 
BRANCH   8   9
ATOM      9  O   UNL     1      43.365   5.245  10.109  0.00  0.00    +0.000 OA
ATOM     10  H   UNL     1      42.523   4.909   9.763  0.00  0.00    +0.000 HD
ENDBRANCH   8   9
BRANCH   8  11
ATOM     11  C   UNL     1      44.486   3.159   9.731  0.00  0.00    +0.000 C 
BRANCH  11  12
ATOM     12  C   UNL     1      44.847   3.798   8.388  0.00  0.00    +0.000 C 
BRANCH  12  13
ATOM     13  C   UNL     1      45.878   2.977   7.687  0.00  0.00    +0.000 A 
ATOM     14  C   UNL     1      46.660   3.266   6.586  0.00  0.00    +0.000 A 
ATOM     15  C   UNL     1      47.524   2.166   6.377  0.00  0.00    +0.000 A 
ATOM     16  C   UNL     1      47.238   1.230   7.345  0.00  0.00    +0.000 A 
ATOM     17  N   UNL     1      46.225   1.721   8.124  0.00  0.00    +0.000 N 
ATOM     18  H   UNL     1      45.815   1.243   8.916  0.00  0.00    +0.000 HD
ENDBRANCH  12  13
ENDBRANCH  11  12
ENDBRANCH   8  11
ENDBRANCH   5   8
ENDBRANCH   1   2
BRANCH   1  19
ATOM     19  N   UNL     1      48.174   5.893  15.451  0.00  0.00    +0.000 NA
ATOM     20  H   UNL     1      47.193   5.748  15.681  0.00  0.00    +0.000 HD
BRANCH  19  21
ATOM     21  C   UNL     1      48.745   6.805  16.454  0.00  0.00    +0.000 C 
BRANCH  21  22
ATOM     22  C   UNL     1      50.223   6.480  16.591  0.00  0.00    +0.000 A 
ATOM     23  C   UNL     1      51.266   7.271  16.129  0.00  0.00    +0.000 A 
ATOM     24  S   UNL     1      52.809   6.597  16.412  0.00  0.00    +0.000 S 
ATOM     25  C   UNL     1      52.140   5.242  17.195  0.00  0.00    +0.000 A 
ATOM     26  N   UNL     1      52.927   4.255  17.701  0.00  0.00    +0.000 NA
ATOM     27  C   UNL     1      52.279   3.304  18.286  0.00  0.00    +0.000 A 
ATOM     28  N   UNL     1      50.913   3.243  18.403  0.00  0.00    +0.000 N 
ATOM     29  C   UNL     1      50.074   4.206  17.891  0.00  0.00    +0.000 A 
ATOM     30  O   UNL     1      48.854   4.130  17.982  0.00  0.00    +0.000 OA
ATOM     31  C   UNL     1      50.762   5.302  17.232  0.00  0.00    +0.000 A 
ATOM     32  H   UNL     1      50.470   2.468  18.877  0.00  0.00    +0.000 HD
ENDBRANCH  21  22
BRANCH  21  34
ATOM     33  N   UNL     1      48.454   9.486  15.771  0.00  0.00    +0.000 NA
ATOM     34  C   UNL     1      48.587   8.271  16.080  0.00  0.00    +0.000 C 
ENDBRANCH  21  34
ENDBRANCH  19  21
ENDBRANCH   1  19
TORSDOF 10
ENDMDL
MODEL 5
REMARK VINA RESULT:    -7.588      2.293      3.039
REMARK INTER + INTRA:         -12.644
REMARK INTER:                 -11.620
REMARK INTRA:                  -1.024
REMARK UNBOUND:                -0.843
REMARK  Name = 
REMARK  10 active torsions:
REMARK  status: ('A' for Active; 'I' for Inactive)
REMARK    1  A    between atoms: C_2  and  C_3
REMARK    2  A    between atoms: C_3  and  N_4
REMARK    3  A    between atoms: C_3  and  C_21
REMARK    4  A    between atoms: N_4  and  C_5
REMARK    5  A    between atoms: C_5  and  C_6
REMARK    6  A    between atoms: C_9  and  C_10
REMARK    7  A    between atoms: C_10  and  O_11
REMARK    8  A    between atoms: C_10  and  C_12
REMARK    9  A    between atoms: C_12  and  C_13
REMARK   10  A    between atoms: C_13  and  C_14
REMARK                            x       y       z     vdW  Elec       q    Type
REMARK                         _______ _______ _______ _____ _____    ______ ____
ROOT
ATOM      1  C   UNL     1      48.062   7.021  13.860  0.00  0.00    +0.000 C 
ENDROOT
BRANCH   1   2
ATOM      2  C   UNL     1      47.010   6.336  13.027  0.00  0.00    +0.000 A 
ATOM      3  C   UNL     1      46.501   5.086  13.410  0.00  0.00    +0.000 A 
ATOM      4  C   UNL     1      45.566   4.427  12.613  0.00  0.00    +0.000 A 
ATOM      5  C   UNL     1      45.110   5.007  11.422  0.00  0.00    +0.000 A 
ATOM      6  C   UNL     1      45.603   6.268  11.053  0.00  0.00    +0.000 A 
ATOM      7  C   UNL     1      46.545   6.924  11.845  0.00  0.00    +0.000 A 
BRANCH   5   8
ATOM      8  C   UNL     1      44.125   4.250  10.555  0.00  0.00    +0.000 C 
BRANCH   8   9
ATOM      9  O   UNL     1      43.354   5.173   9.785  0.00  0.00    +0.000 OA
ATOM     10  H   UNL     1      43.838   6.013   9.748  0.00  0.00    +0.000 HD
ENDBRANCH   8   9
BRANCH   8  11
ATOM     11  C   UNL     1      44.790   3.263   9.591  0.00  0.00    +0.000 C 
BRANCH  11  12
ATOM     12  C   UNL     1      45.111   3.871   8.224  0.00  0.00    +0.000 C 
BRANCH  12  13
ATOM     13  C   UNL     1      46.058   2.991   7.478  0.00  0.00    +0.000 A 
ATOM     14  C   UNL     1      46.711   3.187   6.278  0.00  0.00    +0.000 A 
ATOM     15  C   UNL     1      47.548   2.068   6.059  0.00  0.00    +0.000 A 
ATOM     16  C   UNL     1      47.374   1.212   7.123  0.00  0.00    +0.000 A 
ATOM     17  N   UNL     1      46.455   1.770   7.970  0.00  0.00    +0.000 N 
ATOM     18  H   UNL     1      46.137   1.358   8.839  0.00  0.00    +0.000 HD
ENDBRANCH  12  13
ENDBRANCH  11  12
ENDBRANCH   8  11
ENDBRANCH   5   8
ENDBRANCH   1   2
BRANCH   1  19
ATOM     19  N   UNL     1      48.644   6.072  14.808  0.00  0.00    +0.000 NA
ATOM     20  H   UNL     1      47.916   5.431  15.115  0.00  0.00    +0.000 HD
BRANCH  19  21
ATOM     21  C   UNL     1      49.183   6.749  15.998  0.00  0.00    +0.000 C 
BRANCH  21  22
ATOM     22  C   UNL     1      48.895   5.869  17.203  0.00  0.00    +0.000 A 
ATOM     23  C   UNL     1      49.056   4.491  17.249  0.00  0.00    +0.000 A 
ATOM     24  S   UNL     1      48.608   3.803  18.746  0.00  0.00    +0.000 S 
ATOM     25  C   UNL     1      48.218   5.325  19.399  0.00  0.00    +0.000 A 
ATOM     26  N   UNL     1      47.767   5.455  20.675  0.00  0.00    +0.000 NA
ATOM     27  C   UNL     1      47.536   6.674  21.037  0.00  0.00    +0.000 A 
ATOM     28  N   UNL     1      47.704   7.774  20.234  0.00  0.00    +0.000 N 
ATOM     29  C   UNL     1      48.138   7.692  18.932  0.00  0.00    +0.000 A 
ATOM     30  O   UNL     1      48.264   8.681  18.218  0.00  0.00    +0.000 OA
ATOM     31  C   UNL     1      48.421   6.340  18.485  0.00  0.00    +0.000 A 
ATOM     32  H   UNL     1      47.505   8.702  20.583  0.00  0.00    +0.000 HD
ENDBRANCH  21  22
BRANCH  21  34
ATOM     33  N   UNL     1      51.920   7.215  15.834  0.00  0.00    +0.000 NA
ATOM     34  C   UNL     1      50.680   7.004  15.909  0.00  0.00    +0.000 C 
ENDBRANCH  21  34
ENDBRANCH  19  21
ENDBRANCH   1  19
TORSDOF 10
ENDMDL
MODEL 6
REMARK VINA RESULT:    -7.482      1.715      2.306
REMARK INTER + INTRA:         -12.480
REMARK INTER:                 -11.683
REMARK INTRA:                  -0.797
REMARK UNBOUND:                -0.843
REMARK  Name = 
REMARK  10 active torsions:
REMARK  status: ('A' for Active; 'I' for Inactive)
REMARK    1  A    between atoms: C_2  and  C_3
REMARK    2  A    between atoms: C_3  and  N_4
REMARK    3  A    between atoms: C_3  and  C_21
REMARK    4  A    between atoms: N_4  and  C_5
REMARK    5  A    between atoms: C_5  and  C_6
REMARK    6  A    between atoms: C_9  and  C_10
REMARK    7  A    between atoms: C_10  and  O_11
REMARK    8  A    between atoms: C_10  and  C_12
REMARK    9  A    between atoms: C_12  and  C_13
REMARK   10  A    between atoms: C_13  and  C_14
REMARK                            x       y       z     vdW  Elec       q    Type
REMARK                         _______ _______ _______ _____ _____    ______ ____
ROOT
ATOM      1  C   UNL     1      48.518   6.546  13.791  0.00  0.00    +0.000 C 
ENDROOT
BRANCH   1   2
ATOM      2  C   UNL     1      47.308   6.102  13.011  0.00  0.00    +0.000 A 
ATOM      3  C   UNL     1      46.465   5.100  13.513  0.00  0.00    +0.000 A 
ATOM      4  C   UNL     1      45.375   4.652  12.769  0.00  0.00    +0.000 A 
ATOM      5  C   UNL     1      45.095   5.204  11.512  0.00  0.00    +0.000 A 
ATOM      6  C   UNL     1      45.926   6.223  11.022  0.00  0.00    +0.000 A 
ATOM      7  C   UNL     1      47.022   6.666  11.762  0.00  0.00    +0.000 A 
BRANCH   5   8
ATOM      8  C   UNL     1      43.928   4.669  10.707  0.00  0.00    +0.000 C 
BRANCH   8   9
ATOM      9  O   UNL     1      42.964   5.705  10.512  0.00  0.00    +0.000 OA
ATOM     10  H   UNL     1      42.507   5.854  11.356  0.00  0.00    +0.000 HD
ENDBRANCH   8   9
BRANCH   8  11
ATOM     11  C   UNL     1      44.329   4.125   9.333  0.00  0.00    +0.000 C 
BRANCH  11  12
ATOM     12  C   UNL     1      44.854   2.688   9.379  0.00  0.00    +0.000 C 
BRANCH  12  13
ATOM     13  C   UNL     1      45.825   2.459   8.269  0.00  0.00    +0.000 A 
ATOM     14  C   UNL     1      46.312   3.322   7.308  0.00  0.00    +0.000 A 
ATOM     15  C   UNL     1      47.264   2.612   6.539  0.00  0.00    +0.000 A 
ATOM     16  C   UNL     1      47.324   1.332   7.041  0.00  0.00    +0.000 A 
ATOM     17  N   UNL     1      46.434   1.241   8.078  0.00  0.00    +0.000 N 
ATOM     18  H   UNL     1      46.271   0.412   8.635  0.00  0.00    +0.000 HD
ENDBRANCH  12  13
ENDBRANCH  11  12
ENDBRANCH   8  11
ENDBRANCH   5   8
ENDBRANCH   1   2
BRANCH   1  19
ATOM     19  N   UNL     1      48.243   6.467  15.225  0.00  0.00    +0.000 NA
ATOM     20  H   UNL     1      47.255   6.661  15.378  0.00  0.00    +0.000 HD
BRANCH  19  21
ATOM     21  C   UNL     1      49.021   7.457  15.986  0.00  0.00    +0.000 C 
BRANCH  21  22
ATOM     22  C   UNL     1      48.619   7.342  17.446  0.00  0.00    +0.000 A 
ATOM     23  C   UNL     1      48.078   8.366  18.214  0.00  0.00    +0.000 A 
ATOM     24  S   UNL     1      47.772   7.914  19.832  0.00  0.00    +0.000 S 
ATOM     25  C   UNL     1      48.316   6.326  19.556  0.00  0.00    +0.000 A 
ATOM     26  N   UNL     1      48.314   5.393  20.546  0.00  0.00    +0.000 NA
ATOM     27  C   UNL     1      48.734   4.228  20.181  0.00  0.00    +0.000 A 
ATOM     28  N   UNL     1      49.165   3.911  18.917  0.00  0.00    +0.000 N 
ATOM     29  C   UNL     1      49.204   4.823  17.888  0.00  0.00    +0.000 A 
ATOM     30  O   UNL     1      49.612   4.534  16.769  0.00  0.00    +0.000 OA
ATOM     31  C   UNL     1      48.731   6.147  18.251  0.00  0.00    +0.000 A 
ATOM     32  H   UNL     1      49.479   2.975  18.699  0.00  0.00    +0.000 HD
ENDBRANCH  21  22
BRANCH  21  34
ATOM     33  N   UNL     1      51.768   7.084  15.758  0.00  0.00    +0.000 NA
ATOM     34  C   UNL     1      50.523   7.253  15.862  0.00  0.00    +0.000 C 
ENDBRANCH  21  34
ENDBRANCH  19  21
ENDBRANCH   1  19
TORSDOF 10
ENDMDL
MODEL 7
REMARK VINA RESULT:    -7.213      2.934      4.130
REMARK INTER + INTRA:         -12.062
REMARK INTER:                 -10.650
REMARK INTRA:                  -1.412
REMARK UNBOUND:                -0.843
REMARK  Name = 
REMARK  10 active torsions:
REMARK  status: ('A' for Active; 'I' for Inactive)
REMARK    1  A    between atoms: C_2  and  C_3
REMARK    2  A    between atoms: C_3  and  N_4
REMARK    3  A    between atoms: C_3  and  C_21
REMARK    4  A    between atoms: N_4  and  C_5
REMARK    5  A    between atoms: C_5  and  C_6
REMARK    6  A    between atoms: C_9  and  C_10
REMARK    7  A    between atoms: C_10  and  O_11
REMARK    8  A    between atoms: C_10  and  C_12
REMARK    9  A    between atoms: C_12  and  C_13
REMARK   10  A    between atoms: C_13  and  C_14
REMARK                            x       y       z     vdW  Elec       q    Type
REMARK                         _______ _______ _______ _____ _____    ______ ____
ROOT
ATOM      1  C   UNL     1      48.627   7.528  13.009  0.00  0.00    +0.000 C 
ENDROOT
BRANCH   1   2
ATOM      2  C   UNL     1      47.339   6.746  13.001  0.00  0.00    +0.000 A 
ATOM      3  C   UNL     1      46.123   7.379  12.709  0.00  0.00    +0.000 A 
ATOM      4  C   UNL     1      44.925   6.668  12.751  0.00  0.00    +0.000 A 
ATOM      5  C   UNL     1      44.916   5.305  13.075  0.00  0.00    +0.000 A 
ATOM      6  C   UNL     1      46.137   4.668  13.343  0.00  0.00    +0.000 A 
ATOM      7  C   UNL     1      47.335   5.381  13.309  0.00  0.00    +0.000 A 
BRANCH   5   8
ATOM      8  C   UNL     1      43.596   4.567  13.154  0.00  0.00    +0.000 C 
BRANCH   8   9
ATOM      9  O   UNL     1      42.544   5.491  13.432  0.00  0.00    +0.000 OA
ATOM     10  H   UNL     1      42.264   5.892  12.593  0.00  0.00    +0.000 HD
ENDBRANCH   8   9
BRANCH   8  11
ATOM     11  C   UNL     1      43.239   3.809  11.871  0.00  0.00    +0.000 C 
BRANCH  11  12
ATOM     12  C   UNL     1      43.495   4.618  10.597  0.00  0.00    +0.000 C 
BRANCH  12  13
ATOM     13  C   UNL     1      44.360   3.844   9.660  0.00  0.00    +0.000 A 
ATOM     14  C   UNL     1      44.864   2.561   9.753  0.00  0.00    +0.000 A 
ATOM     15  C   UNL     1      45.568   2.292   8.557  0.00  0.00    +0.000 A 
ATOM     16  C   UNL     1      45.488   3.419   7.770  0.00  0.00    +0.000 A 
ATOM     17  N   UNL     1      44.770   4.363   8.455  0.00  0.00    +0.000 N 
ATOM     18  H   UNL     1      44.552   5.290   8.113  0.00  0.00    +0.000 HD
ENDBRANCH  12  13
ENDBRANCH  11  12
ENDBRANCH   8  11
ENDBRANCH   5   8
ENDBRANCH   1   2
BRANCH   1  19
ATOM     19  N   UNL     1      49.623   6.841  13.830  0.00  0.00    +0.000 NA
ATOM     20  H   UNL     1      49.198   6.004  14.224  0.00  0.00    +0.000 HD
BRANCH  19  21
ATOM     21  C   UNL     1      50.084   7.682  14.946  0.00  0.00    +0.000 C 
BRANCH  21  22
ATOM     22  C   UNL     1      49.472   7.135  16.225  0.00  0.00    +0.000 A 
ATOM     23  C   UNL     1      49.547   5.815  16.651  0.00  0.00    +0.000 A 
ATOM     24  S   UNL     1      48.719   5.525  18.116  0.00  0.00    +0.000 S 
ATOM     25  C   UNL     1      48.262   7.159  18.252  0.00  0.00    +0.000 A 
ATOM     26  N   UNL     1      47.526   7.604  19.305  0.00  0.00    +0.000 NA
ATOM     27  C   UNL     1      47.276   8.871  19.283  0.00  0.00    +0.000 A 
ATOM     28  N   UNL     1      47.687   9.733  18.298  0.00  0.00    +0.000 N 
ATOM     29  C   UNL     1      48.416   9.328  17.204  0.00  0.00    +0.000 A 
ATOM     30  O   UNL     1      48.758  10.104  16.319  0.00  0.00    +0.000 OA
ATOM     31  C   UNL     1      48.728   7.910  17.192  0.00  0.00    +0.000 A 
ATOM     32  H   UNL     1      47.457  10.716  18.345  0.00  0.00    +0.000 HD
ENDBRANCH  21  22
BRANCH  21  34
ATOM     33  N   UNL     1      52.853   7.725  15.200  0.00  0.00    +0.000 NA
ATOM     34  C   UNL     1      51.598   7.705  15.085  0.00  0.00    +0.000 C 
ENDBRANCH  21  34
ENDBRANCH  19  21
ENDBRANCH   1  19
TORSDOF 10
ENDMDL
MODEL 8
REMARK VINA RESULT:    -6.833      2.167      3.147
REMARK INTER + INTRA:         -11.471
REMARK INTER:                 -10.433
REMARK INTRA:                  -1.038
REMARK UNBOUND:                -0.843
REMARK  Name = 
REMARK  10 active torsions:
REMARK  status: ('A' for Active; 'I' for Inactive)
REMARK    1  A    between atoms: C_2  and  C_3
REMARK    2  A    between atoms: C_3  and  N_4
REMARK    3  A    between atoms: C_3  and  C_21
REMARK    4  A    between atoms: N_4  and  C_5
REMARK    5  A    between atoms: C_5  and  C_6
REMARK    6  A    between atoms: C_9  and  C_10
REMARK    7  A    between atoms: C_10  and  O_11
REMARK    8  A    between atoms: C_10  and  C_12
REMARK    9  A    between atoms: C_12  and  C_13
REMARK   10  A    between atoms: C_13  and  C_14
REMARK                            x       y       z     vdW  Elec       q    Type
REMARK                         _______ _______ _______ _____ _____    ______ ____
ROOT
ATOM      1  C   UNL     1      49.512   7.387  15.452  0.00  0.00    +0.000 C 
ENDROOT
BRANCH   1   2
ATOM      2  C   UNL     1      48.296   7.226  14.576  0.00  0.00    +0.000 A 
ATOM      3  C   UNL     1      47.839   5.949  14.221  0.00  0.00    +0.000 A 
ATOM      4  C   UNL     1      46.745   5.799  13.370  0.00  0.00    +0.000 A 
ATOM      5  C   UNL     1      46.077   6.921  12.864  0.00  0.00    +0.000 A 
ATOM      6  C   UNL     1      46.522   8.198  13.240  0.00  0.00    +0.000 A 
ATOM      7  C   UNL     1      47.621   8.349  14.085  0.00  0.00    +0.000 A 
BRANCH   5   8
ATOM      8  C   UNL     1      44.917   6.729  11.908  0.00  0.00    +0.000 C 
BRANCH   8   9
ATOM      9  O   UNL     1      45.398   6.727  10.564  0.00  0.00    +0.000 OA
ATOM     10  H   UNL     1      45.828   7.581  10.396  0.00  0.00    +0.000 HD
ENDBRANCH   8   9
BRANCH   8  11
ATOM     11  C   UNL     1      44.141   5.430  12.141  0.00  0.00    +0.000 C 
BRANCH  11  12
ATOM     12  C   UNL     1      43.263   5.026  10.954  0.00  0.00    +0.000 C 
BRANCH  12  13
ATOM     13  C   UNL     1      44.023   4.131  10.032  0.00  0.00    +0.000 A 
ATOM     14  C   UNL     1      44.688   2.946  10.275  0.00  0.00    +0.000 A 
ATOM     15  C   UNL     1      45.180   2.470   9.038  0.00  0.00    +0.000 A 
ATOM     16  C   UNL     1      44.815   3.383   8.074  0.00  0.00    +0.000 A 
ATOM     17  N   UNL     1      44.130   4.397   8.687  0.00  0.00    +0.000 N 
ATOM     18  H   UNL     1      43.740   5.204   8.218  0.00  0.00    +0.000 HD
ENDBRANCH  12  13
ENDBRANCH  11  12
ENDBRANCH   8  11
ENDBRANCH   5   8
ENDBRANCH   1   2
BRANCH   1  19
ATOM     19  N   UNL     1      50.002   6.075  15.871  0.00  0.00    +0.000 NA
ATOM     20  H   UNL     1      49.477   5.358  15.375  0.00  0.00    +0.000 HD
BRANCH  19  21
ATOM     21  C   UNL     1      49.813   5.857  17.314  0.00  0.00    +0.000 C 
BRANCH  21  22
ATOM     22  C   UNL     1      50.997   5.051  17.821  0.00  0.00    +0.000 A 
ATOM     23  C   UNL     1      52.092   5.571  18.498  0.00  0.00    +0.000 A 
ATOM     24  S   UNL     1      53.266   4.396  18.897  0.00  0.00    +0.000 S 
ATOM     25  C   UNL     1      52.337   3.146  18.212  0.00  0.00    +0.000 A 
ATOM     26  N   UNL     1      52.767   1.856  18.221  0.00  0.00    +0.000 NA
ATOM     27  C   UNL     1      51.944   1.016  17.686  0.00  0.00    +0.000 A 
ATOM     28  N   UNL     1      50.734   1.351  17.132  0.00  0.00    +0.000 N 
ATOM     29  C   UNL     1      50.264   2.642  17.082  0.00  0.00    +0.000 A 
ATOM     30  O   UNL     1      49.190   2.931  16.565  0.00  0.00    +0.000 OA
ATOM     31  C   UNL     1      51.153   3.620  17.682  0.00  0.00    +0.000 A 
ATOM     32  H   UNL     1      50.137   0.640  16.731  0.00  0.00    +0.000 HD
ENDBRANCH  21  22
BRANCH  21  34
ATOM     33  N   UNL     1      49.635   8.229  18.755  0.00  0.00    +0.000 NA
ATOM     34  C   UNL     1      49.715   7.154  18.102  0.00  0.00    +0.000 C 
ENDBRANCH  21  34
ENDBRANCH  19  21
ENDBRANCH   1  19
TORSDOF 10
ENDMDL
MODEL 9
REMARK VINA RESULT:    -6.701      1.709      2.390
REMARK INTER + INTRA:         -11.264
REMARK INTER:                 -10.871
REMARK INTRA:                  -0.393
REMARK UNBOUND:                -0.843
REMARK  Name = 
REMARK  10 active torsions:
REMARK  status: ('A' for Active; 'I' for Inactive)
REMARK    1  A    between atoms: C_2  and  C_3
REMARK    2  A    between atoms: C_3  and  N_4
REMARK    3  A    between atoms: C_3  and  C_21
REMARK    4  A    between atoms: N_4  and  C_5
REMARK    5  A    between atoms: C_5  and  C_6
REMARK    6  A    between atoms: C_9  and  C_10
REMARK    7  A    between atoms: C_10  and  O_11
REMARK    8  A    between atoms: C_10  and  C_12
REMARK    9  A    between atoms: C_12  and  C_13
REMARK   10  A    between atoms: C_13  and  C_14
REMARK                            x       y       z     vdW  Elec       q    Type
REMARK                         _______ _______ _______ _____ _____    ______ ____
ROOT
ATOM      1  C   UNL     1      48.469   6.595  14.575  0.00  0.00    +0.000 C 
ENDROOT
BRANCH   1   2
ATOM      2  C   UNL     1      47.437   6.136  13.579  0.00  0.00    +0.000 A 
ATOM      3  C   UNL     1      46.946   7.016  12.604  0.00  0.00    +0.000 A 
ATOM      4  C   UNL     1      45.954   6.608  11.714  0.00  0.00    +0.000 A 
ATOM      5  C   UNL     1      45.437   5.307  11.771  0.00  0.00    +0.000 A 
ATOM      6  C   UNL     1      45.947   4.420  12.732  0.00  0.00    +0.000 A 
ATOM      7  C   UNL     1      46.934   4.831  13.628  0.00  0.00    +0.000 A 
BRANCH   5   8
ATOM      8  C   UNL     1      44.331   4.903  10.819  0.00  0.00    +0.000 C 
BRANCH   8   9
ATOM      9  O   UNL     1      43.462   6.013  10.593  0.00  0.00    +0.000 OA
ATOM     10  H   UNL     1      43.284   6.436  11.449  0.00  0.00    +0.000 HD
ENDBRANCH   8   9
BRANCH   8  11
ATOM     11  C   UNL     1      44.840   4.410   9.461  0.00  0.00    +0.000 C 
BRANCH  11  12
ATOM     12  C   UNL     1      44.903   2.885   9.354  0.00  0.00    +0.000 C 
BRANCH  12  13
ATOM     13  C   UNL     1      45.927   2.481   8.346  0.00  0.00    +0.000 A 
ATOM     14  C   UNL     1      46.415   1.234   8.009  0.00  0.00    +0.000 A 
ATOM     15  C   UNL     1      47.323   1.405   6.940  0.00  0.00    +0.000 A 
ATOM     16  C   UNL     1      47.377   2.751   6.659  0.00  0.00    +0.000 A 
ATOM     17  N   UNL     1      46.542   3.400   7.529  0.00  0.00    +0.000 N 
ATOM     18  H   UNL     1      46.383   4.399   7.548  0.00  0.00    +0.000 HD
ENDBRANCH  12  13
ENDBRANCH  11  12
ENDBRANCH   8  11
ENDBRANCH   5   8
ENDBRANCH   1   2
BRANCH   1  19
ATOM     19  N   UNL     1      48.048   6.240  15.930  0.00  0.00    +0.000 NA
ATOM     20  H   UNL     1      48.361   6.968  16.569  0.00  0.00    +0.000 HD
BRANCH  19  21
ATOM     21  C   UNL     1      48.639   4.967  16.370  0.00  0.00    +0.000 C 
BRANCH  21  22
ATOM     22  C   UNL     1      49.667   5.278  17.444  0.00  0.00    +0.000 A 
ATOM     23  C   UNL     1      51.019   4.966  17.377  0.00  0.00    +0.000 A 
ATOM     24  S   UNL     1      51.892   5.423  18.771  0.00  0.00    +0.000 S 
ATOM     25  C   UNL     1      50.504   6.087  19.498  0.00  0.00    +0.000 A 
ATOM     26  N   UNL     1      50.555   6.665  20.728  0.00  0.00    +0.000 NA
ATOM     27  C   UNL     1      49.428   7.145  21.139  0.00  0.00    +0.000 A 
ATOM     28  N   UNL     1      48.251   7.090  20.435  0.00  0.00    +0.000 N 
ATOM     29  C   UNL     1      48.145   6.500  19.197  0.00  0.00    +0.000 A 
ATOM     30  O   UNL     1      47.083   6.438  18.588  0.00  0.00    +0.000 OA
ATOM     31  C   UNL     1      49.392   5.955  18.691  0.00  0.00    +0.000 A 
ATOM     32  H   UNL     1      47.404   7.489  20.816  0.00  0.00    +0.000 HD
ENDBRANCH  21  22
BRANCH  21  34
ATOM     33  N   UNL     1      46.756   3.191  17.388  0.00  0.00    +0.000 NA
ATOM     34  C   UNL     1      47.609   3.996  16.927  0.00  0.00    +0.000 C 
ENDBRANCH  21  34
ENDBRANCH  19  21
ENDBRANCH   1  19
TORSDOF 10
ENDMDL
