MODEL 1
REMARK VINA RESULT:    -7.606      0.000      0.000
REMARK INTER + INTRA:         -11.436
REMARK INTER:                 -10.274
REMARK INTRA:                  -1.162
REMARK UNBOUND:                -1.162
REMARK  Name = 
REMARK  7 active torsions:
REMARK  status: ('A' for Active; 'I' for Inactive)
REMARK    1  A    between atoms: C_1  and  O_2
REMARK    2  A    between atoms: O_2  and  C_3
REMARK    3  A    between atoms: C_5  and  C_6
REMARK    4  A    between atoms: C_11  and  O_12
REMARK    5  A    between atoms: O_12  and  C_13
REMARK    6  A    between atoms: C_13  and  C_14
REMARK    7  A    between atoms: C_18  and  C_19
REMARK                            x       y       z     vdW  Elec       q    Type
REMARK                         _______ _______ _______ _____ _____    ______ ____
ROOT
ATOM      1  O   UNL     1      44.646   6.738  12.955  0.00  0.00    +0.000 OA
ENDROOT
BRANCH   1   7
ATOM      2  C   UNL     1      47.016   6.069  13.403  0.00  0.00    +0.000 A 
ATOM      3  C   UNL     1      48.359   6.404  13.170  0.00  0.00    +0.000 A 
ATOM      4  C   UNL     1      48.721   7.518  12.398  0.00  0.00    +0.000 A 
ATOM      5  C   UNL     1      47.715   8.306  11.838  0.00  0.00    +0.000 A 
ATOM      6  C   UNL     1      46.373   7.978  12.061  0.00  0.00    +0.000 A 
ATOM      7  C   UNL     1      46.007   6.870  12.842  0.00  0.00    +0.000 A 
BRANCH   4   8
ATOM      8  C   UNL     1      50.180   7.785  12.227  0.00  0.00    +0.000 C 
ATOM      9  N   UNL     1      50.976   7.833  13.332  0.00  0.00    +0.000 N 
ATOM     10  O   UNL     1      50.670   7.954  11.116  0.00  0.00    +0.000 OA
ATOM     11  H   UNL     1      50.667   7.703  14.282  0.00  0.00    +0.000 HD
ATOM     12  H   UNL     1      51.960   8.011  13.174  0.00  0.00    +0.000 HD
ENDBRANCH   4   8
BRANCH   2  14
ATOM     13  C   UNL     1      46.722   3.703  13.441  0.00  0.00    +0.000 C 
ATOM     14  O   UNL     1      46.662   4.955  14.117  0.00  0.00    +0.000 OA
ENDBRANCH   2  14
ENDBRANCH   1   7
BRANCH   1  15
ATOM     15  C   UNL     1      43.892   6.440  11.777  0.00  0.00    +0.000 C 
BRANCH  15  16
ATOM     16  C   UNL     1      43.995   4.970  11.416  0.00  0.00    +0.000 A 
ATOM     17  N   UNL     1      43.240   4.092  12.106  0.00  0.00    +0.000 NA
ATOM     18  C   UNL     1      43.285   2.815  11.702  0.00  0.00    +0.000 A 
ATOM     19  C   UNL     1      44.030   2.383  10.630  0.00  0.00    +0.000 A 
ATOM     20  C   UNL     1      44.759   3.344   9.955  0.00  0.00    +0.000 A 
ATOM     21  N   UNL     1      44.756   4.638  10.349  0.00  0.00    +0.000 NA
BRANCH  20  22
ATOM     22  C   UNL     1      45.566   3.035   8.754  0.00  0.00    +0.000 A 
ATOM     23  C   UNL     1      45.958   4.039   7.845  0.00  0.00    +0.000 A 
ATOM     24  C   UNL     1      46.721   3.742   6.710  0.00  0.00    +0.000 A 
ATOM     25  C   UNL     1      47.112   2.430   6.464  0.00  0.00    +0.000 A 
ATOM     26 CL   UNL     1      48.046   2.065   5.069  0.00  0.00    +0.000 Cl
ATOM     27  C   UNL     1      46.752   1.416   7.347  0.00  0.00    +0.000 A 
ATOM     28  C   UNL     1      45.988   1.719   8.481  0.00  0.00    +0.000 A 
ENDBRANCH  20  22
ENDBRANCH  15  16
ENDBRANCH   1  15
TORSDOF 6
ENDMDL
MODEL 2
REMARK VINA RESULT:    -7.268      4.017      7.262
REMARK INTER + INTRA:         -10.979
REMARK INTER:                 -10.818
REMARK INTRA:                  -0.162
REMARK UNBOUND:                -1.162
REMARK  Name = 
REMARK  7 active torsions:
REMARK  status: ('A' for Active; 'I' for Inactive)
REMARK    1  A    between atoms: C_1  and  O_2
REMARK    2  A    between atoms: O_2  and  C_3
REMARK    3  A    between atoms: C_5  and  C_6
REMARK    4  A    between atoms: C_11  and  O_12
REMARK    5  A    between atoms: O_12  and  C_13
REMARK    6  A    between atoms: C_13  and  C_14
REMARK    7  A    between atoms: C_18  and  C_19
REMARK                            x       y       z     vdW  Elec       q    Type
REMARK                         _______ _______ _______ _____ _____    ______ ____
ROOT
ATOM      1  O   UNL     1      44.016   5.139   9.970  0.00  0.00    +0.000 OA
ENDROOT
BRANCH   1   7
ATOM      2  C   UNL     1      44.462   2.694   9.676  0.00  0.00    +0.000 A 
ATOM      3  C   UNL     1      45.245   1.751   8.991  0.00  0.00    +0.000 A 
ATOM      4  C   UNL     1      46.216   2.136   8.055  0.00  0.00    +0.000 A 
ATOM      5  C   UNL     1      46.396   3.494   7.790  0.00  0.00    +0.000 A 
ATOM      6  C   UNL     1      45.617   4.441   8.464  0.00  0.00    +0.000 A 
ATOM      7  C   UNL     1      44.652   4.060   9.410  0.00  0.00    +0.000 A 
BRANCH   4   8
ATOM      8  C   UNL     1      46.999   1.049   7.397  0.00  0.00    +0.000 C 
ATOM      9  N   UNL     1      46.711  -0.247   7.700  0.00  0.00    +0.000 N 
ATOM     10  O   UNL     1      47.887   1.303   6.590  0.00  0.00    +0.000 OA
ATOM     11  H   UNL     1      46.000  -0.554   8.344  0.00  0.00    +0.000 HD
ATOM     12  H   UNL     1      47.261  -0.956   7.229  0.00  0.00    +0.000 HD
ENDBRANCH   4   8
BRANCH   2  14
ATOM     13  C   UNL     1      43.820   2.299  11.939  0.00  0.00    +0.000 C 
ATOM     14  O   UNL     1      43.482   2.316  10.555  0.00  0.00    +0.000 OA
ENDBRANCH   2  14
ENDBRANCH   1   7
BRANCH   1  15
ATOM     15  C   UNL     1      44.070   5.298  11.390  0.00  0.00    +0.000 C 
BRANCH  15  16
ATOM     16  C   UNL     1      45.452   5.732  11.841  0.00  0.00    +0.000 A 
ATOM     17  N   UNL     1      46.105   6.646  11.095  0.00  0.00    +0.000 NA
ATOM     18  C   UNL     1      47.283   7.076  11.570  0.00  0.00    +0.000 A 
ATOM     19  C   UNL     1      47.823   6.653  12.761  0.00  0.00    +0.000 A 
ATOM     20  C   UNL     1      47.085   5.735  13.484  0.00  0.00    +0.000 A 
ATOM     21  N   UNL     1      45.904   5.260  13.025  0.00  0.00    +0.000 NA
BRANCH  20  22
ATOM     22  C   UNL     1      47.516   5.227  14.806  0.00  0.00    +0.000 A 
ATOM     23  C   UNL     1      47.138   3.950  15.269  0.00  0.00    +0.000 A 
ATOM     24  C   UNL     1      47.547   3.476  16.521  0.00  0.00    +0.000 A 
ATOM     25  C   UNL     1      48.349   4.271  17.333  0.00  0.00    +0.000 A 
ATOM     26 CL   UNL     1      48.849   3.688  18.871  0.00  0.00    +0.000 Cl
ATOM     27  C   UNL     1      48.749   5.531  16.901  0.00  0.00    +0.000 A 
ATOM     28  C   UNL     1      48.337   6.002  15.648  0.00  0.00    +0.000 A 
ENDBRANCH  20  22
ENDBRANCH  15  16
ENDBRANCH   1  15
TORSDOF 6
ENDMDL
MODEL 3
REMARK VINA RESULT:    -7.212      3.506      6.629
REMARK INTER + INTRA:         -10.903
REMARK INTER:                 -10.822
REMARK INTRA:                  -0.081
REMARK UNBOUND:                -1.162
REMARK  Name = 
REMARK  7 active torsions:
REMARK  status: ('A' for Active; 'I' for Inactive)
REMARK    1  A    between atoms: C_1  and  O_2
REMARK    2  A    between atoms: O_2  and  C_3
REMARK    3  A    between atoms: C_5  and  C_6
REMARK    4  A    between atoms: C_11  and  O_12
REMARK    5  A    between atoms: O_12  and  C_13
REMARK    6  A    between atoms: C_13  and  C_14
REMARK    7  A    between atoms: C_18  and  C_19
REMARK                            x       y       z     vdW  Elec       q    Type
REMARK                         _______ _______ _______ _____ _____    ______ ____
ROOT
ATOM      1  O   UNL     1      43.931   4.841  10.263  0.00  0.00    +0.000 OA
ENDROOT
BRANCH   1   7
ATOM      2  C   UNL     1      44.681   2.585   9.481  0.00  0.00    +0.000 A 
ATOM      3  C   UNL     1      45.565   1.910   8.623  0.00  0.00    +0.000 A 
ATOM      4  C   UNL     1      46.459   2.600   7.791  0.00  0.00    +0.000 A 
ATOM      5  C   UNL     1      46.458   3.995   7.808  0.00  0.00    +0.000 A 
ATOM      6  C   UNL     1      45.578   4.677   8.656  0.00  0.00    +0.000 A 
ATOM      7  C   UNL     1      44.689   3.990   9.499  0.00  0.00    +0.000 A 
BRANCH   4   8
ATOM      8  C   UNL     1      47.362   1.779   6.930  0.00  0.00    +0.000 C 
ATOM      9  N   UNL     1      48.476   2.357   6.403  0.00  0.00    +0.000 N 
ATOM     10  O   UNL     1      47.120   0.599   6.698  0.00  0.00    +0.000 OA
ATOM     11  H   UNL     1      48.760   3.314   6.540  0.00  0.00    +0.000 HD
ATOM     12  H   UNL     1      49.065   1.766   5.829  0.00  0.00    +0.000 HD
ENDBRANCH   4   8
BRANCH   2  14
ATOM     13  C   UNL     1      43.534   2.425  11.565  0.00  0.00    +0.000 C 
ATOM     14  O   UNL     1      43.776   1.913  10.258  0.00  0.00    +0.000 OA
ENDBRANCH   2  14
ENDBRANCH   1   7
BRANCH   1  15
ATOM     15  C   UNL     1      44.500   6.094  10.652  0.00  0.00    +0.000 C 
BRANCH  15  16
ATOM     16  C   UNL     1      45.420   5.932  11.848  0.00  0.00    +0.000 A 
ATOM     17  N   UNL     1      45.079   5.033  12.794  0.00  0.00    +0.000 NA
ATOM     18  C   UNL     1      45.958   4.848  13.789  0.00  0.00    +0.000 A 
ATOM     19  C   UNL     1      47.165   5.501  13.868  0.00  0.00    +0.000 A 
ATOM     20  C   UNL     1      47.458   6.388  12.849  0.00  0.00    +0.000 A 
ATOM     21  N   UNL     1      46.585   6.618  11.841  0.00  0.00    +0.000 NA
BRANCH  20  22
ATOM     22  C   UNL     1      48.740   7.124  12.775  0.00  0.00    +0.000 A 
ATOM     23  C   UNL     1      49.253   7.597  11.550  0.00  0.00    +0.000 A 
ATOM     24  C   UNL     1      50.467   8.292  11.485  0.00  0.00    +0.000 A 
ATOM     25  C   UNL     1      51.189   8.531  12.649  0.00  0.00    +0.000 A 
ATOM     26 CL   UNL     1      52.680   9.382  12.568  0.00  0.00    +0.000 Cl
ATOM     27  C   UNL     1      50.705   8.087  13.876  0.00  0.00    +0.000 A 
ATOM     28  C   UNL     1      49.491   7.392  13.935  0.00  0.00    +0.000 A 
ENDBRANCH  20  22
ENDBRANCH  15  16
ENDBRANCH   1  15
TORSDOF 6
ENDMDL
MODEL 4
REMARK VINA RESULT:    -7.087      3.109      4.114
REMARK INTER + INTRA:         -10.734
REMARK INTER:                 -10.053
REMARK INTRA:                  -0.681
REMARK UNBOUND:                -1.162
REMARK  Name = 
REMARK  7 active torsions:
REMARK  status: ('A' for Active; 'I' for Inactive)
REMARK    1  A    between atoms: C_1  and  O_2
REMARK    2  A    between atoms: O_2  and  C_3
REMARK    3  A    between atoms: C_5  and  C_6
REMARK    4  A    between atoms: C_11  and  O_12
REMARK    5  A    between atoms: O_12  and  C_13
REMARK    6  A    between atoms: C_13  and  C_14
REMARK    7  A    between atoms: C_18  and  C_19
REMARK                            x       y       z     vdW  Elec       q    Type
REMARK                         _______ _______ _______ _____ _____    ______ ____
ROOT
ATOM      1  O   UNL     1      47.141   4.990  13.864  0.00  0.00    +0.000 OA
ENDROOT
BRANCH   1   7
ATOM      2  C   UNL     1      48.303   5.957  15.858  0.00  0.00    +0.000 A 
ATOM      3  C   UNL     1      48.685   5.711  17.187  0.00  0.00    +0.000 A 
ATOM      4  C   UNL     1      48.383   4.503  17.832  0.00  0.00    +0.000 A 
ATOM      5  C   UNL     1      47.671   3.526  17.135  0.00  0.00    +0.000 A 
ATOM      6  C   UNL     1      47.282   3.763  15.812  0.00  0.00    +0.000 A 
ATOM      7  C   UNL     1      47.593   4.967  15.160  0.00  0.00    +0.000 A 
BRANCH   4   8
ATOM      8  C   UNL     1      48.850   4.346  19.241  0.00  0.00    +0.000 C 
ATOM      9  N   UNL     1      48.462   3.248  19.947  0.00  0.00    +0.000 N 
ATOM     10  O   UNL     1      49.577   5.182  19.767  0.00  0.00    +0.000 OA
ATOM     11  H   UNL     1      47.873   2.508  19.600  0.00  0.00    +0.000 HD
ATOM     12  H   UNL     1      48.804   3.175  20.897  0.00  0.00    +0.000 HD
ENDBRANCH   4   8
BRANCH   2  14
ATOM     13  C   UNL     1      49.852   7.334  14.678  0.00  0.00    +0.000 C 
ATOM     14  O   UNL     1      48.557   7.154  15.244  0.00  0.00    +0.000 OA
ENDBRANCH   2  14
ENDBRANCH   1   7
BRANCH   1  15
ATOM     15  C   UNL     1      45.779   5.352  13.625  0.00  0.00    +0.000 C 
BRANCH  15  16
ATOM     16  C   UNL     1      45.092   4.342  12.726  0.00  0.00    +0.000 A 
ATOM     17  N   UNL     1      43.942   3.786  13.158  0.00  0.00    +0.000 NA
ATOM     18  C   UNL     1      43.312   2.967  12.302  0.00  0.00    +0.000 A 
ATOM     19  C   UNL     1      43.767   2.701  11.032  0.00  0.00    +0.000 A 
ATOM     20  C   UNL     1      44.938   3.327  10.649  0.00  0.00    +0.000 A 
ATOM     21  N   UNL     1      45.613   4.140  11.495  0.00  0.00    +0.000 NA
BRANCH  20  22
ATOM     22  C   UNL     1      45.519   3.174   9.297  0.00  0.00    +0.000 A 
ATOM     23  C   UNL     1      45.809   4.289   8.484  0.00  0.00    +0.000 A 
ATOM     24  C   UNL     1      46.358   4.139   7.205  0.00  0.00    +0.000 A 
ATOM     25  C   UNL     1      46.633   2.866   6.716  0.00  0.00    +0.000 A 
ATOM     26 CL   UNL     1      47.304   2.683   5.144  0.00  0.00    +0.000 Cl
ATOM     27  C   UNL     1      46.369   1.746   7.497  0.00  0.00    +0.000 A 
ATOM     28  C   UNL     1      45.820   1.901   8.775  0.00  0.00    +0.000 A 
ENDBRANCH  20  22
ENDBRANCH  15  16
ENDBRANCH   1  15
TORSDOF 6
ENDMDL
MODEL 5
REMARK VINA RESULT:    -7.047      1.083      2.073
REMARK INTER + INTRA:         -10.681
REMARK INTER:                  -9.819
REMARK INTRA:                  -0.863
REMARK UNBOUND:                -1.162
REMARK  Name = 
REMARK  7 active torsions:
REMARK  status: ('A' for Active; 'I' for Inactive)
REMARK    1  A    between atoms: C_1  and  O_2
REMARK    2  A    between atoms: O_2  and  C_3
REMARK    3  A    between atoms: C_5  and  C_6
REMARK    4  A    between atoms: C_11  and  O_12
REMARK    5  A    between atoms: O_12  and  C_13
REMARK    6  A    between atoms: C_13  and  C_14
REMARK    7  A    between atoms: C_18  and  C_19
REMARK                            x       y       z     vdW  Elec       q    Type
REMARK                         _______ _______ _______ _____ _____    ______ ____
ROOT
ATOM      1  O   UNL     1      44.985   6.696  13.013  0.00  0.00    +0.000 OA
ENDROOT
BRANCH   1   7
ATOM      2  C   UNL     1      46.340   8.721  12.440  0.00  0.00    +0.000 A 
ATOM      3  C   UNL     1      47.625   9.177  12.107  0.00  0.00    +0.000 A 
ATOM      4  C   UNL     1      48.718   8.303  12.011  0.00  0.00    +0.000 A 
ATOM      5  C   UNL     1      48.522   6.946  12.268  0.00  0.00    +0.000 A 
ATOM      6  C   UNL     1      47.245   6.482  12.606  0.00  0.00    +0.000 A 
ATOM      7  C   UNL     1      46.147   7.352  12.691  0.00  0.00    +0.000 A 
BRANCH   4   8
ATOM      8  C   UNL     1      50.036   8.897  11.636  0.00  0.00    +0.000 C 
ATOM      9  N   UNL     1      50.297  10.189  11.976  0.00  0.00    +0.000 N 
ATOM     10  O   UNL     1      50.882   8.241  11.037  0.00  0.00    +0.000 OA
ATOM     11  H   UNL     1      49.670  10.803  12.470  0.00  0.00    +0.000 HD
ATOM     12  H   UNL     1      51.204  10.554  11.709  0.00  0.00    +0.000 HD
ENDBRANCH   4   8
BRANCH   2  14
ATOM     13  C   UNL     1      44.909  10.342  11.436  0.00  0.00    +0.000 C 
ATOM     14  O   UNL     1      45.283   9.580  12.580  0.00  0.00    +0.000 OA
ENDBRANCH   2  14
ENDBRANCH   1   7
BRANCH   1  15
ATOM     15  C   UNL     1      44.039   6.440  11.972  0.00  0.00    +0.000 C 
BRANCH  15  16
ATOM     16  C   UNL     1      44.067   4.982  11.551  0.00  0.00    +0.000 A 
ATOM     17  N   UNL     1      43.273   4.115  12.212  0.00  0.00    +0.000 NA
ATOM     18  C   UNL     1      43.252   2.854  11.756  0.00  0.00    +0.000 A 
ATOM     19  C   UNL     1      43.967   2.430  10.661  0.00  0.00    +0.000 A 
ATOM     20  C   UNL     1      44.738   3.381  10.018  0.00  0.00    +0.000 A 
ATOM     21  N   UNL     1      44.802   4.656  10.465  0.00  0.00    +0.000 NA
BRANCH  20  22
ATOM     22  C   UNL     1      45.521   3.082   8.799  0.00  0.00    +0.000 A 
ATOM     23  C   UNL     1      45.895   4.093   7.891  0.00  0.00    +0.000 A 
ATOM     24  C   UNL     1      46.634   3.804   6.738  0.00  0.00    +0.000 A 
ATOM     25  C   UNL     1      47.021   2.495   6.474  0.00  0.00    +0.000 A 
ATOM     26 CL   UNL     1      47.927   2.141   5.057  0.00  0.00    +0.000 Cl
ATOM     27  C   UNL     1      46.679   1.474   7.356  0.00  0.00    +0.000 A 
ATOM     28  C   UNL     1      45.938   1.768   8.508  0.00  0.00    +0.000 A 
ENDBRANCH  20  22
ENDBRANCH  15  16
ENDBRANCH   1  15
TORSDOF 6
ENDMDL
MODEL 6
REMARK VINA RESULT:    -6.848      2.216      2.586
REMARK INTER + INTRA:         -10.412
REMARK INTER:                  -9.430
REMARK INTRA:                  -0.982
REMARK UNBOUND:                -1.162
REMARK  Name = 
REMARK  7 active torsions:
REMARK  status: ('A' for Active; 'I' for Inactive)
REMARK    1  A    between atoms: C_1  and  O_2
REMARK    2  A    between atoms: O_2  and  C_3
REMARK    3  A    between atoms: C_5  and  C_6
REMARK    4  A    between atoms: C_11  and  O_12
REMARK    5  A    between atoms: O_12  and  C_13
REMARK    6  A    between atoms: C_13  and  C_14
REMARK    7  A    between atoms: C_18  and  C_19
REMARK                            x       y       z     vdW  Elec       q    Type
REMARK                         _______ _______ _______ _____ _____    ______ ____
ROOT
ATOM      1  O   UNL     1      46.539   7.622  12.179  0.00  0.00    +0.000 OA
ENDROOT
BRANCH   1   7
ATOM      2  C   UNL     1      47.829   6.393  13.937  0.00  0.00    +0.000 A 
ATOM      3  C   UNL     1      48.577   6.541  15.116  0.00  0.00    +0.000 A 
ATOM      4  C   UNL     1      48.808   7.798  15.693  0.00  0.00    +0.000 A 
ATOM      5  C   UNL     1      48.291   8.933  15.067  0.00  0.00    +0.000 A 
ATOM      6  C   UNL     1      47.548   8.797  13.889  0.00  0.00    +0.000 A 
ATOM      7  C   UNL     1      47.304   7.539  13.315  0.00  0.00    +0.000 A 
BRANCH   4   8
ATOM      8  C   UNL     1      49.606   7.834  16.954  0.00  0.00    +0.000 C 
ATOM      9  N   UNL     1      49.058   8.401  18.065  0.00  0.00    +0.000 N 
ATOM     10  O   UNL     1      50.736   7.360  17.006  0.00  0.00    +0.000 OA
ATOM     11  H   UNL     1      48.140   8.810  18.122  0.00  0.00    +0.000 HD
ATOM     12  H   UNL     1      49.629   8.401  18.902  0.00  0.00    +0.000 HD
ENDBRANCH   4   8
BRANCH   2  14
ATOM     13  C   UNL     1      46.786   4.250  14.019  0.00  0.00    +0.000 C 
ATOM     14  O   UNL     1      47.642   5.171  13.349  0.00  0.00    +0.000 OA
ENDBRANCH   2  14
ENDBRANCH   1   7
BRANCH   1  15
ATOM     15  C   UNL     1      45.116   7.612  12.316  0.00  0.00    +0.000 C 
BRANCH  15  16
ATOM     16  C   UNL     1      44.532   6.280  11.885  0.00  0.00    +0.000 A 
ATOM     17  N   UNL     1      43.349   5.905  12.413  0.00  0.00    +0.000 NA
ATOM     18  C   UNL     1      42.816   4.768  11.943  0.00  0.00    +0.000 A 
ATOM     19  C   UNL     1      43.399   4.005  10.959  0.00  0.00    +0.000 A 
ATOM     20  C   UNL     1      44.598   4.465  10.448  0.00  0.00    +0.000 A 
ATOM     21  N   UNL     1      45.177   5.595  10.914  0.00  0.00    +0.000 NA
BRANCH  20  22
ATOM     22  C   UNL     1      45.315   3.776   9.352  0.00  0.00    +0.000 A 
ATOM     23  C   UNL     1      45.367   2.369   9.269  0.00  0.00    +0.000 A 
ATOM     24  C   UNL     1      46.048   1.722   8.231  0.00  0.00    +0.000 A 
ATOM     25  C   UNL     1      46.687   2.473   7.250  0.00  0.00    +0.000 A 
ATOM     26 CL   UNL     1      47.525   1.678   5.977  0.00  0.00    +0.000 Cl
ATOM     27  C   UNL     1      46.646   3.863   7.296  0.00  0.00    +0.000 A 
ATOM     28  C   UNL     1      45.964   4.505   8.337  0.00  0.00    +0.000 A 
ENDBRANCH  20  22
ENDBRANCH  15  16
ENDBRANCH   1  15
TORSDOF 6
ENDMDL
MODEL 7
REMARK VINA RESULT:    -6.563      1.791      2.452
REMARK INTER + INTRA:         -10.028
REMARK INTER:                  -9.276
REMARK INTRA:                  -0.752
REMARK UNBOUND:                -1.162
REMARK  Name = 
REMARK  7 active torsions:
REMARK  status: ('A' for Active; 'I' for Inactive)
REMARK    1  A    between atoms: C_1  and  O_2
REMARK    2  A    between atoms: O_2  and  C_3
REMARK    3  A    between atoms: C_5  and  C_6
REMARK    4  A    between atoms: C_11  and  O_12
REMARK    5  A    between atoms: O_12  and  C_13
REMARK    6  A    between atoms: C_13  and  C_14
REMARK    7  A    between atoms: C_18  and  C_19
REMARK                            x       y       z     vdW  Elec       q    Type
REMARK                         _______ _______ _______ _____ _____    ______ ____
ROOT
ATOM      1  O   UNL     1      47.455   5.154  13.456  0.00  0.00    +0.000 OA
ENDROOT
BRANCH   1   7
ATOM      2  C   UNL     1      49.012   6.952  14.235  0.00  0.00    +0.000 A 
ATOM      3  C   UNL     1      49.576   8.195  13.904  0.00  0.00    +0.000 A 
ATOM      4  C   UNL     1      49.274   8.847  12.700  0.00  0.00    +0.000 A 
ATOM      5  C   UNL     1      48.399   8.236  11.802  0.00  0.00    +0.000 A 
ATOM      6  C   UNL     1      47.835   6.995  12.120  0.00  0.00    +0.000 A 
ATOM      7  C   UNL     1      48.126   6.344  13.330  0.00  0.00    +0.000 A 
BRANCH   4   8
ATOM      8  C   UNL     1      49.922  10.171  12.460  0.00  0.00    +0.000 C 
ATOM      9  N   UNL     1      49.267  11.101  11.712  0.00  0.00    +0.000 N 
ATOM     10  O   UNL     1      51.026  10.433  12.927  0.00  0.00    +0.000 OA
ATOM     11  H   UNL     1      48.359  10.981  11.293  0.00  0.00    +0.000 HD
ATOM     12  H   UNL     1      49.737  11.988  11.577  0.00  0.00    +0.000 HD
ENDBRANCH   4   8
BRANCH   2  14
ATOM     13  C   UNL     1      49.033   6.940  16.619  0.00  0.00    +0.000 C 
ATOM     14  O   UNL     1      49.342   6.293  15.389  0.00  0.00    +0.000 OA
ENDBRANCH   2  14
ENDBRANCH   1   7
BRANCH   1  15
ATOM     15  C   UNL     1      46.109   5.181  13.940  0.00  0.00    +0.000 C 
BRANCH  15  16
ATOM     16  C   UNL     1      45.128   4.767  12.860  0.00  0.00    +0.000 A 
ATOM     17  N   UNL     1      43.816   4.993  13.073  0.00  0.00    +0.000 NA
ATOM     18  C   UNL     1      42.985   4.701  12.062  0.00  0.00    +0.000 A 
ATOM     19  C   UNL     1      43.408   4.217  10.846  0.00  0.00    +0.000 A 
ATOM     20  C   UNL     1      44.769   4.035  10.691  0.00  0.00    +0.000 A 
ATOM     21  N   UNL     1      45.635   4.296  11.698  0.00  0.00    +0.000 NA
BRANCH  20  22
ATOM     22  C   UNL     1      45.373   3.569   9.423  0.00  0.00    +0.000 A 
ATOM     23  C   UNL     1      45.497   2.197   9.122  0.00  0.00    +0.000 A 
ATOM     24  C   UNL     1      46.070   1.762   7.921  0.00  0.00    +0.000 A 
ATOM     25  C   UNL     1      46.526   2.694   6.995  0.00  0.00    +0.000 A 
ATOM     26 CL   UNL     1      47.232   2.158   5.522  0.00  0.00    +0.000 Cl
ATOM     27  C   UNL     1      46.408   4.055   7.256  0.00  0.00    +0.000 A 
ATOM     28  C   UNL     1      45.835   4.486   8.459  0.00  0.00    +0.000 A 
ENDBRANCH  20  22
ENDBRANCH  15  16
ENDBRANCH   1  15
TORSDOF 6
ENDMDL
MODEL 8
REMARK VINA RESULT:    -6.507      5.084      8.236
REMARK INTER + INTRA:          -9.952
REMARK INTER:                  -8.939
REMARK INTRA:                  -1.012
REMARK UNBOUND:                -1.162
REMARK  Name = 
REMARK  7 active torsions:
REMARK  status: ('A' for Active; 'I' for Inactive)
REMARK    1  A    between atoms: C_1  and  O_2
REMARK    2  A    between atoms: O_2  and  C_3
REMARK    3  A    between atoms: C_5  and  C_6
REMARK    4  A    between atoms: C_11  and  O_12
REMARK    5  A    between atoms: O_12  and  C_13
REMARK    6  A    between atoms: C_13  and  C_14
REMARK    7  A    between atoms: C_18  and  C_19
REMARK                            x       y       z     vdW  Elec       q    Type
REMARK                         _______ _______ _______ _____ _____    ______ ____
ROOT
ATOM      1  O   UNL     1      49.002   6.414  14.145  0.00  0.00    +0.000 OA
ENDROOT
BRANCH   1   7
ATOM      2  C   UNL     1      46.980   5.016  13.671  0.00  0.00    +0.000 A 
ATOM      3  C   UNL     1      45.702   5.019  13.089  0.00  0.00    +0.000 A 
ATOM      4  C   UNL     1      45.165   6.167  12.488  0.00  0.00    +0.000 A 
ATOM      5  C   UNL     1      45.919   7.340  12.482  0.00  0.00    +0.000 A 
ATOM      6  C   UNL     1      47.193   7.350  13.063  0.00  0.00    +0.000 A 
ATOM      7  C   UNL     1      47.738   6.199  13.655  0.00  0.00    +0.000 A 
BRANCH   4   8
ATOM      8  C   UNL     1      43.802   6.050  11.890  0.00  0.00    +0.000 C 
ATOM      9  N   UNL     1      43.267   7.128  11.253  0.00  0.00    +0.000 N 
ATOM     10  O   UNL     1      43.165   5.005  11.959  0.00  0.00    +0.000 OA
ATOM     11  H   UNL     1      43.713   8.024  11.142  0.00  0.00    +0.000 HD
ATOM     12  H   UNL     1      42.342   7.008  10.856  0.00  0.00    +0.000 HD
ENDBRANCH   4   8
BRANCH   2  14
ATOM     13  C   UNL     1      47.153   3.732  15.672  0.00  0.00    +0.000 C 
ATOM     14  O   UNL     1      47.485   3.910  14.299  0.00  0.00    +0.000 OA
ENDBRANCH   2  14
ENDBRANCH   1   7
BRANCH   1  15
ATOM     15  C   UNL     1      49.157   7.283  15.269  0.00  0.00    +0.000 C 
BRANCH  15  16
ATOM     16  C   UNL     1      49.233   6.497  16.565  0.00  0.00    +0.000 A 
ATOM     17  N   UNL     1      48.359   6.803  17.545  0.00  0.00    +0.000 NA
ATOM     18  C   UNL     1      48.392   6.031  18.641  0.00  0.00    +0.000 A 
ATOM     19  C   UNL     1      49.238   4.957  18.788  0.00  0.00    +0.000 A 
ATOM     20  C   UNL     1      50.087   4.687  17.731  0.00  0.00    +0.000 A 
ATOM     21  N   UNL     1      50.098   5.460  16.621  0.00  0.00    +0.000 NA
BRANCH  20  22
ATOM     22  C   UNL     1      51.016   3.535  17.728  0.00  0.00    +0.000 A 
ATOM     23  C   UNL     1      50.589   2.239  17.374  0.00  0.00    +0.000 A 
ATOM     24  C   UNL     1      51.472   1.153  17.374  0.00  0.00    +0.000 A 
ATOM     25  C   UNL     1      52.805   1.345  17.723  0.00  0.00    +0.000 A 
ATOM     26 CL   UNL     1      53.888   0.010  17.724  0.00  0.00    +0.000 Cl
ATOM     27  C   UNL     1      53.261   2.614  18.066  0.00  0.00    +0.000 A 
ATOM     28  C   UNL     1      52.374   3.697  18.065  0.00  0.00    +0.000 A 
ENDBRANCH  20  22
ENDBRANCH  15  16
ENDBRANCH   1  15
TORSDOF 6
ENDMDL
MODEL 9
REMARK VINA RESULT:    -6.412      5.452      8.333
REMARK INTER + INTRA:          -9.823
REMARK INTER:                  -9.146
REMARK INTRA:                  -0.677
REMARK UNBOUND:                -1.162
REMARK  Name = 
REMARK  7 active torsions:
REMARK  status: ('A' for Active; 'I' for Inactive)
REMARK    1  A    between atoms: C_1  and  O_2
REMARK    2  A    between atoms: O_2  and  C_3
REMARK    3  A    between atoms: C_5  and  C_6
REMARK    4  A    between atoms: C_11  and  O_12
REMARK    5  A    between atoms: O_12  and  C_13
REMARK    6  A    between atoms: C_13  and  C_14
REMARK    7  A    between atoms: C_18  and  C_19
REMARK                            x       y       z     vdW  Elec       q    Type
REMARK                         _______ _______ _______ _____ _____    ______ ____
ROOT
ATOM      1  O   UNL     1      47.405   4.262  14.419  0.00  0.00    +0.000 OA
ENDROOT
BRANCH   1   7
ATOM      2  C   UNL     1      45.333   4.908  13.174  0.00  0.00    +0.000 A 
ATOM      3  C   UNL     1      44.697   5.949  12.479  0.00  0.00    +0.000 A 
ATOM      4  C   UNL     1      45.301   7.204  12.314  0.00  0.00    +0.000 A 
ATOM      5  C   UNL     1      46.561   7.425  12.868  0.00  0.00    +0.000 A 
ATOM      6  C   UNL     1      47.202   6.395  13.567  0.00  0.00    +0.000 A 
ATOM      7  C   UNL     1      46.605   5.134  13.724  0.00  0.00    +0.000 A 
BRANCH   4   8
ATOM      8  C   UNL     1      44.538   8.232  11.545  0.00  0.00    +0.000 C 
ATOM      9  N   UNL     1      43.307   7.912  11.057  0.00  0.00    +0.000 N 
ATOM     10  O   UNL     1      44.996   9.354  11.353  0.00  0.00    +0.000 OA
ATOM     11  H   UNL     1      42.846   7.023  11.168  0.00  0.00    +0.000 HD
ATOM     12  H   UNL     1      42.819   8.638  10.547  0.00  0.00    +0.000 HD
ENDBRANCH   4   8
BRANCH   2  14
ATOM     13  C   UNL     1      43.715   3.313  12.447  0.00  0.00    +0.000 C 
ATOM     14  O   UNL     1      44.725   3.698  13.376  0.00  0.00    +0.000 OA
ENDBRANCH   2  14
ENDBRANCH   1   7
BRANCH   1  15
ATOM     15  C   UNL     1      47.148   4.067  15.812  0.00  0.00    +0.000 C 
BRANCH  15  16
ATOM     16  C   UNL     1      48.327   4.515  16.656  0.00  0.00    +0.000 A 
ATOM     17  N   UNL     1      48.225   5.686  17.318  0.00  0.00    +0.000 NA
ATOM     18  C   UNL     1      49.245   6.008  18.126  0.00  0.00    +0.000 A 
ATOM     19  C   UNL     1      50.345   5.206  18.319  0.00  0.00    +0.000 A 
ATOM     20  C   UNL     1      50.368   4.009  17.628  0.00  0.00    +0.000 A 
ATOM     21  N   UNL     1      49.368   3.662  16.785  0.00  0.00    +0.000 NA
BRANCH  20  22
ATOM     22  C   UNL     1      51.462   3.024  17.774  0.00  0.00    +0.000 A 
ATOM     23  C   UNL     1      51.304   1.677  17.387  0.00  0.00    +0.000 A 
ATOM     24  C   UNL     1      52.342   0.749  17.529  0.00  0.00    +0.000 A 
ATOM     25  C   UNL     1      53.563   1.153  18.058  0.00  0.00    +0.000 A 
ATOM     26 CL   UNL     1      54.836   0.011  18.234  0.00  0.00    +0.000 Cl
ATOM     27  C   UNL     1      53.756   2.476  18.440  0.00  0.00    +0.000 A 
ATOM     28  C   UNL     1      52.714   3.401  18.296  0.00  0.00    +0.000 A 
ENDBRANCH  20  22
ENDBRANCH  15  16
ENDBRANCH   1  15
TORSDOF 6
ENDMDL
