MODEL 1
REMARK VINA RESULT:    -7.241      0.000      0.000
REMARK INTER + INTRA:         -12.759
REMARK INTER:                 -11.050
REMARK INTRA:                  -1.708
REMARK UNBOUND:                -1.708
REMARK  Name = 
REMARK  10 active torsions:
REMARK  status: ('A' for Active; 'I' for Inactive)
REMARK    1  A    between atoms: C_1  and  C_2
REMARK    2  A    between atoms: C_2  and  C_3
REMARK    3  A    between atoms: C_2  and  C_18
REMARK    4  A    between atoms: C_3  and  O_4
REMARK    5  A    between atoms: O_4  and  C_5
REMARK    6  A    between atoms: C_8  and  C_9
REMARK    7  A    between atoms: C_12  and  O_13
REMARK    8  A    between atoms: O_13  and  C_14
REMARK    9  A    between atoms: C_14  and  C_15
REMARK   10  A    between atoms: C_22  and  C_23
REMARK                            x       y       z     vdW  Elec       q    Type
REMARK                         _______ _______ _______ _____ _____    ______ ____
ROOT
ATOM      1  C   UNL     1      44.813   5.980  12.451  0.00  0.00    +0.000 A 
ATOM      2  C   UNL     1      45.205   7.184  11.872  0.00  0.00    +0.000 A 
ATOM      3  C   UNL     1      46.516   7.634  12.014  0.00  0.00    +0.000 A 
ATOM      4  C   UNL     1      47.474   6.921  12.753  0.00  0.00    +0.000 A 
ATOM      5  C   UNL     1      47.088   5.716  13.366  0.00  0.00    +0.000 A 
ATOM      6  C   UNL     1      45.763   5.245  13.171  0.00  0.00    +0.000 A 
ENDROOT
BRANCH   4   7
ATOM      7  C   UNL     1      48.796   7.601  12.794  0.00  0.00    +0.000 C 
ATOM      8  N   UNL     1      49.819   7.058  13.511  0.00  0.00    +0.000 N 
ATOM      9  O   UNL     1      48.994   8.616  12.136  0.00  0.00    +0.000 OA
ATOM     10  H   UNL     1      49.771   6.158  13.971  0.00  0.00    +0.000 HD
ATOM     11  H   UNL     1      50.718   7.514  13.423  0.00  0.00    +0.000 HD
ENDBRANCH   4   7
BRANCH   1  12
ATOM     12  O   UNL     1      43.539   5.464  12.386  0.00  0.00    +0.000 OA
BRANCH  12  13
ATOM     13  C   UNL     1      43.102   5.057  11.079  0.00  0.00    +0.000 C 
BRANCH  13  15
ATOM     14  C   UNL     1      43.432   2.610  11.791  0.00  0.00    +0.000 C 
ATOM     15  C   UNL     1      43.593   3.672  10.749  0.00  0.00    +0.000 C 
BRANCH  15  16
ATOM     16  C   UNL     1      44.596   3.499   9.677  0.00  0.00    +0.000 A 
ATOM     17  C   UNL     1      45.120   4.613   9.007  0.00  0.00    +0.000 A 
ATOM     18  C   UNL     1      46.066   4.460   7.987  0.00  0.00    +0.000 A 
ATOM     19  C   UNL     1      46.504   3.188   7.620  0.00  0.00    +0.000 A 
ATOM     20  C   UNL     1      45.996   2.065   8.279  0.00  0.00    +0.000 A 
ATOM     21  C   UNL     1      45.046   2.224   9.296  0.00  0.00    +0.000 A 
BRANCH  20  22
ATOM     22  C   UNL     1      46.451   0.747   7.914  0.00  0.00    +0.000 C 
ATOM     23  N   UNL     1      46.824  -0.309   7.622  0.00  0.00    +0.000 NA
ENDBRANCH  20  22
ENDBRANCH  15  16
ENDBRANCH  13  15
ENDBRANCH  12  13
ENDBRANCH   1  12
BRANCH   5  24
ATOM     24  O   UNL     1      47.837   4.898  14.174  0.00  0.00    +0.000 OA
BRANCH  24  25
ATOM     25  C   UNL     1      47.215   4.422  15.375  0.00  0.00    +0.000 C 
BRANCH  25  26
ATOM     26  C   UNL     1      48.035   4.784  16.604  0.00  0.00    +0.000 C 
ATOM     27  F   UNL     1      48.367   6.103  16.558  0.00  0.00    +0.000 F 
ENDBRANCH  25  26
ENDBRANCH  24  25
ENDBRANCH   5  24
TORSDOF 9
ENDMDL
MODEL 2
REMARK VINA RESULT:    -7.089      1.912      2.964
REMARK INTER + INTRA:         -12.527
REMARK INTER:                 -10.966
REMARK INTRA:                  -1.561
REMARK UNBOUND:                -1.708
REMARK  Name = 
REMARK  10 active torsions:
REMARK  status: ('A' for Active; 'I' for Inactive)
REMARK    1  A    between atoms: C_1  and  C_2
REMARK    2  A    between atoms: C_2  and  C_3
REMARK    3  A    between atoms: C_2  and  C_18
REMARK    4  A    between atoms: C_3  and  O_4
REMARK    5  A    between atoms: O_4  and  C_5
REMARK    6  A    between atoms: C_8  and  C_9
REMARK    7  A    between atoms: C_12  and  O_13
REMARK    8  A    between atoms: O_13  and  C_14
REMARK    9  A    between atoms: C_14  and  C_15
REMARK   10  A    between atoms: C_22  and  C_23
REMARK                            x       y       z     vdW  Elec       q    Type
REMARK                         _______ _______ _______ _____ _____    ______ ____
ROOT
ATOM      1  C   UNL     1      44.808   5.503  12.966  0.00  0.00    +0.000 A 
ATOM      2  C   UNL     1      45.801   4.715  13.540  0.00  0.00    +0.000 A 
ATOM      3  C   UNL     1      47.101   5.203  13.657  0.00  0.00    +0.000 A 
ATOM      4  C   UNL     1      47.465   6.476  13.189  0.00  0.00    +0.000 A 
ATOM      5  C   UNL     1      46.479   7.275  12.584  0.00  0.00    +0.000 A 
ATOM      6  C   UNL     1      45.149   6.785  12.516  0.00  0.00    +0.000 A 
ENDROOT
BRANCH   4   7
ATOM      7  C   UNL     1      48.907   6.776  13.392  0.00  0.00    +0.000 C 
ATOM      8  N   UNL     1      49.650   7.277  12.367  0.00  0.00    +0.000 N 
ATOM      9  O   UNL     1      49.422   6.635  14.497  0.00  0.00    +0.000 OA
ATOM     10  H   UNL     1      49.266   7.541  11.468  0.00  0.00    +0.000 HD
ATOM     11  H   UNL     1      50.597   7.549  12.592  0.00  0.00    +0.000 HD
ENDBRANCH   4   7
BRANCH   1  12
ATOM     12  O   UNL     1      43.503   5.104  12.787  0.00  0.00    +0.000 OA
BRANCH  12  13
ATOM     13  C   UNL     1      43.103   4.888  11.424  0.00  0.00    +0.000 C 
BRANCH  13  15
ATOM     14  C   UNL     1      43.370   2.371  11.866  0.00  0.00    +0.000 C 
ATOM     15  C   UNL     1      43.542   3.532  10.938  0.00  0.00    +0.000 C 
BRANCH  15  16
ATOM     16  C   UNL     1      44.516   3.443   9.829  0.00  0.00    +0.000 A 
ATOM     17  C   UNL     1      44.959   4.603   9.177  0.00  0.00    +0.000 A 
ATOM     18  C   UNL     1      45.877   4.530   8.123  0.00  0.00    +0.000 A 
ATOM     19  C   UNL     1      46.368   3.295   7.703  0.00  0.00    +0.000 A 
ATOM     20  C   UNL     1      45.942   2.127   8.343  0.00  0.00    +0.000 A 
ATOM     21  C   UNL     1      45.020   2.206   9.394  0.00  0.00    +0.000 A 
BRANCH  20  22
ATOM     22  C   UNL     1      46.452   0.846   7.924  0.00  0.00    +0.000 C 
ATOM     23  N   UNL     1      46.866  -0.183   7.595  0.00  0.00    +0.000 NA
ENDBRANCH  20  22
ENDBRANCH  15  16
ENDBRANCH  13  15
ENDBRANCH  12  13
ENDBRANCH   1  12
BRANCH   5  24
ATOM     24  O   UNL     1      46.628   8.513  12.009  0.00  0.00    +0.000 OA
BRANCH  24  25
ATOM     25  C   UNL     1      45.857   9.586  12.567  0.00  0.00    +0.000 C 
BRANCH  25  26
ATOM     26  C   UNL     1      45.012  10.271  11.502  0.00  0.00    +0.000 C 
ATOM     27  F   UNL     1      44.480   9.334  10.671  0.00  0.00    +0.000 F 
ENDBRANCH  25  26
ENDBRANCH  24  25
ENDBRANCH   5  24
TORSDOF 9
ENDMDL
MODEL 3
REMARK VINA RESULT:    -6.099      1.987      2.505
REMARK INTER + INTRA:         -11.016
REMARK INTER:                  -9.881
REMARK INTRA:                  -1.135
REMARK UNBOUND:                -1.708
REMARK  Name = 
REMARK  10 active torsions:
REMARK  status: ('A' for Active; 'I' for Inactive)
REMARK    1  A    between atoms: C_1  and  C_2
REMARK    2  A    between atoms: C_2  and  C_3
REMARK    3  A    between atoms: C_2  and  C_18
REMARK    4  A    between atoms: C_3  and  O_4
REMARK    5  A    between atoms: O_4  and  C_5
REMARK    6  A    between atoms: C_8  and  C_9
REMARK    7  A    between atoms: C_12  and  O_13
REMARK    8  A    between atoms: O_13  and  C_14
REMARK    9  A    between atoms: C_14  and  C_15
REMARK   10  A    between atoms: C_22  and  C_23
REMARK                            x       y       z     vdW  Elec       q    Type
REMARK                         _______ _______ _______ _____ _____    ______ ____
ROOT
ATOM      1  C   UNL     1      46.877   4.647  13.638  0.00  0.00    +0.000 A 
ATOM      2  C   UNL     1      47.553   5.818  13.308  0.00  0.00    +0.000 A 
ATOM      3  C   UNL     1      48.271   6.509  14.282  0.00  0.00    +0.000 A 
ATOM      4  C   UNL     1      48.323   6.077  15.618  0.00  0.00    +0.000 A 
ATOM      5  C   UNL     1      47.624   4.909  15.973  0.00  0.00    +0.000 A 
ATOM      6  C   UNL     1      46.939   4.189  14.959  0.00  0.00    +0.000 A 
ENDROOT
BRANCH   4   7
ATOM      7  C   UNL     1      49.121   6.981  16.487  0.00  0.00    +0.000 C 
ATOM      8  N   UNL     1      49.197   6.747  17.827  0.00  0.00    +0.000 N 
ATOM      9  O   UNL     1      49.767   7.903  15.999  0.00  0.00    +0.000 OA
ATOM     10  H   UNL     1      48.800   5.934  18.281  0.00  0.00    +0.000 HD
ATOM     11  H   UNL     1      49.830   7.338  18.349  0.00  0.00    +0.000 HD
ENDBRANCH   4   7
BRANCH   1  12
ATOM     12  O   UNL     1      46.125   3.908  12.754  0.00  0.00    +0.000 OA
BRANCH  12  13
ATOM     13  C   UNL     1      44.885   4.506  12.343  0.00  0.00    +0.000 C 
BRANCH  13  15
ATOM     14  C   UNL     1      43.161   2.773  11.551  0.00  0.00    +0.000 C 
ATOM     15  C   UNL     1      44.257   3.734  11.213  0.00  0.00    +0.000 C 
BRANCH  15  16
ATOM     16  C   UNL     1      45.002   3.576   9.946  0.00  0.00    +0.000 A 
ATOM     17  C   UNL     1      45.322   4.696   9.165  0.00  0.00    +0.000 A 
ATOM     18  C   UNL     1      46.023   4.558   7.961  0.00  0.00    +0.000 A 
ATOM     19  C   UNL     1      46.415   3.296   7.518  0.00  0.00    +0.000 A 
ATOM     20  C   UNL     1      46.110   2.167   8.285  0.00  0.00    +0.000 A 
ATOM     21  C   UNL     1      45.405   2.311   9.486  0.00  0.00    +0.000 A 
BRANCH  20  22
ATOM     22  C   UNL     1      46.522   0.859   7.840  0.00  0.00    +0.000 C 
ATOM     23  N   UNL     1      46.857  -0.186   7.477  0.00  0.00    +0.000 NA
ENDBRANCH  20  22
ENDBRANCH  15  16
ENDBRANCH  13  15
ENDBRANCH  12  13
ENDBRANCH   1  12
BRANCH   5  24
ATOM     24  O   UNL     1      47.491   4.347  17.218  0.00  0.00    +0.000 OA
BRANCH  24  25
ATOM     25  C   UNL     1      47.864   2.969  17.353  0.00  0.00    +0.000 C 
BRANCH  25  26
ATOM     26  C   UNL     1      49.377   2.805  17.367  0.00  0.00    +0.000 C 
ATOM     27  F   UNL     1      49.739   1.846  16.472  0.00  0.00    +0.000 F 
ENDBRANCH  25  26
ENDBRANCH  24  25
ENDBRANCH   5  24
TORSDOF 9
ENDMDL
MODEL 4
REMARK VINA RESULT:    -5.961      1.940      2.911
REMARK INTER + INTRA:         -10.805
REMARK INTER:                  -9.819
REMARK INTRA:                  -0.986
REMARK UNBOUND:                -1.708
REMARK  Name = 
REMARK  10 active torsions:
REMARK  status: ('A' for Active; 'I' for Inactive)
REMARK    1  A    between atoms: C_1  and  C_2
REMARK    2  A    between atoms: C_2  and  C_3
REMARK    3  A    between atoms: C_2  and  C_18
REMARK    4  A    between atoms: C_3  and  O_4
REMARK    5  A    between atoms: O_4  and  C_5
REMARK    6  A    between atoms: C_8  and  C_9
REMARK    7  A    between atoms: C_12  and  O_13
REMARK    8  A    between atoms: O_13  and  C_14
REMARK    9  A    between atoms: C_14  and  C_15
REMARK   10  A    between atoms: C_22  and  C_23
REMARK                            x       y       z     vdW  Elec       q    Type
REMARK                         _______ _______ _______ _____ _____    ______ ____
ROOT
ATOM      1  C   UNL     1      46.188   4.920  13.688  0.00  0.00    +0.000 A 
ATOM      2  C   UNL     1      46.855   4.440  14.811  0.00  0.00    +0.000 A 
ATOM      3  C   UNL     1      47.877   5.189  15.392  0.00  0.00    +0.000 A 
ATOM      4  C   UNL     1      48.286   6.426  14.865  0.00  0.00    +0.000 A 
ATOM      5  C   UNL     1      47.639   6.913  13.716  0.00  0.00    +0.000 A 
ATOM      6  C   UNL     1      46.568   6.162  13.166  0.00  0.00    +0.000 A 
ENDROOT
BRANCH   4   7
ATOM      7  C   UNL     1      49.409   7.034  15.627  0.00  0.00    +0.000 C 
ATOM      8  N   UNL     1      49.151   7.836  16.697  0.00  0.00    +0.000 N 
ATOM      9  O   UNL     1      50.572   6.769  15.339  0.00  0.00    +0.000 OA
ATOM     10  H   UNL     1      48.225   7.995  17.073  0.00  0.00    +0.000 HD
ATOM     11  H   UNL     1      49.954   8.142  17.230  0.00  0.00    +0.000 HD
ENDBRANCH   4   7
BRANCH   1  12
ATOM     12  O   UNL     1      45.183   4.245  13.032  0.00  0.00    +0.000 OA
BRANCH  12  13
ATOM     13  C   UNL     1      44.789   4.799  11.766  0.00  0.00    +0.000 C 
BRANCH  13  15
ATOM     14  C   UNL     1      43.369   2.694  11.374  0.00  0.00    +0.000 C 
ATOM     15  C   UNL     1      44.309   3.723  10.829  0.00  0.00    +0.000 C 
BRANCH  15  16
ATOM     16  C   UNL     1      45.091   3.427   9.610  0.00  0.00    +0.000 A 
ATOM     17  C   UNL     1      45.517   4.465   8.769  0.00  0.00    +0.000 A 
ATOM     18  C   UNL     1      46.254   4.195   7.610  0.00  0.00    +0.000 A 
ATOM     19  C   UNL     1      46.577   2.881   7.272  0.00  0.00    +0.000 A 
ATOM     20  C   UNL     1      46.165   1.833   8.100  0.00  0.00    +0.000 A 
ATOM     21  C   UNL     1      45.424   2.108   9.257  0.00  0.00    +0.000 A 
BRANCH  20  22
ATOM     22  C   UNL     1      46.503   0.473   7.766  0.00  0.00    +0.000 C 
ATOM     23  N   UNL     1      46.783  -0.618   7.500  0.00  0.00    +0.000 NA
ENDBRANCH  20  22
ENDBRANCH  15  16
ENDBRANCH  13  15
ENDBRANCH  12  13
ENDBRANCH   1  12
BRANCH   5  24
ATOM     24  O   UNL     1      47.917   8.056  13.008  0.00  0.00    +0.000 OA
BRANCH  24  25
ATOM     25  C   UNL     1      48.562   7.894  11.738  0.00  0.00    +0.000 C 
BRANCH  25  26
ATOM     26  C   UNL     1      50.073   7.810  11.893  0.00  0.00    +0.000 C 
ATOM     27  F   UNL     1      50.622   7.321  10.748  0.00  0.00    +0.000 F 
ENDBRANCH  25  26
ENDBRANCH  24  25
ENDBRANCH   5  24
TORSDOF 9
ENDMDL
MODEL 5
REMARK VINA RESULT:    -5.877      3.479      7.478
REMARK INTER + INTRA:         -10.677
REMARK INTER:                  -9.648
REMARK INTRA:                  -1.029
REMARK UNBOUND:                -1.708
REMARK  Name = 
REMARK  10 active torsions:
REMARK  status: ('A' for Active; 'I' for Inactive)
REMARK    1  A    between atoms: C_1  and  C_2
REMARK    2  A    between atoms: C_2  and  C_3
REMARK    3  A    between atoms: C_2  and  C_18
REMARK    4  A    between atoms: C_3  and  O_4
REMARK    5  A    between atoms: O_4  and  C_5
REMARK    6  A    between atoms: C_8  and  C_9
REMARK    7  A    between atoms: C_12  and  O_13
REMARK    8  A    between atoms: O_13  and  C_14
REMARK    9  A    between atoms: C_14  and  C_15
REMARK   10  A    between atoms: C_22  and  C_23
REMARK                            x       y       z     vdW  Elec       q    Type
REMARK                         _______ _______ _______ _____ _____    ______ ____
ROOT
ATOM      1  C   UNL     1      46.512   3.908  13.605  0.00  0.00    +0.000 A 
ATOM      2  C   UNL     1      45.752   3.123  12.742  0.00  0.00    +0.000 A 
ATOM      3  C   UNL     1      44.813   3.715  11.900  0.00  0.00    +0.000 A 
ATOM      4  C   UNL     1      44.579   5.100  11.900  0.00  0.00    +0.000 A 
ATOM      5  C   UNL     1      45.321   5.905  12.783  0.00  0.00    +0.000 A 
ATOM      6  C   UNL     1      46.308   5.294  13.600  0.00  0.00    +0.000 A 
ENDROOT
BRANCH   4   7
ATOM      7  C   UNL     1      43.516   5.506  10.944  0.00  0.00    +0.000 C 
ATOM      8  N   UNL     1      42.716   6.571  11.227  0.00  0.00    +0.000 N 
ATOM      9  O   UNL     1      43.393   4.930   9.868  0.00  0.00    +0.000 OA
ATOM     10  H   UNL     1      42.842   7.174  12.030  0.00  0.00    +0.000 HD
ATOM     11  H   UNL     1      42.077   6.857  10.497  0.00  0.00    +0.000 HD
ENDBRANCH   4   7
BRANCH   1  12
ATOM     12  O   UNL     1      47.446   3.416  14.488  0.00  0.00    +0.000 OA
BRANCH  12  13
ATOM     13  C   UNL     1      47.526   4.099  15.749  0.00  0.00    +0.000 C 
BRANCH  13  15
ATOM     14  C   UNL     1      47.142   2.579  17.785  0.00  0.00    +0.000 C 
ATOM     15  C   UNL     1      48.097   3.203  16.816  0.00  0.00    +0.000 C 
BRANCH  15  16
ATOM     16  C   UNL     1      49.526   3.329  17.175  0.00  0.00    +0.000 A 
ATOM     17  C   UNL     1      50.112   4.593  17.329  0.00  0.00    +0.000 A 
ATOM     18  C   UNL     1      51.465   4.723  17.664  0.00  0.00    +0.000 A 
ATOM     19  C   UNL     1      52.254   3.590  17.851  0.00  0.00    +0.000 A 
ATOM     20  C   UNL     1      51.687   2.320  17.706  0.00  0.00    +0.000 A 
ATOM     21  C   UNL     1      50.334   2.196  17.367  0.00  0.00    +0.000 A 
BRANCH  20  22
ATOM     22  C   UNL     1      52.493   1.142  17.908  0.00  0.00    +0.000 C 
ATOM     23  N   UNL     1      53.135   0.195  18.078  0.00  0.00    +0.000 NA
ENDBRANCH  20  22
ENDBRANCH  15  16
ENDBRANCH  13  15
ENDBRANCH  12  13
ENDBRANCH   1  12
BRANCH   5  24
ATOM     24  O   UNL     1      45.212   7.258  12.989  0.00  0.00    +0.000 OA
BRANCH  24  25
ATOM     25  C   UNL     1      45.933   8.112  12.092  0.00  0.00    +0.000 C 
BRANCH  25  26
ATOM     26  C   UNL     1      47.188   8.670  12.748  0.00  0.00    +0.000 C 
ATOM     27  F   UNL     1      46.953   8.887  14.071  0.00  0.00    +0.000 F 
ENDBRANCH  25  26
ENDBRANCH  24  25
ENDBRANCH   5  24
TORSDOF 9
ENDMDL
MODEL 6
REMARK VINA RESULT:    -5.873      2.181      3.531
REMARK INTER + INTRA:         -10.672
REMARK INTER:                  -9.384
REMARK INTRA:                  -1.288
REMARK UNBOUND:                -1.708
REMARK  Name = 
REMARK  10 active torsions:
REMARK  status: ('A' for Active; 'I' for Inactive)
REMARK    1  A    between atoms: C_1  and  C_2
REMARK    2  A    between atoms: C_2  and  C_3
REMARK    3  A    between atoms: C_2  and  C_18
REMARK    4  A    between atoms: C_3  and  O_4
REMARK    5  A    between atoms: O_4  and  C_5
REMARK    6  A    between atoms: C_8  and  C_9
REMARK    7  A    between atoms: C_12  and  O_13
REMARK    8  A    between atoms: O_13  and  C_14
REMARK    9  A    between atoms: C_14  and  C_15
REMARK   10  A    between atoms: C_22  and  C_23
REMARK                            x       y       z     vdW  Elec       q    Type
REMARK                         _______ _______ _______ _____ _____    ______ ____
ROOT
ATOM      1  C   UNL     1      46.778   5.446  12.837  0.00  0.00    +0.000 A 
ATOM      2  C   UNL     1      46.351   4.201  13.291  0.00  0.00    +0.000 A 
ATOM      3  C   UNL     1      46.643   3.792  14.590  0.00  0.00    +0.000 A 
ATOM      4  C   UNL     1      47.387   4.591  15.475  0.00  0.00    +0.000 A 
ATOM      5  C   UNL     1      47.847   5.841  15.024  0.00  0.00    +0.000 A 
ATOM      6  C   UNL     1      47.499   6.265  13.715  0.00  0.00    +0.000 A 
ENDROOT
BRANCH   4   7
ATOM      7  C   UNL     1      47.602   3.944  16.796  0.00  0.00    +0.000 C 
ATOM      8  N   UNL     1      48.759   4.162  17.481  0.00  0.00    +0.000 N 
ATOM      9  O   UNL     1      46.719   3.263  17.306  0.00  0.00    +0.000 OA
ATOM     10  H   UNL     1      49.476   4.812  17.185  0.00  0.00    +0.000 HD
ATOM     11  H   UNL     1      48.807   3.772  18.413  0.00  0.00    +0.000 HD
ENDBRANCH   4   7
BRANCH   1  12
ATOM     12  O   UNL     1      46.558   5.930  11.568  0.00  0.00    +0.000 OA
BRANCH  12  13
ATOM     13  C   UNL     1      45.352   6.691  11.394  0.00  0.00    +0.000 C 
BRANCH  13  15
ATOM     14  C   UNL     1      42.915   5.925  11.670  0.00  0.00    +0.000 C 
ATOM     15  C   UNL     1      44.216   5.812  10.940  0.00  0.00    +0.000 C 
BRANCH  15  16
ATOM     16  C   UNL     1      44.516   4.590  10.164  0.00  0.00    +0.000 A 
ATOM     17  C   UNL     1      44.092   3.335  10.622  0.00  0.00    +0.000 A 
ATOM     18  C   UNL     1      44.374   2.171   9.897  0.00  0.00    +0.000 A 
ATOM     19  C   UNL     1      45.086   2.245   8.701  0.00  0.00    +0.000 A 
ATOM     20  C   UNL     1      45.513   3.488   8.225  0.00  0.00    +0.000 A 
ATOM     21  C   UNL     1      45.232   4.648   8.956  0.00  0.00    +0.000 A 
BRANCH  20  22
ATOM     22  C   UNL     1      46.240   3.575   6.983  0.00  0.00    +0.000 C 
ATOM     23  N   UNL     1      46.821   3.653   5.986  0.00  0.00    +0.000 NA
ENDBRANCH  20  22
ENDBRANCH  15  16
ENDBRANCH  13  15
ENDBRANCH  12  13
ENDBRANCH   1  12
BRANCH   5  24
ATOM     24  O   UNL     1      48.632   6.746  15.694  0.00  0.00    +0.000 OA
BRANCH  24  25
ATOM     25  C   UNL     1      49.851   7.148  15.054  0.00  0.00    +0.000 C 
BRANCH  25  26
ATOM     26  C   UNL     1      51.014   7.152  16.035  0.00  0.00    +0.000 C 
ATOM     27  F   UNL     1      51.299   5.875  16.409  0.00  0.00    +0.000 F 
ENDBRANCH  25  26
ENDBRANCH  24  25
ENDBRANCH   5  24
TORSDOF 9
ENDMDL
MODEL 7
REMARK VINA RESULT:    -5.829      2.488      4.744
REMARK INTER + INTRA:         -10.604
REMARK INTER:                  -9.216
REMARK INTRA:                  -1.388
REMARK UNBOUND:                -1.708
REMARK  Name = 
REMARK  10 active torsions:
REMARK  status: ('A' for Active; 'I' for Inactive)
REMARK    1  A    between atoms: C_1  and  C_2
REMARK    2  A    between atoms: C_2  and  C_3
REMARK    3  A    between atoms: C_2  and  C_18
REMARK    4  A    between atoms: C_3  and  O_4
REMARK    5  A    between atoms: O_4  and  C_5
REMARK    6  A    between atoms: C_8  and  C_9
REMARK    7  A    between atoms: C_12  and  O_13
REMARK    8  A    between atoms: O_13  and  C_14
REMARK    9  A    between atoms: C_14  and  C_15
REMARK   10  A    between atoms: C_22  and  C_23
REMARK                            x       y       z     vdW  Elec       q    Type
REMARK                         _______ _______ _______ _____ _____    ______ ____
ROOT
ATOM      1  C   UNL     1      47.918   6.188  14.488  0.00  0.00    +0.000 A 
ATOM      2  C   UNL     1      47.165   5.019  14.424  0.00  0.00    +0.000 A 
ATOM      3  C   UNL     1      47.107   4.163  15.521  0.00  0.00    +0.000 A 
ATOM      4  C   UNL     1      47.811   4.423  16.708  0.00  0.00    +0.000 A 
ATOM      5  C   UNL     1      48.598   5.586  16.781  0.00  0.00    +0.000 A 
ATOM      6  C   UNL     1      48.607   6.474  15.673  0.00  0.00    +0.000 A 
ENDROOT
BRANCH   4   7
ATOM      7  C   UNL     1      47.626   3.362  17.734  0.00  0.00    +0.000 C 
ATOM      8  N   UNL     1      48.471   3.290  18.799  0.00  0.00    +0.000 N 
ATOM      9  O   UNL     1      46.678   2.587  17.663  0.00  0.00    +0.000 OA
ATOM     10  H   UNL     1      49.194   3.971  18.993  0.00  0.00    +0.000 HD
ATOM     11  H   UNL     1      48.238   2.610  19.510  0.00  0.00    +0.000 HD
ENDBRANCH   4   7
BRANCH   1  12
ATOM     12  O   UNL     1      48.056   7.084  13.452  0.00  0.00    +0.000 OA
BRANCH  12  13
ATOM     13  C   UNL     1      47.582   6.630  12.173  0.00  0.00    +0.000 C 
BRANCH  13  15
ATOM     14  C   UNL     1      45.713   8.382  12.373  0.00  0.00    +0.000 C 
ATOM     15  C   UNL     1      46.140   7.007  11.964  0.00  0.00    +0.000 C 
BRANCH  15  16
ATOM     16  C   UNL     1      45.127   5.939  11.826  0.00  0.00    +0.000 A 
ATOM     17  C   UNL     1      43.979   5.939  12.630  0.00  0.00    +0.000 A 
ATOM     18  C   UNL     1      43.017   4.929  12.511  0.00  0.00    +0.000 A 
ATOM     19  C   UNL     1      43.188   3.901  11.585  0.00  0.00    +0.000 A 
ATOM     20  C   UNL     1      44.324   3.886  10.770  0.00  0.00    +0.000 A 
ATOM     21  C   UNL     1      45.286   4.896  10.897  0.00  0.00    +0.000 A 
BRANCH  20  22
ATOM     22  C   UNL     1      44.505   2.834   9.802  0.00  0.00    +0.000 C 
ATOM     23  N   UNL     1      44.642   1.992   9.021  0.00  0.00    +0.000 NA
ENDBRANCH  20  22
ENDBRANCH  15  16
ENDBRANCH  13  15
ENDBRANCH  12  13
ENDBRANCH   1  12
BRANCH   5  24
ATOM     24  O   UNL     1      49.406   6.000  17.810  0.00  0.00    +0.000 OA
BRANCH  24  25
ATOM     25  C   UNL     1      49.061   7.234  18.453  0.00  0.00    +0.000 C 
BRANCH  25  26
ATOM     26  C   UNL     1      47.760   7.106  19.232  0.00  0.00    +0.000 C 
ATOM     27  F   UNL     1      46.905   8.096  18.856  0.00  0.00    +0.000 F 
ENDBRANCH  25  26
ENDBRANCH  24  25
ENDBRANCH   5  24
TORSDOF 9
ENDMDL
MODEL 8
REMARK VINA RESULT:    -5.767      3.116      7.416
REMARK INTER + INTRA:         -10.510
REMARK INTER:                  -9.378
REMARK INTRA:                  -1.132
REMARK UNBOUND:                -1.708
REMARK  Name = 
REMARK  10 active torsions:
REMARK  status: ('A' for Active; 'I' for Inactive)
REMARK    1  A    between atoms: C_1  and  C_2
REMARK    2  A    between atoms: C_2  and  C_3
REMARK    3  A    between atoms: C_2  and  C_18
REMARK    4  A    between atoms: C_3  and  O_4
REMARK    5  A    between atoms: O_4  and  C_5
REMARK    6  A    between atoms: C_8  and  C_9
REMARK    7  A    between atoms: C_12  and  O_13
REMARK    8  A    between atoms: O_13  and  C_14
REMARK    9  A    between atoms: C_14  and  C_15
REMARK   10  A    between atoms: C_22  and  C_23
REMARK                            x       y       z     vdW  Elec       q    Type
REMARK                         _______ _______ _______ _____ _____    ______ ____
ROOT
ATOM      1  C   UNL     1      46.314   6.586  11.913  0.00  0.00    +0.000 A 
ATOM      2  C   UNL     1      45.896   5.897  13.047  0.00  0.00    +0.000 A 
ATOM      3  C   UNL     1      45.162   4.719  12.920  0.00  0.00    +0.000 A 
ATOM      4  C   UNL     1      44.800   4.198  11.667  0.00  0.00    +0.000 A 
ATOM      5  C   UNL     1      45.194   4.895  10.511  0.00  0.00    +0.000 A 
ATOM      6  C   UNL     1      45.982   6.067  10.656  0.00  0.00    +0.000 A 
ENDROOT
BRANCH   4   7
ATOM      7  C   UNL     1      43.997   2.951  11.770  0.00  0.00    +0.000 C 
ATOM      8  N   UNL     1      43.889   2.119  10.697  0.00  0.00    +0.000 N 
ATOM      9  O   UNL     1      43.480   2.630  12.835  0.00  0.00    +0.000 OA
ATOM     10  H   UNL     1      44.392   2.250   9.829  0.00  0.00    +0.000 HD
ATOM     11  H   UNL     1      43.410   1.243  10.857  0.00  0.00    +0.000 HD
ENDBRANCH   4   7
BRANCH   1  12
ATOM     12  O   UNL     1      47.022   7.766  11.936  0.00  0.00    +0.000 OA
BRANCH  12  13
ATOM     13  C   UNL     1      47.449   8.208  13.234  0.00  0.00    +0.000 C 
BRANCH  13  15
ATOM     14  C   UNL     1      49.806   7.625  12.393  0.00  0.00    +0.000 C 
ATOM     15  C   UNL     1      48.846   7.735  13.537  0.00  0.00    +0.000 C 
BRANCH  15  16
ATOM     16  C   UNL     1      49.097   6.974  14.778  0.00  0.00    +0.000 A 
ATOM     17  C   UNL     1      50.265   7.193  15.523  0.00  0.00    +0.000 A 
ATOM     18  C   UNL     1      50.515   6.474  16.698  0.00  0.00    +0.000 A 
ATOM     19  C   UNL     1      49.600   5.522  17.147  0.00  0.00    +0.000 A 
ATOM     20  C   UNL     1      48.428   5.293  16.421  0.00  0.00    +0.000 A 
ATOM     21  C   UNL     1      48.185   6.012  15.244  0.00  0.00    +0.000 A 
BRANCH  20  22
ATOM     22  C   UNL     1      47.471   4.319  16.883  0.00  0.00    +0.000 C 
ATOM     23  N   UNL     1      46.710   3.531  17.254  0.00  0.00    +0.000 NA
ENDBRANCH  20  22
ENDBRANCH  15  16
ENDBRANCH  13  15
ENDBRANCH  12  13
ENDBRANCH   1  12
BRANCH   5  24
ATOM     24  O   UNL     1      44.900   4.601   9.203  0.00  0.00    +0.000 OA
BRANCH  24  25
ATOM     25  C   UNL     1      46.003   4.521   8.290  0.00  0.00    +0.000 C 
BRANCH  25  26
ATOM     26  C   UNL     1      45.808   3.395   7.285  0.00  0.00    +0.000 C 
ATOM     27  F   UNL     1      46.929   3.265   6.524  0.00  0.00    +0.000 F 
ENDBRANCH  25  26
ENDBRANCH  24  25
ENDBRANCH   5  24
TORSDOF 9
ENDMDL
MODEL 9
REMARK VINA RESULT:    -5.701      3.772      7.049
REMARK INTER + INTRA:         -10.409
REMARK INTER:                  -8.883
REMARK INTRA:                  -1.526
REMARK UNBOUND:                -1.708
REMARK  Name = 
REMARK  10 active torsions:
REMARK  status: ('A' for Active; 'I' for Inactive)
REMARK    1  A    between atoms: C_1  and  C_2
REMARK    2  A    between atoms: C_2  and  C_3
REMARK    3  A    between atoms: C_2  and  C_18
REMARK    4  A    between atoms: C_3  and  O_4
REMARK    5  A    between atoms: O_4  and  C_5
REMARK    6  A    between atoms: C_8  and  C_9
REMARK    7  A    between atoms: C_12  and  O_13
REMARK    8  A    between atoms: O_13  and  C_14
REMARK    9  A    between atoms: C_14  and  C_15
REMARK   10  A    between atoms: C_22  and  C_23
REMARK                            x       y       z     vdW  Elec       q    Type
REMARK                         _______ _______ _______ _____ _____    ______ ____
ROOT
ATOM      1  C   UNL     1      47.859   6.756  13.804  0.00  0.00    +0.000 A 
ATOM      2  C   UNL     1      47.522   8.098  13.647  0.00  0.00    +0.000 A 
ATOM      3  C   UNL     1      46.417   8.456  12.879  0.00  0.00    +0.000 A 
ATOM      4  C   UNL     1      45.623   7.501  12.223  0.00  0.00    +0.000 A 
ATOM      5  C   UNL     1      45.964   6.143  12.351  0.00  0.00    +0.000 A 
ATOM      6  C   UNL     1      47.064   5.790  13.176  0.00  0.00    +0.000 A 
ENDROOT
BRANCH   4   7
ATOM      7  C   UNL     1      44.516   8.110  11.440  0.00  0.00    +0.000 C 
ATOM      8  N   UNL     1      43.426   7.364  11.106  0.00  0.00    +0.000 N 
ATOM      9  O   UNL     1      44.544   9.300  11.143  0.00  0.00    +0.000 OA
ATOM     10  H   UNL     1      43.272   6.416  11.425  0.00  0.00    +0.000 HD
ATOM     11  H   UNL     1      42.666   7.857  10.657  0.00  0.00    +0.000 HD
ENDBRANCH   4   7
BRANCH   1  12
ATOM     12  O   UNL     1      48.943   6.305  14.523  0.00  0.00    +0.000 OA
BRANCH  12  13
ATOM     13  C   UNL     1      49.420   7.191  15.548  0.00  0.00    +0.000 C 
BRANCH  13  15
ATOM     14  C   UNL     1      49.619   7.420  18.100  0.00  0.00    +0.000 C 
ATOM     15  C   UNL     1      49.131   6.640  16.919  0.00  0.00    +0.000 C 
BRANCH  15  16
ATOM     16  C   UNL     1      48.827   5.201  17.069  0.00  0.00    +0.000 A 
ATOM     17  C   UNL     1      47.499   4.762  17.165  0.00  0.00    +0.000 A 
ATOM     18  C   UNL     1      47.200   3.402  17.312  0.00  0.00    +0.000 A 
ATOM     19  C   UNL     1      48.225   2.459  17.366  0.00  0.00    +0.000 A 
ATOM     20  C   UNL     1      49.555   2.877  17.267  0.00  0.00    +0.000 A 
ATOM     21  C   UNL     1      49.849   4.239  17.125  0.00  0.00    +0.000 A 
BRANCH  20  22
ATOM     22  C   UNL     1      50.622   1.908  17.311  0.00  0.00    +0.000 C 
ATOM     23  N   UNL     1      51.481   1.134  17.338  0.00  0.00    +0.000 NA
ENDBRANCH  20  22
ENDBRANCH  15  16
ENDBRANCH  13  15
ENDBRANCH  12  13
ENDBRANCH   1  12
BRANCH   5  24
ATOM     24  O   UNL     1      45.369   5.060  11.753  0.00  0.00    +0.000 OA
BRANCH  24  25
ATOM     25  C   UNL     1      44.924   4.004  12.615  0.00  0.00    +0.000 C 
BRANCH  25  26
ATOM     26  C   UNL     1      43.408   4.000  12.746  0.00  0.00    +0.000 C 
ATOM     27  F   UNL     1      43.003   5.133  13.382  0.00  0.00    +0.000 F 
ENDBRANCH  25  26
ENDBRANCH  24  25
ENDBRANCH   5  24
TORSDOF 9
ENDMDL
