MODEL 1
REMARK VINA RESULT:    -7.752      0.000      0.000
REMARK INTER + INTRA:          -9.304
REMARK INTER:                  -9.338
REMARK INTRA:                   0.034
REMARK UNBOUND:                 0.034
REMARK  Name = 
REMARK  4 active torsions:
REMARK  status: ('A' for Active; 'I' for Inactive)
REMARK    1  A    between atoms: N_1  and  C_2
REMARK    2  A    between atoms: C_2  and  C_3
REMARK    3  A    between atoms: C_5  and  C_6
REMARK    4  A    between atoms: C_6  and  N_7
REMARK                            x       y       z     vdW  Elec       q    Type
REMARK                         _______ _______ _______ _____ _____    ______ ____
ROOT
ATOM      1  C   UNL     1      44.146   4.357   8.993  0.00  0.00    +0.000 C 
ENDROOT
BRANCH   1   2
ATOM      2  N   UNL     1      44.309   4.199  10.431  0.00  0.00    +0.000 N 
ATOM      3  C   UNL     1      43.569   3.326  11.190  0.00  0.00    +0.000 A 
ATOM      4  C   UNL     1      43.939   3.482  12.505  0.00  0.00    +0.000 A 
ATOM      5  C   UNL     1      44.954   4.475  12.551  0.00  0.00    +0.000 A 
ATOM      6  C   UNL     1      45.701   5.045  13.602  0.00  0.00    +0.000 A 
ATOM      7  C   UNL     1      46.668   6.012  13.312  0.00  0.00    +0.000 A 
ATOM      8  C   UNL     1      46.890   6.410  11.997  0.00  0.00    +0.000 A 
ATOM      9 CL   UNL     1      48.099   7.591  11.667  0.00  0.00    +0.000 Cl
ATOM     10  C   UNL     1      46.156   5.872  10.935  0.00  0.00    +0.000 A 
ATOM     11  C   UNL     1      45.182   4.901  11.236  0.00  0.00    +0.000 A 
ENDBRANCH   1   2
BRANCH   1  14
ATOM     12  C   UNL     1      46.610   2.241   7.116  0.00  0.00    +0.000 C 
ATOM     13  C   UNL     1      45.982   3.598   7.381  0.00  0.00    +0.000 C 
ATOM     14  C   UNL     1      44.760   3.215   8.192  0.00  0.00    +0.000 C 
ATOM     15  C   UNL     1      45.332   2.106   9.065  0.00  0.00    +0.000 C 
ATOM     16  O   UNL     1      46.332   1.433   8.282  0.00  0.00    +0.000 OA
BRANCH  12  17
ATOM     17  C   UNL     1      48.118   2.290   6.828  0.00  0.00    +0.000 C 
BRANCH  17  18
ATOM     18  N   UNL     1      48.438   1.951   5.437  0.00  0.00    +0.000 NA
ATOM     19  H   UNL     1      47.962   2.603   4.816  0.00  0.00    +0.000 HD
ATOM     20  H   UNL     1      48.035   1.030   5.248  0.00  0.00    +0.000 HD
ENDBRANCH  17  18
ENDBRANCH  12  17
ENDBRANCH   1  14
TORSDOF 4
ENDMDL
MODEL 2
REMARK VINA RESULT:    -6.981      3.387      5.702
REMARK INTER + INTRA:          -8.375
REMARK INTER:                  -7.851
REMARK INTRA:                  -0.524
REMARK UNBOUND:                 0.034
REMARK  Name = 
REMARK  4 active torsions:
REMARK  status: ('A' for Active; 'I' for Inactive)
REMARK    1  A    between atoms: N_1  and  C_2
REMARK    2  A    between atoms: C_2  and  C_3
REMARK    3  A    between atoms: C_5  and  C_6
REMARK    4  A    between atoms: C_6  and  N_7
REMARK                            x       y       z     vdW  Elec       q    Type
REMARK                         _______ _______ _______ _____ _____    ______ ____
ROOT
ATOM      1  C   UNL     1      44.386   6.532  11.399  0.00  0.00    +0.000 C 
ENDROOT
BRANCH   1   2
ATOM      2  N   UNL     1      44.112   5.120  11.172  0.00  0.00    +0.000 N 
ATOM      3  C   UNL     1      43.326   4.354  11.999  0.00  0.00    +0.000 A 
ATOM      4  C   UNL     1      43.335   3.064  11.525  0.00  0.00    +0.000 A 
ATOM      5  C   UNL     1      44.141   3.041  10.355  0.00  0.00    +0.000 A 
ATOM      6  C   UNL     1      44.511   2.020   9.456  0.00  0.00    +0.000 A 
ATOM      7  C   UNL     1      45.321   2.331   8.359  0.00  0.00    +0.000 A 
ATOM      8  C   UNL     1      45.760   3.636   8.158  0.00  0.00    +0.000 A 
ATOM      9 CL   UNL     1      46.743   3.993   6.790  0.00  0.00    +0.000 Cl
ATOM     10  C   UNL     1      45.419   4.667   9.040  0.00  0.00    +0.000 A 
ATOM     11  C   UNL     1      44.606   4.346  10.142  0.00  0.00    +0.000 A 
ENDBRANCH   1   2
BRANCH   1  14
ATOM     12  C   UNL     1      47.500   6.994  13.439  0.00  0.00    +0.000 C 
ATOM     13  C   UNL     1      46.718   6.209  12.399  0.00  0.00    +0.000 C 
ATOM     14  C   UNL     1      45.324   6.777  12.575  0.00  0.00    +0.000 C 
ATOM     15  C   UNL     1      45.641   8.250  12.796  0.00  0.00    +0.000 C 
ATOM     16  O   UNL     1      46.898   8.306  13.491  0.00  0.00    +0.000 OA
BRANCH  12  17
ATOM     17  C   UNL     1      49.006   7.090  13.153  0.00  0.00    +0.000 C 
BRANCH  17  18
ATOM     18  N   UNL     1      49.821   6.949  14.366  0.00  0.00    +0.000 NA
ATOM     19  H   UNL     1      49.275   7.247  15.171  0.00  0.00    +0.000 HD
ATOM     20  H   UNL     1      50.599   7.609  14.287  0.00  0.00    +0.000 HD
ENDBRANCH  17  18
ENDBRANCH  12  17
ENDBRANCH   1  14
TORSDOF 4
ENDMDL
MODEL 3
REMARK VINA RESULT:    -6.679      3.184      5.913
REMARK INTER + INTRA:          -8.012
REMARK INTER:                  -7.718
REMARK INTRA:                  -0.293
REMARK UNBOUND:                 0.034
REMARK  Name = 
REMARK  4 active torsions:
REMARK  status: ('A' for Active; 'I' for Inactive)
REMARK    1  A    between atoms: N_1  and  C_2
REMARK    2  A    between atoms: C_2  and  C_3
REMARK    3  A    between atoms: C_5  and  C_6
REMARK    4  A    between atoms: C_6  and  N_7
REMARK                            x       y       z     vdW  Elec       q    Type
REMARK                         _______ _______ _______ _____ _____    ______ ____
ROOT
ATOM      1  C   UNL     1      44.964   6.558  11.638  0.00  0.00    +0.000 C 
ENDROOT
BRANCH   1   2
ATOM      2  N   UNL     1      44.461   5.217  11.372  0.00  0.00    +0.000 N 
ATOM      3  C   UNL     1      43.613   4.541  12.215  0.00  0.00    +0.000 A 
ATOM      4  C   UNL     1      43.395   3.290  11.690  0.00  0.00    +0.000 A 
ATOM      5  C   UNL     1      44.121   3.202  10.472  0.00  0.00    +0.000 A 
ATOM      6  C   UNL     1      44.278   2.182   9.511  0.00  0.00    +0.000 A 
ATOM      7  C   UNL     1      45.064   2.418   8.380  0.00  0.00    +0.000 A 
ATOM      8  C   UNL     1      45.689   3.649   8.204  0.00  0.00    +0.000 A 
ATOM      9 CL   UNL     1      46.639   3.919   6.793  0.00  0.00    +0.000 Cl
ATOM     10  C   UNL     1      45.563   4.676   9.146  0.00  0.00    +0.000 A 
ATOM     11  C   UNL     1      44.771   4.429  10.283  0.00  0.00    +0.000 A 
ENDBRANCH   1   2
BRANCH   1  14
ATOM     12  C   UNL     1      48.169   7.359  13.416  0.00  0.00    +0.000 C 
ATOM     13  C   UNL     1      46.876   7.825  12.770  0.00  0.00    +0.000 C 
ATOM     14  C   UNL     1      46.437   6.577  12.031  0.00  0.00    +0.000 C 
ATOM     15  C   UNL     1      46.805   5.502  13.043  0.00  0.00    +0.000 C 
ATOM     16  O   UNL     1      47.980   5.961  13.731  0.00  0.00    +0.000 OA
BRANCH  12  17
ATOM     17  C   UNL     1      48.572   8.155  14.666  0.00  0.00    +0.000 C 
BRANCH  17  18
ATOM     18  N   UNL     1      47.481   8.995  15.176  0.00  0.00    +0.000 NA
ATOM     19  H   UNL     1      46.700   8.400  15.445  0.00  0.00    +0.000 HD
ATOM     20  H   UNL     1      47.150   9.568  14.397  0.00  0.00    +0.000 HD
ENDBRANCH  17  18
ENDBRANCH  12  17
ENDBRANCH   1  14
TORSDOF 4
ENDMDL
MODEL 4
REMARK VINA RESULT:    -6.439      1.590      2.135
REMARK INTER + INTRA:          -7.722
REMARK INTER:                  -7.607
REMARK INTRA:                  -0.115
REMARK UNBOUND:                 0.034
REMARK  Name = 
REMARK  4 active torsions:
REMARK  status: ('A' for Active; 'I' for Inactive)
REMARK    1  A    between atoms: N_1  and  C_2
REMARK    2  A    between atoms: C_2  and  C_3
REMARK    3  A    between atoms: C_5  and  C_6
REMARK    4  A    between atoms: C_6  and  N_7
REMARK                            x       y       z     vdW  Elec       q    Type
REMARK                         _______ _______ _______ _____ _____    ______ ____
ROOT
ATOM      1  C   UNL     1      43.687   4.661  11.215  0.00  0.00    +0.000 C 
ENDROOT
BRANCH   1   2
ATOM      2  N   UNL     1      44.905   4.722  12.011  0.00  0.00    +0.000 N 
ATOM      3  C   UNL     1      45.494   3.623  12.588  0.00  0.00    +0.000 A 
ATOM      4  C   UNL     1      46.581   4.050  13.312  0.00  0.00    +0.000 A 
ATOM      5  C   UNL     1      46.672   5.460  13.161  0.00  0.00    +0.000 A 
ATOM      6  C   UNL     1      47.565   6.430  13.660  0.00  0.00    +0.000 A 
ATOM      7  C   UNL     1      47.395   7.770  13.301  0.00  0.00    +0.000 A 
ATOM      8  C   UNL     1      46.351   8.144  12.459  0.00  0.00    +0.000 A 
ATOM      9 CL   UNL     1      46.174   9.800  12.020  0.00  0.00    +0.000 Cl
ATOM     10  C   UNL     1      45.442   7.206  11.958  0.00  0.00    +0.000 A 
ATOM     11  C   UNL     1      45.620   5.859  12.327  0.00  0.00    +0.000 A 
ENDBRANCH   1   2
BRANCH   1  14
ATOM     12  C   UNL     1      45.272   3.316   8.092  0.00  0.00    +0.000 C 
ATOM     13  C   UNL     1      45.055   4.464   9.063  0.00  0.00    +0.000 C 
ATOM     14  C   UNL     1      43.882   3.958   9.877  0.00  0.00    +0.000 C 
ATOM     15  C   UNL     1      44.244   2.486  10.017  0.00  0.00    +0.000 C 
ATOM     16  O   UNL     1      44.933   2.110   8.813  0.00  0.00    +0.000 OA
BRANCH  12  17
ATOM     17  C   UNL     1      46.694   3.233   7.520  0.00  0.00    +0.000 C 
BRANCH  17  18
ATOM     18  N   UNL     1      46.892   4.123   6.369  0.00  0.00    +0.000 NA
ATOM     19  H   UNL     1      46.255   4.914   6.446  0.00  0.00    +0.000 HD
ATOM     20  H   UNL     1      46.608   3.606   5.534  0.00  0.00    +0.000 HD
ENDBRANCH  17  18
ENDBRANCH  12  17
ENDBRANCH   1  14
TORSDOF 4
ENDMDL
MODEL 5
REMARK VINA RESULT:    -6.258      2.498      3.800
REMARK INTER + INTRA:          -7.505
REMARK INTER:                  -6.943
REMARK INTRA:                  -0.562
REMARK UNBOUND:                 0.034
REMARK  Name = 
REMARK  4 active torsions:
REMARK  status: ('A' for Active; 'I' for Inactive)
REMARK    1  A    between atoms: N_1  and  C_2
REMARK    2  A    between atoms: C_2  and  C_3
REMARK    3  A    between atoms: C_5  and  C_6
REMARK    4  A    between atoms: C_6  and  N_7
REMARK                            x       y       z     vdW  Elec       q    Type
REMARK                         _______ _______ _______ _____ _____    ______ ____
ROOT
ATOM      1  C   UNL     1      45.926   5.381  12.190  0.00  0.00    +0.000 C 
ENDROOT
BRANCH   1   2
ATOM      2  N   UNL     1      46.027   6.832  12.262  0.00  0.00    +0.000 N 
ATOM      3  C   UNL     1      44.967   7.655  12.557  0.00  0.00    +0.000 A 
ATOM      4  C   UNL     1      45.401   8.956  12.477  0.00  0.00    +0.000 A 
ATOM      5  C   UNL     1      46.780   8.930  12.138  0.00  0.00    +0.000 A 
ATOM      6  C   UNL     1      47.742   9.939  11.921  0.00  0.00    +0.000 A 
ATOM      7  C   UNL     1      49.058   9.579  11.614  0.00  0.00    +0.000 A 
ATOM      8  C   UNL     1      49.414   8.237  11.519  0.00  0.00    +0.000 A 
ATOM      9 CL   UNL     1      51.046   7.822  11.155  0.00  0.00    +0.000 Cl
ATOM     10  C   UNL     1      48.480   7.215  11.716  0.00  0.00    +0.000 A 
ATOM     11  C   UNL     1      47.157   7.586  12.023  0.00  0.00    +0.000 A 
ENDBRANCH   1   2
BRANCH   1  14
ATOM     12  C   UNL     1      44.793   4.096   8.852  0.00  0.00    +0.000 C 
ATOM     13  C   UNL     1      45.644   5.053   9.669  0.00  0.00    +0.000 C 
ATOM     14  C   UNL     1      45.038   4.899  11.049  0.00  0.00    +0.000 C 
ATOM     15  C   UNL     1      44.777   3.399  11.080  0.00  0.00    +0.000 C 
ATOM     16  O   UNL     1      44.455   3.004   9.736  0.00  0.00    +0.000 OA
BRANCH  12  17
ATOM     17  C   UNL     1      45.474   3.580   7.576  0.00  0.00    +0.000 C 
BRANCH  17  18
ATOM     18  N   UNL     1      46.720   4.294   7.272  0.00  0.00    +0.000 NA
ATOM     19  H   UNL     1      47.496   3.823   7.732  0.00  0.00    +0.000 HD
ATOM     20  H   UNL     1      46.651   5.220   7.702  0.00  0.00    +0.000 HD
ENDBRANCH  17  18
ENDBRANCH  12  17
ENDBRANCH   1  14
TORSDOF 4
ENDMDL
MODEL 6
REMARK VINA RESULT:    -6.073      2.651      4.331
REMARK INTER + INTRA:          -7.282
REMARK INTER:                  -6.993
REMARK INTRA:                  -0.289
REMARK UNBOUND:                 0.034
REMARK  Name = 
REMARK  4 active torsions:
REMARK  status: ('A' for Active; 'I' for Inactive)
REMARK    1  A    between atoms: N_1  and  C_2
REMARK    2  A    between atoms: C_2  and  C_3
REMARK    3  A    between atoms: C_5  and  C_6
REMARK    4  A    between atoms: C_6  and  N_7
REMARK                            x       y       z     vdW  Elec       q    Type
REMARK                         _______ _______ _______ _____ _____    ______ ____
ROOT
ATOM      1  C   UNL     1      45.260   5.385  13.212  0.00  0.00    +0.000 C 
ENDROOT
BRANCH   1   2
ATOM      2  N   UNL     1      46.380   6.271  12.927  0.00  0.00    +0.000 N 
ATOM      3  C   UNL     1      47.696   5.881  12.996  0.00  0.00    +0.000 A 
ATOM      4  C   UNL     1      48.482   6.977  12.730  0.00  0.00    +0.000 A 
ATOM      5  C   UNL     1      47.617   8.074  12.471  0.00  0.00    +0.000 A 
ATOM      6  C   UNL     1      47.843   9.427  12.147  0.00  0.00    +0.000 A 
ATOM      7  C   UNL     1      46.751  10.273  11.926  0.00  0.00    +0.000 A 
ATOM      8  C   UNL     1      45.453   9.783  12.029  0.00  0.00    +0.000 A 
ATOM      9 CL   UNL     1      44.126  10.843  11.737  0.00  0.00    +0.000 Cl
ATOM     10  C   UNL     1      45.197   8.449  12.363  0.00  0.00    +0.000 A 
ATOM     11  C   UNL     1      46.302   7.605  12.585  0.00  0.00    +0.000 A 
ENDBRANCH   1   2
BRANCH   1  14
ATOM     12  C   UNL     1      44.124   4.355   9.788  0.00  0.00    +0.000 C 
ATOM     13  C   UNL     1      45.124   5.074  10.676  0.00  0.00    +0.000 C 
ATOM     14  C   UNL     1      44.379   5.126  11.995  0.00  0.00    +0.000 C 
ATOM     15  C   UNL     1      43.724   3.752  12.007  0.00  0.00    +0.000 C 
ATOM     16  O   UNL     1      43.428   3.419  10.641  0.00  0.00    +0.000 OA
BRANCH  12  17
ATOM     17  C   UNL     1      44.751   3.640   8.582  0.00  0.00    +0.000 C 
BRANCH  17  18
ATOM     18  N   UNL     1      45.865   4.395   7.995  0.00  0.00    +0.000 NA
ATOM     19  H   UNL     1      46.623   3.753   7.774  0.00  0.00    +0.000 HD
ATOM     20  H   UNL     1      46.223   5.021   8.721  0.00  0.00    +0.000 HD
ENDBRANCH  17  18
ENDBRANCH  12  17
ENDBRANCH   1  14
TORSDOF 4
ENDMDL
MODEL 7
REMARK VINA RESULT:    -6.015      4.594      6.659
REMARK INTER + INTRA:          -7.212
REMARK INTER:                  -6.706
REMARK INTRA:                  -0.506
REMARK UNBOUND:                 0.034
REMARK  Name = 
REMARK  4 active torsions:
REMARK  status: ('A' for Active; 'I' for Inactive)
REMARK    1  A    between atoms: N_1  and  C_2
REMARK    2  A    between atoms: C_2  and  C_3
REMARK    3  A    between atoms: C_5  and  C_6
REMARK    4  A    between atoms: C_6  and  N_7
REMARK                            x       y       z     vdW  Elec       q    Type
REMARK                         _______ _______ _______ _____ _____    ______ ____
ROOT
ATOM      1  C   UNL     1      47.623   5.869  13.229  0.00  0.00    +0.000 C 
ENDROOT
BRANCH   1   2
ATOM      2  N   UNL     1      46.452   6.458  12.595  0.00  0.00    +0.000 N 
ATOM      3  C   UNL     1      46.322   7.800  12.332  0.00  0.00    +0.000 A 
ATOM      4  C   UNL     1      45.075   8.012  11.793  0.00  0.00    +0.000 A 
ATOM      5  C   UNL     1      44.424   6.752  11.706  0.00  0.00    +0.000 A 
ATOM      6  C   UNL     1      43.154   6.350  11.246  0.00  0.00    +0.000 A 
ATOM      7  C   UNL     1      42.809   4.996  11.273  0.00  0.00    +0.000 A 
ATOM      8  C   UNL     1      43.712   4.052  11.754  0.00  0.00    +0.000 A 
ATOM      9 CL   UNL     1      43.268   2.388  11.763  0.00  0.00    +0.000 Cl
ATOM     10  C   UNL     1      44.974   4.422  12.231  0.00  0.00    +0.000 A 
ATOM     11  C   UNL     1      45.312   5.788  12.201  0.00  0.00    +0.000 A 
ENDBRANCH   1   2
BRANCH   1  14
ATOM     12  C   UNL     1      47.654   4.086  16.529  0.00  0.00    +0.000 C 
ATOM     13  C   UNL     1      47.404   4.067  15.031  0.00  0.00    +0.000 C 
ATOM     14  C   UNL     1      47.408   5.547  14.703  0.00  0.00    +0.000 C 
ATOM     15  C   UNL     1      48.537   6.035  15.598  0.00  0.00    +0.000 C 
ATOM     16  O   UNL     1      48.517   5.217  16.780  0.00  0.00    +0.000 OA
BRANCH  12  17
ATOM     17  C   UNL     1      48.268   2.791  17.082  0.00  0.00    +0.000 C 
BRANCH  17  18
ATOM     18  N   UNL     1      49.040   2.057  16.072  0.00  0.00    +0.000 NA
ATOM     19  H   UNL     1      49.239   2.676  15.289  0.00  0.00    +0.000 HD
ATOM     20  H   UNL     1      48.435   1.317  15.707  0.00  0.00    +0.000 HD
ENDBRANCH  17  18
ENDBRANCH  12  17
ENDBRANCH   1  14
TORSDOF 4
ENDMDL
MODEL 8
REMARK VINA RESULT:    -5.912      5.107      8.141
REMARK INTER + INTRA:          -7.088
REMARK INTER:                  -6.714
REMARK INTRA:                  -0.374
REMARK UNBOUND:                 0.034
REMARK  Name = 
REMARK  4 active torsions:
REMARK  status: ('A' for Active; 'I' for Inactive)
REMARK    1  A    between atoms: N_1  and  C_2
REMARK    2  A    between atoms: C_2  and  C_3
REMARK    3  A    between atoms: C_5  and  C_6
REMARK    4  A    between atoms: C_6  and  N_7
REMARK                            x       y       z     vdW  Elec       q    Type
REMARK                         _______ _______ _______ _____ _____    ______ ____
ROOT
ATOM      1  C   UNL     1      47.102   4.327  15.569  0.00  0.00    +0.000 C 
ENDROOT
BRANCH   1   2
ATOM      2  N   UNL     1      47.153   5.139  14.362  0.00  0.00    +0.000 N 
ATOM      3  C   UNL     1      47.967   6.236  14.216  0.00  0.00    +0.000 A 
ATOM      4  C   UNL     1      47.715   6.797  12.987  0.00  0.00    +0.000 A 
ATOM      5  C   UNL     1      46.722   6.006  12.349  0.00  0.00    +0.000 A 
ATOM      6  C   UNL     1      46.076   6.088  11.098  0.00  0.00    +0.000 A 
ATOM      7  C   UNL     1      45.134   5.117  10.745  0.00  0.00    +0.000 A 
ATOM      8  C   UNL     1      44.835   4.079  11.622  0.00  0.00    +0.000 A 
ATOM      9 CL   UNL     1      43.682   2.887  11.156  0.00  0.00    +0.000 Cl
ATOM     10  C   UNL     1      45.449   3.978  12.875  0.00  0.00    +0.000 A 
ATOM     11  C   UNL     1      46.395   4.961  13.223  0.00  0.00    +0.000 A 
ENDBRANCH   1   2
BRANCH   1  14
ATOM     12  C   UNL     1      49.046   5.015  18.703  0.00  0.00    +0.000 C 
ATOM     13  C   UNL     1      47.854   5.308  17.808  0.00  0.00    +0.000 C 
ATOM     14  C   UNL     1      48.254   4.606  16.526  0.00  0.00    +0.000 C 
ATOM     15  C   UNL     1      48.896   3.342  17.082  0.00  0.00    +0.000 C 
ATOM     16  O   UNL     1      49.519   3.703  18.326  0.00  0.00    +0.000 OA
BRANCH  12  17
ATOM     17  C   UNL     1      48.736   5.078  20.206  0.00  0.00    +0.000 C 
BRANCH  17  18
ATOM     18  N   UNL     1      48.332   3.777  20.754  0.00  0.00    +0.000 NA
ATOM     19  H   UNL     1      47.656   3.925  21.501  0.00  0.00    +0.000 HD
ATOM     20  H   UNL     1      49.159   3.364  21.193  0.00  0.00    +0.000 HD
ENDBRANCH  17  18
ENDBRANCH  12  17
ENDBRANCH   1  14
TORSDOF 4
ENDMDL
MODEL 9
REMARK VINA RESULT:    -5.698      3.595      5.730
REMARK INTER + INTRA:          -6.830
REMARK INTER:                  -6.461
REMARK INTRA:                  -0.370
REMARK UNBOUND:                 0.034
REMARK  Name = 
REMARK  4 active torsions:
REMARK  status: ('A' for Active; 'I' for Inactive)
REMARK    1  A    between atoms: N_1  and  C_2
REMARK    2  A    between atoms: C_2  and  C_3
REMARK    3  A    between atoms: C_5  and  C_6
REMARK    4  A    between atoms: C_6  and  N_7
REMARK                            x       y       z     vdW  Elec       q    Type
REMARK                         _______ _______ _______ _____ _____    ______ ____
ROOT
ATOM      1  C   UNL     1      47.316   6.274  12.533  0.00  0.00    +0.000 C 
ENDROOT
BRANCH   1   2
ATOM      2  N   UNL     1      47.429   7.712  12.328  0.00  0.00    +0.000 N 
ATOM      3  C   UNL     1      46.382   8.588  12.483  0.00  0.00    +0.000 A 
ATOM      4  C   UNL     1      46.824   9.846  12.150  0.00  0.00    +0.000 A 
ATOM      5  C   UNL     1      48.196   9.740  11.794  0.00  0.00    +0.000 A 
ATOM      6  C   UNL     1      49.160  10.678  11.372  0.00  0.00    +0.000 A 
ATOM      7  C   UNL     1      50.466  10.252  11.112  0.00  0.00    +0.000 A 
ATOM      8  C   UNL     1      50.810   8.912  11.266  0.00  0.00    +0.000 A 
ATOM      9 CL   UNL     1      52.430   8.417  10.954  0.00  0.00    +0.000 Cl
ATOM     10  C   UNL     1      49.872   7.956  11.670  0.00  0.00    +0.000 A 
ATOM     11  C   UNL     1      48.559   8.394  11.928  0.00  0.00    +0.000 A 
ENDBRANCH   1   2
BRANCH   1  14
ATOM     12  C   UNL     1      44.163   4.372  11.814  0.00  0.00    +0.000 C 
ATOM     13  C   UNL     1      45.374   5.140  11.313  0.00  0.00    +0.000 C 
ATOM     14  C   UNL     1      45.871   5.791  12.588  0.00  0.00    +0.000 C 
ATOM     15  C   UNL     1      45.651   4.664  13.589  0.00  0.00    +0.000 C 
ATOM     16  O   UNL     1      44.484   3.945  13.157  0.00  0.00    +0.000 OA
BRANCH  12  17
ATOM     17  C   UNL     1      43.769   3.175  10.936  0.00  0.00    +0.000 C 
BRANCH  17  18
ATOM     18  N   UNL     1      43.052   2.137  11.686  0.00  0.00    +0.000 NA
ATOM     19  H   UNL     1      42.605   2.559  12.497  0.00  0.00    +0.000 HD
ATOM     20  H   UNL     1      43.754   1.488  12.051  0.00  0.00    +0.000 HD
ENDBRANCH  17  18
ENDBRANCH  12  17
ENDBRANCH   1  14
TORSDOF 4
ENDMDL
