MODEL 1
REMARK VINA RESULT:    -8.848      0.000      0.000
REMARK INTER + INTRA:         -12.078
REMARK INTER:                 -11.434
REMARK INTRA:                  -0.644
REMARK UNBOUND:                -0.644
REMARK  Name = 
REMARK  5 active torsions:
REMARK  status: ('A' for Active; 'I' for Inactive)
REMARK    1  A    between atoms: C_2  and  C_4
REMARK    2  A    between atoms: C_7  and  N_8
REMARK    3  A    between atoms: N_8  and  C_9
REMARK    4  A    between atoms: C_9  and  C_10
REMARK    5  A    between atoms: C_15  and  C_16
REMARK                            x       y       z     vdW  Elec       q    Type
REMARK                         _______ _______ _______ _____ _____    ______ ____
ROOT
ATOM      1  C   UNL     1      43.562   4.481  11.192  0.00  0.00    +0.000 C 
ENDROOT
BRANCH   1   2
ATOM      2  C   UNL     1      44.815   4.854  11.949  0.00  0.00    +0.000 A 
ATOM      3  C   UNL     1      45.445   3.950  12.805  0.00  0.00    +0.000 A 
ATOM      4  C   UNL     1      46.614   4.332  13.453  0.00  0.00    +0.000 A 
ATOM      5  F   UNL     1      47.220   3.466  14.276  0.00  0.00    +0.000 F 
ATOM      6  C   UNL     1      47.173   5.593  13.261  0.00  0.00    +0.000 A 
ATOM      7  C   UNL     1      46.567   6.534  12.412  0.00  0.00    +0.000 A 
ATOM      8  C   UNL     1      45.380   6.133  11.767  0.00  0.00    +0.000 A 
BRANCH   7   9
ATOM      9  C   UNL     1      47.154   7.874  12.192  0.00  0.00    +0.000 A 
ATOM     10  C   UNL     1      48.493   8.052  11.812  0.00  0.00    +0.000 A 
ATOM     11  C   UNL     1      49.008   9.327  11.575  0.00  0.00    +0.000 A 
ATOM     12  C   UNL     1      48.170  10.413  11.739  0.00  0.00    +0.000 A 
ATOM     13  N   UNL     1      46.884  10.308  12.120  0.00  0.00    +0.000 NA
ATOM     14  C   UNL     1      46.412   9.052  12.332  0.00  0.00    +0.000 A 
ENDBRANCH   7   9
ENDBRANCH   1   2
BRANCH   1  15
ATOM     15  N   UNL     1      43.780   4.757   9.780  0.00  0.00    +0.000 N 
ATOM     16  H   UNL     1      42.914   4.819   9.257  0.00  0.00    +0.000 HD
BRANCH  15  20
ATOM     17  C   UNL     1      46.490   2.505   7.677  0.00  0.00    +0.000 A 
ATOM     18  C   UNL     1      46.460   3.883   7.539  0.00  0.00    +0.000 A 
ATOM     19  N   UNL     1      45.608   4.669   8.254  0.00  0.00    +0.000 NA
ATOM     20  C   UNL     1      44.779   4.045   9.118  0.00  0.00    +0.000 A 
ATOM     21  C   UNL     1      44.824   2.648   9.231  0.00  0.00    +0.000 A 
ATOM     22  N   UNL     1      45.674   1.845   8.541  0.00  0.00    +0.000 NA
BRANCH  17  24
ATOM     23  N   UNL     1      48.533   2.349   6.396  0.00  0.00    +0.000 N 
ATOM     24  C   UNL     1      47.421   1.692   6.849  0.00  0.00    +0.000 C 
ATOM     25  O   UNL     1      47.213   0.514   6.592  0.00  0.00    +0.000 OA
ATOM     26  H   UNL     1      49.218   1.852   5.843  0.00  0.00    +0.000 HD
ATOM     27  H   UNL     1      48.685   3.321   6.645  0.00  0.00    +0.000 HD
ENDBRANCH  17  24
ENDBRANCH  15  20
ENDBRANCH   1  15
TORSDOF 5
ENDMDL
MODEL 2
REMARK VINA RESULT:    -8.278      2.501      3.720
REMARK INTER + INTRA:         -11.342
REMARK INTER:                 -10.677
REMARK INTRA:                  -0.664
REMARK UNBOUND:                -0.644
REMARK  Name = 
REMARK  5 active torsions:
REMARK  status: ('A' for Active; 'I' for Inactive)
REMARK    1  A    between atoms: C_2  and  C_4
REMARK    2  A    between atoms: C_7  and  N_8
REMARK    3  A    between atoms: N_8  and  C_9
REMARK    4  A    between atoms: C_9  and  C_10
REMARK    5  A    between atoms: C_15  and  C_16
REMARK                            x       y       z     vdW  Elec       q    Type
REMARK                         _______ _______ _______ _____ _____    ______ ____
ROOT
ATOM      1  C   UNL     1      43.822   4.447  11.480  0.00  0.00    +0.000 C 
ENDROOT
BRANCH   1   2
ATOM      2  C   UNL     1      44.952   5.250  12.081  0.00  0.00    +0.000 A 
ATOM      3  C   UNL     1      45.278   6.519  11.603  0.00  0.00    +0.000 A 
ATOM      4  C   UNL     1      46.307   7.229  12.211  0.00  0.00    +0.000 A 
ATOM      5  F   UNL     1      46.622   8.448  11.753  0.00  0.00    +0.000 F 
ATOM      6  C   UNL     1      47.013   6.705  13.291  0.00  0.00    +0.000 A 
ATOM      7  C   UNL     1      46.719   5.428  13.799  0.00  0.00    +0.000 A 
ATOM      8  C   UNL     1      45.678   4.720  13.168  0.00  0.00    +0.000 A 
BRANCH   7   9
ATOM      9  C   UNL     1      47.455   4.863  14.952  0.00  0.00    +0.000 A 
ATOM     10  C   UNL     1      48.180   5.665  15.845  0.00  0.00    +0.000 A 
ATOM     11  C   UNL     1      48.832   5.106  16.944  0.00  0.00    +0.000 A 
ATOM     12  C   UNL     1      48.760   3.738  17.124  0.00  0.00    +0.000 A 
ATOM     13  N   UNL     1      48.097   2.914  16.291  0.00  0.00    +0.000 NA
ATOM     14  C   UNL     1      47.464   3.493  15.238  0.00  0.00    +0.000 A 
ENDBRANCH   7   9
ENDBRANCH   1   2
BRANCH   1  15
ATOM     15  N   UNL     1      43.849   4.627  10.036  0.00  0.00    +0.000 N 
ATOM     16  H   UNL     1      42.926   4.578   9.621  0.00  0.00    +0.000 HD
BRANCH  15  20
ATOM     17  C   UNL     1      46.478   2.462   7.748  0.00  0.00    +0.000 A 
ATOM     18  C   UNL     1      46.409   3.840   7.629  0.00  0.00    +0.000 A 
ATOM     19  N   UNL     1      45.584   4.599   8.403  0.00  0.00    +0.000 NA
ATOM     20  C   UNL     1      44.822   3.946   9.308  0.00  0.00    +0.000 A 
ATOM     21  C   UNL     1      44.905   2.549   9.400  0.00  0.00    +0.000 A 
ATOM     22  N   UNL     1      45.730   1.773   8.651  0.00  0.00    +0.000 NA
BRANCH  17  24
ATOM     23  N   UNL     1      48.462   2.359   6.372  0.00  0.00    +0.000 N 
ATOM     24  C   UNL     1      47.376   1.681   6.856  0.00  0.00    +0.000 C 
ATOM     25  O   UNL     1      47.165   0.508   6.576  0.00  0.00    +0.000 OA
ATOM     26  H   UNL     1      49.124   1.883   5.775  0.00  0.00    +0.000 HD
ATOM     27  H   UNL     1      48.617   3.324   6.640  0.00  0.00    +0.000 HD
ENDBRANCH  17  24
ENDBRANCH  15  20
ENDBRANCH   1  15
TORSDOF 5
ENDMDL
MODEL 3
REMARK VINA RESULT:    -7.949      3.934      7.151
REMARK INTER + INTRA:         -10.916
REMARK INTER:                 -10.541
REMARK INTRA:                  -0.376
REMARK UNBOUND:                -0.644
REMARK  Name = 
REMARK  5 active torsions:
REMARK  status: ('A' for Active; 'I' for Inactive)
REMARK    1  A    between atoms: C_2  and  C_4
REMARK    2  A    between atoms: C_7  and  N_8
REMARK    3  A    between atoms: N_8  and  C_9
REMARK    4  A    between atoms: C_9  and  C_10
REMARK    5  A    between atoms: C_15  and  C_16
REMARK                            x       y       z     vdW  Elec       q    Type
REMARK                         _______ _______ _______ _____ _____    ______ ____
ROOT
ATOM      1  C   UNL     1      46.351   7.299  12.143  0.00  0.00    +0.000 C 
ENDROOT
BRANCH   1   2
ATOM      2  C   UNL     1      45.408   6.325  11.477  0.00  0.00    +0.000 A 
ATOM      3  C   UNL     1      44.047   6.305  11.781  0.00  0.00    +0.000 A 
ATOM      4  C   UNL     1      43.218   5.409  11.116  0.00  0.00    +0.000 A 
ATOM      5  F   UNL     1      41.910   5.388  11.407  0.00  0.00    +0.000 F 
ATOM      6  C   UNL     1      43.713   4.540  10.147  0.00  0.00    +0.000 A 
ATOM      7  C   UNL     1      45.078   4.526   9.816  0.00  0.00    +0.000 A 
ATOM      8  C   UNL     1      45.906   5.435  10.503  0.00  0.00    +0.000 A 
BRANCH   7   9
ATOM      9  C   UNL     1      45.617   3.613   8.783  0.00  0.00    +0.000 A 
ATOM     10  C   UNL     1      46.175   4.083   7.584  0.00  0.00    +0.000 A 
ATOM     11  C   UNL     1      46.709   3.200   6.647  0.00  0.00    +0.000 A 
ATOM     12  C   UNL     1      46.662   1.846   6.920  0.00  0.00    +0.000 A 
ATOM     13  N   UNL     1      46.124   1.334   8.043  0.00  0.00    +0.000 NA
ATOM     14  C   UNL     1      45.623   2.223   8.938  0.00  0.00    +0.000 A 
ENDBRANCH   7   9
ENDBRANCH   1   2
BRANCH   1  15
ATOM     15  N   UNL     1      47.533   6.570  12.576  0.00  0.00    +0.000 N 
ATOM     16  H   UNL     1      47.950   6.025  11.830  0.00  0.00    +0.000 HD
BRANCH  15  20
ATOM     17  C   UNL     1      47.496   4.328  16.012  0.00  0.00    +0.000 A 
ATOM     18  C   UNL     1      48.261   5.480  15.930  0.00  0.00    +0.000 A 
ATOM     19  N   UNL     1      48.264   6.276  14.825  0.00  0.00    +0.000 NA
ATOM     20  C   UNL     1      47.480   5.895  13.794  0.00  0.00    +0.000 A 
ATOM     21  C   UNL     1      46.722   4.719  13.901  0.00  0.00    +0.000 A 
ATOM     22  N   UNL     1      46.691   3.918  14.996  0.00  0.00    +0.000 NA
BRANCH  17  24
ATOM     23  N   UNL     1      48.732   3.525  17.927  0.00  0.00    +0.000 N 
ATOM     24  C   UNL     1      47.554   3.480  17.233  0.00  0.00    +0.000 C 
ATOM     25  O   UNL     1      46.611   2.791  17.598  0.00  0.00    +0.000 OA
ATOM     26  H   UNL     1      48.833   2.988  18.777  0.00  0.00    +0.000 HD
ATOM     27  H   UNL     1      49.486   4.123  17.607  0.00  0.00    +0.000 HD
ENDBRANCH  17  24
ENDBRANCH  15  20
ENDBRANCH   1  15
TORSDOF 5
ENDMDL
MODEL 4
REMARK VINA RESULT:    -7.911      2.419      2.985
REMARK INTER + INTRA:         -10.868
REMARK INTER:                 -10.204
REMARK INTRA:                  -0.663
REMARK UNBOUND:                -0.644
REMARK  Name = 
REMARK  5 active torsions:
REMARK  status: ('A' for Active; 'I' for Inactive)
REMARK    1  A    between atoms: C_2  and  C_4
REMARK    2  A    between atoms: C_7  and  N_8
REMARK    3  A    between atoms: N_8  and  C_9
REMARK    4  A    between atoms: C_9  and  C_10
REMARK    5  A    between atoms: C_15  and  C_16
REMARK                            x       y       z     vdW  Elec       q    Type
REMARK                         _______ _______ _______ _____ _____    ______ ____
ROOT
ATOM      1  C   UNL     1      43.895   4.916  11.279  0.00  0.00    +0.000 C 
ENDROOT
BRANCH   1   2
ATOM      2  C   UNL     1      44.530   6.248  11.599  0.00  0.00    +0.000 A 
ATOM      3  C   UNL     1      44.036   7.438  11.064  0.00  0.00    +0.000 A 
ATOM      4  C   UNL     1      44.638   8.641  11.416  0.00  0.00    +0.000 A 
ATOM      5  F   UNL     1      44.165   9.785  10.902  0.00  0.00    +0.000 F 
ATOM      6  C   UNL     1      45.716   8.685  12.297  0.00  0.00    +0.000 A 
ATOM      7  C   UNL     1      46.245   7.509  12.854  0.00  0.00    +0.000 A 
ATOM      8  C   UNL     1      45.628   6.298  12.482  0.00  0.00    +0.000 A 
BRANCH   7   9
ATOM      9  C   UNL     1      47.384   7.541  13.798  0.00  0.00    +0.000 A 
ATOM     10  C   UNL     1      47.844   8.734  14.377  0.00  0.00    +0.000 A 
ATOM     11  C   UNL     1      48.896   8.727  15.293  0.00  0.00    +0.000 A 
ATOM     12  C   UNL     1      49.487   7.517  15.605  0.00  0.00    +0.000 A 
ATOM     13  N   UNL     1      49.104   6.344  15.067  0.00  0.00    +0.000 NA
ATOM     14  C   UNL     1      48.070   6.386  14.188  0.00  0.00    +0.000 A 
ENDBRANCH   7   9
ENDBRANCH   1   2
BRANCH   1  15
ATOM     15  N   UNL     1      43.813   4.783   9.832  0.00  0.00    +0.000 N 
ATOM     16  H   UNL     1      42.870   4.598   9.511  0.00  0.00    +0.000 HD
BRANCH  15  20
ATOM     17  C   UNL     1      46.423   2.361   7.794  0.00  0.00    +0.000 A 
ATOM     18  C   UNL     1      46.420   3.730   7.582  0.00  0.00    +0.000 A 
ATOM     19  N   UNL     1      45.602   4.573   8.272  0.00  0.00    +0.000 NA
ATOM     20  C   UNL     1      44.780   4.015   9.187  0.00  0.00    +0.000 A 
ATOM     21  C   UNL     1      44.798   2.624   9.374  0.00  0.00    +0.000 A 
ATOM     22  N   UNL     1      45.613   1.767   8.710  0.00  0.00    +0.000 NA
BRANCH  17  24
ATOM     23  N   UNL     1      48.443   2.086   6.496  0.00  0.00    +0.000 N 
ATOM     24  C   UNL     1      47.317   1.485   6.990  0.00  0.00    +0.000 C 
ATOM     25  O   UNL     1      47.068   0.304   6.786  0.00  0.00    +0.000 OA
ATOM     26  H   UNL     1      49.105   1.543   5.957  0.00  0.00    +0.000 HD
ATOM     27  H   UNL     1      48.629   3.061   6.702  0.00  0.00    +0.000 HD
ENDBRANCH  17  24
ENDBRANCH  15  20
ENDBRANCH   1  15
TORSDOF 5
ENDMDL
MODEL 5
REMARK VINA RESULT:    -7.843      3.142      6.700
REMARK INTER + INTRA:         -10.779
REMARK INTER:                 -10.201
REMARK INTRA:                  -0.578
REMARK UNBOUND:                -0.644
REMARK  Name = 
REMARK  5 active torsions:
REMARK  status: ('A' for Active; 'I' for Inactive)
REMARK    1  A    between atoms: C_2  and  C_4
REMARK    2  A    between atoms: C_7  and  N_8
REMARK    3  A    between atoms: N_8  and  C_9
REMARK    4  A    between atoms: C_9  and  C_10
REMARK    5  A    between atoms: C_15  and  C_16
REMARK                            x       y       z     vdW  Elec       q    Type
REMARK                         _______ _______ _______ _____ _____    ______ ____
ROOT
ATOM      1  C   UNL     1      43.739   6.329  11.008  0.00  0.00    +0.000 C 
ENDROOT
BRANCH   1   2
ATOM      2  C   UNL     1      43.934   4.860  10.719  0.00  0.00    +0.000 A 
ATOM      3  C   UNL     1      43.287   3.877  11.468  0.00  0.00    +0.000 A 
ATOM      4  C   UNL     1      43.476   2.540  11.140  0.00  0.00    +0.000 A 
ATOM      5  F   UNL     1      42.855   1.595  11.859  0.00  0.00    +0.000 F 
ATOM      6  C   UNL     1      44.290   2.160  10.076  0.00  0.00    +0.000 A 
ATOM      7  C   UNL     1      44.963   3.118   9.300  0.00  0.00    +0.000 A 
ATOM      8  C   UNL     1      44.766   4.468   9.649  0.00  0.00    +0.000 A 
BRANCH   7   9
ATOM      9  C   UNL     1      45.824   2.729   8.161  0.00  0.00    +0.000 A 
ATOM     10  C   UNL     1      46.141   3.618   7.123  0.00  0.00    +0.000 A 
ATOM     11  C   UNL     1      46.987   3.234   6.082  0.00  0.00    +0.000 A 
ATOM     12  C   UNL     1      47.493   1.948   6.089  0.00  0.00    +0.000 A 
ATOM     13  N   UNL     1      47.210   1.044   7.046  0.00  0.00    +0.000 NA
ATOM     14  C   UNL     1      46.393   1.456   8.050  0.00  0.00    +0.000 A 
ENDBRANCH   7   9
ENDBRANCH   1   2
BRANCH   1  15
ATOM     15  N   UNL     1      43.964   6.550  12.429  0.00  0.00    +0.000 N 
ATOM     16  H   UNL     1      43.306   7.210  12.829  0.00  0.00    +0.000 HD
BRANCH  15  20
ATOM     17  C   UNL     1      47.916   6.942  13.456  0.00  0.00    +0.000 A 
ATOM     18  C   UNL     1      47.139   8.061  13.203  0.00  0.00    +0.000 A 
ATOM     19  N   UNL     1      45.813   7.975  12.906  0.00  0.00    +0.000 NA
ATOM     20  C   UNL     1      45.273   6.738  12.866  0.00  0.00    +0.000 A 
ATOM     21  C   UNL     1      46.086   5.622  13.116  0.00  0.00    +0.000 A 
ATOM     22  N   UNL     1      47.406   5.683  13.429  0.00  0.00    +0.000 NA
BRANCH  17  24
ATOM     23  N   UNL     1      50.155   7.407  12.673  0.00  0.00    +0.000 N 
ATOM     24  C   UNL     1      49.368   7.093  13.747  0.00  0.00    +0.000 C 
ATOM     25  O   UNL     1      49.829   6.951  14.872  0.00  0.00    +0.000 OA
ATOM     26  H   UNL     1      51.149   7.542  12.803  0.00  0.00    +0.000 HD
ATOM     27  H   UNL     1      49.737   7.536  11.759  0.00  0.00    +0.000 HD
ENDBRANCH  17  24
ENDBRANCH  15  20
ENDBRANCH   1  15
TORSDOF 5
ENDMDL
MODEL 6
REMARK VINA RESULT:    -7.344      5.079      8.159
REMARK INTER + INTRA:         -10.134
REMARK INTER:                  -9.639
REMARK INTRA:                  -0.495
REMARK UNBOUND:                -0.644
REMARK  Name = 
REMARK  5 active torsions:
REMARK  status: ('A' for Active; 'I' for Inactive)
REMARK    1  A    between atoms: C_2  and  C_4
REMARK    2  A    between atoms: C_7  and  N_8
REMARK    3  A    between atoms: N_8  and  C_9
REMARK    4  A    between atoms: C_9  and  C_10
REMARK    5  A    between atoms: C_15  and  C_16
REMARK                            x       y       z     vdW  Elec       q    Type
REMARK                         _______ _______ _______ _____ _____    ______ ____
ROOT
ATOM      1  C   UNL     1      46.172   5.377  13.889  0.00  0.00    +0.000 C 
ENDROOT
BRANCH   1   2
ATOM      2  C   UNL     1      45.223   5.107  12.745  0.00  0.00    +0.000 A 
ATOM      3  C   UNL     1      43.891   5.516  12.793  0.00  0.00    +0.000 A 
ATOM      4  C   UNL     1      43.067   5.271  11.700  0.00  0.00    +0.000 A 
ATOM      5  F   UNL     1      41.786   5.664  11.744  0.00  0.00    +0.000 F 
ATOM      6  C   UNL     1      43.545   4.635  10.557  0.00  0.00    +0.000 A 
ATOM      7  C   UNL     1      44.879   4.204  10.471  0.00  0.00    +0.000 A 
ATOM      8  C   UNL     1      45.699   4.454  11.589  0.00  0.00    +0.000 A 
BRANCH   7   9
ATOM      9  C   UNL     1      45.402   3.534   9.260  0.00  0.00    +0.000 A 
ATOM     10  C   UNL     1      45.855   4.253   8.143  0.00  0.00    +0.000 A 
ATOM     11  C   UNL     1      46.378   3.594   7.030  0.00  0.00    +0.000 A 
ATOM     12  C   UNL     1      46.426   2.213   7.048  0.00  0.00    +0.000 A 
ATOM     13  N   UNL     1      45.990   1.469   8.081  0.00  0.00    +0.000 NA
ATOM     14  C   UNL     1      45.497   2.143   9.152  0.00  0.00    +0.000 A 
ENDBRANCH   7   9
ENDBRANCH   1   2
BRANCH   1  15
ATOM     15  N   UNL     1      46.433   4.120  14.574  0.00  0.00    +0.000 N 
ATOM     16  H   UNL     1      45.620   3.515  14.602  0.00  0.00    +0.000 HD
BRANCH  15  20
ATOM     17  C   UNL     1      48.374   4.529  18.166  0.00  0.00    +0.000 A 
ATOM     18  C   UNL     1      47.460   3.506  17.970  0.00  0.00    +0.000 A 
ATOM     19  N   UNL     1      46.831   3.308  16.779  0.00  0.00    +0.000 NA
ATOM     20  C   UNL     1      47.135   4.161  15.777  0.00  0.00    +0.000 A 
ATOM     21  C   UNL     1      48.057   5.194  16.005  0.00  0.00    +0.000 A 
ATOM     22  N   UNL     1      48.708   5.402  17.178  0.00  0.00    +0.000 NA
BRANCH  17  24
ATOM     23  N   UNL     1      50.324   4.342  19.581  0.00  0.00    +0.000 N 
ATOM     24  C   UNL     1      49.010   4.716  19.498  0.00  0.00    +0.000 C 
ATOM     25  O   UNL     1      48.403   5.177  20.455  0.00  0.00    +0.000 OA
ATOM     26  H   UNL     1      50.823   4.460  20.452  0.00  0.00    +0.000 HD
ATOM     27  H   UNL     1      50.802   3.983  18.762  0.00  0.00    +0.000 HD
ENDBRANCH  17  24
ENDBRANCH  15  20
ENDBRANCH   1  15
TORSDOF 5
ENDMDL
MODEL 7
REMARK VINA RESULT:    -7.201      3.444      7.208
REMARK INTER + INTRA:          -9.950
REMARK INTER:                  -9.580
REMARK INTRA:                  -0.369
REMARK UNBOUND:                -0.644
REMARK  Name = 
REMARK  5 active torsions:
REMARK  status: ('A' for Active; 'I' for Inactive)
REMARK    1  A    between atoms: C_2  and  C_4
REMARK    2  A    between atoms: C_7  and  N_8
REMARK    3  A    between atoms: N_8  and  C_9
REMARK    4  A    between atoms: C_9  and  C_10
REMARK    5  A    between atoms: C_15  and  C_16
REMARK                            x       y       z     vdW  Elec       q    Type
REMARK                         _______ _______ _______ _____ _____    ______ ____
ROOT
ATOM      1  C   UNL     1      44.953   6.519  11.303  0.00  0.00    +0.000 C 
ENDROOT
BRANCH   1   2
ATOM      2  C   UNL     1      44.748   5.090  10.859  0.00  0.00    +0.000 A 
ATOM      3  C   UNL     1      43.854   4.245  11.515  0.00  0.00    +0.000 A 
ATOM      4  C   UNL     1      43.679   2.947  11.047  0.00  0.00    +0.000 A 
ATOM      5  F   UNL     1      42.820   2.134  11.677  0.00  0.00    +0.000 F 
ATOM      6  C   UNL     1      44.371   2.476   9.934  0.00  0.00    +0.000 A 
ATOM      7  C   UNL     1      45.285   3.294   9.249  0.00  0.00    +0.000 A 
ATOM      8  C   UNL     1      45.454   4.604   9.739  0.00  0.00    +0.000 A 
BRANCH   7   9
ATOM      9  C   UNL     1      46.020   2.810   8.059  0.00  0.00    +0.000 A 
ATOM     10  C   UNL     1      46.567   1.520   7.991  0.00  0.00    +0.000 A 
ATOM     11  C   UNL     1      47.222   1.079   6.841  0.00  0.00    +0.000 A 
ATOM     12  C   UNL     1      47.334   1.951   5.774  0.00  0.00    +0.000 A 
ATOM     13  N   UNL     1      46.847   3.206   5.788  0.00  0.00    +0.000 NA
ATOM     14  C   UNL     1      46.206   3.598   6.919  0.00  0.00    +0.000 A 
ENDBRANCH   7   9
ENDBRANCH   1   2
BRANCH   1  15
ATOM     15  N   UNL     1      46.382   6.755  11.445  0.00  0.00    +0.000 N 
ATOM     16  H   UNL     1      46.907   6.466  10.628  0.00  0.00    +0.000 HD
BRANCH  15  20
ATOM     17  C   UNL     1      48.008   5.960  15.126  0.00  0.00    +0.000 A 
ATOM     18  C   UNL     1      47.230   5.014  14.480  0.00  0.00    +0.000 A 
ATOM     19  N   UNL     1      46.712   5.221  13.238  0.00  0.00    +0.000 NA
ATOM     20  C   UNL     1      46.989   6.404  12.648  0.00  0.00    +0.000 A 
ATOM     21  C   UNL     1      47.772   7.348  13.330  0.00  0.00    +0.000 A 
ATOM     22  N   UNL     1      48.311   7.159  14.561  0.00  0.00    +0.000 NA
BRANCH  17  24
ATOM     23  N   UNL     1      48.081   6.544  17.471  0.00  0.00    +0.000 N 
ATOM     24  C   UNL     1      48.525   5.692  16.496  0.00  0.00    +0.000 C 
ATOM     25  O   UNL     1      49.291   4.770  16.738  0.00  0.00    +0.000 OA
ATOM     26  H   UNL     1      48.377   6.407  18.428  0.00  0.00    +0.000 HD
ATOM     27  H   UNL     1      47.430   7.285  17.238  0.00  0.00    +0.000 HD
ENDBRANCH  17  24
ENDBRANCH  15  20
ENDBRANCH   1  15
TORSDOF 5
ENDMDL
MODEL 8
REMARK VINA RESULT:    -6.841      5.473      7.850
REMARK INTER + INTRA:          -9.485
REMARK INTER:                  -8.806
REMARK INTRA:                  -0.679
REMARK UNBOUND:                -0.644
REMARK  Name = 
REMARK  5 active torsions:
REMARK  status: ('A' for Active; 'I' for Inactive)
REMARK    1  A    between atoms: C_2  and  C_4
REMARK    2  A    between atoms: C_7  and  N_8
REMARK    3  A    between atoms: N_8  and  C_9
REMARK    4  A    between atoms: C_9  and  C_10
REMARK    5  A    between atoms: C_15  and  C_16
REMARK                            x       y       z     vdW  Elec       q    Type
REMARK                         _______ _______ _______ _____ _____    ______ ____
ROOT
ATOM      1  C   UNL     1      48.683   6.461  15.917  0.00  0.00    +0.000 C 
ENDROOT
BRANCH   1   2
ATOM      2  C   UNL     1      48.243   6.565  14.477  0.00  0.00    +0.000 A 
ATOM      3  C   UNL     1      48.949   7.336  13.553  0.00  0.00    +0.000 A 
ATOM      4  C   UNL     1      48.520   7.373  12.232  0.00  0.00    +0.000 A 
ATOM      5  F   UNL     1      49.198   8.114  11.344  0.00  0.00    +0.000 F 
ATOM      6  C   UNL     1      47.407   6.652  11.808  0.00  0.00    +0.000 A 
ATOM      7  C   UNL     1      46.665   5.868  12.707  0.00  0.00    +0.000 A 
ATOM      8  C   UNL     1      47.109   5.846  14.044  0.00  0.00    +0.000 A 
BRANCH   7   9
ATOM      9  C   UNL     1      45.485   5.090  12.269  0.00  0.00    +0.000 A 
ATOM     10  C   UNL     1      44.818   5.356  11.063  0.00  0.00    +0.000 A 
ATOM     11  C   UNL     1      43.732   4.580  10.659  0.00  0.00    +0.000 A 
ATOM     12  C   UNL     1      43.317   3.551  11.484  0.00  0.00    +0.000 A 
ATOM     13  N   UNL     1      43.904   3.261  12.660  0.00  0.00    +0.000 NA
ATOM     14  C   UNL     1      44.965   4.029  13.017  0.00  0.00    +0.000 A 
ENDBRANCH   7   9
ENDBRANCH   1   2
BRANCH   1  15
ATOM     15  N   UNL     1      48.184   5.205  16.459  0.00  0.00    +0.000 N 
ATOM     16  H   UNL     1      47.431   5.340  17.124  0.00  0.00    +0.000 HD
BRANCH  15  20
ATOM     17  C   UNL     1      50.951   2.304  17.329  0.00  0.00    +0.000 A 
ATOM     18  C   UNL     1      51.207   3.634  17.623  0.00  0.00    +0.000 A 
ATOM     19  N   UNL     1      50.296   4.620  17.393  0.00  0.00    +0.000 NA
ATOM     20  C   UNL     1      49.113   4.247  16.859  0.00  0.00    +0.000 A 
ATOM     21  C   UNL     1      48.884   2.895  16.563  0.00  0.00    +0.000 A 
ATOM     22  N   UNL     1      49.770   1.893  16.796  0.00  0.00    +0.000 NA
BRANCH  17  24
ATOM     23  N   UNL     1      51.559   0.125  18.180  0.00  0.00    +0.000 N 
ATOM     24  C   UNL     1      51.995   1.272  17.574  0.00  0.00    +0.000 C 
ATOM     25  O   UNL     1      53.164   1.433  17.253  0.00  0.00    +0.000 OA
ATOM     26  H   UNL     1      52.212  -0.625  18.360  0.00  0.00    +0.000 HD
ATOM     27  H   UNL     1      50.578   0.017  18.415  0.00  0.00    +0.000 HD
ENDBRANCH  17  24
ENDBRANCH  15  20
ENDBRANCH   1  15
TORSDOF 5
ENDMDL
MODEL 9
REMARK VINA RESULT:    -6.625      5.103      8.228
REMARK INTER + INTRA:          -9.206
REMARK INTER:                  -8.600
REMARK INTRA:                  -0.606
REMARK UNBOUND:                -0.644
REMARK  Name = 
REMARK  5 active torsions:
REMARK  status: ('A' for Active; 'I' for Inactive)
REMARK    1  A    between atoms: C_2  and  C_4
REMARK    2  A    between atoms: C_7  and  N_8
REMARK    3  A    between atoms: N_8  and  C_9
REMARK    4  A    between atoms: C_9  and  C_10
REMARK    5  A    between atoms: C_15  and  C_16
REMARK                            x       y       z     vdW  Elec       q    Type
REMARK                         _______ _______ _______ _____ _____    ______ ____
ROOT
ATOM      1  C   UNL     1      48.609   7.201  13.657  0.00  0.00    +0.000 C 
ENDROOT
BRANCH   1   2
ATOM      2  C   UNL     1      47.296   7.292  12.915  0.00  0.00    +0.000 A 
ATOM      3  C   UNL     1      46.511   8.443  12.964  0.00  0.00    +0.000 A 
ATOM      4  C   UNL     1      45.326   8.486  12.238  0.00  0.00    +0.000 A 
ATOM      5  F   UNL     1      44.570   9.592  12.284  0.00  0.00    +0.000 F 
ATOM      6  C   UNL     1      44.911   7.410  11.457  0.00  0.00    +0.000 A 
ATOM      7  C   UNL     1      45.672   6.231  11.386  0.00  0.00    +0.000 A 
ATOM      8  C   UNL     1      46.866   6.201  12.132  0.00  0.00    +0.000 A 
BRANCH   7   9
ATOM      9  C   UNL     1      45.247   5.083  10.554  0.00  0.00    +0.000 A 
ATOM     10  C   UNL     1      45.593   4.972   9.198  0.00  0.00    +0.000 A 
ATOM     11  C   UNL     1      45.210   3.858   8.450  0.00  0.00    +0.000 A 
ATOM     12  C   UNL     1      44.467   2.873   9.073  0.00  0.00    +0.000 A 
ATOM     13  N   UNL     1      44.089   2.933  10.363  0.00  0.00    +0.000 NA
ATOM     14  C   UNL     1      44.488   4.025  11.065  0.00  0.00    +0.000 A 
ENDBRANCH   7   9
ENDBRANCH   1   2
BRANCH   1  15
ATOM     15  N   UNL     1      48.405   7.689  15.012  0.00  0.00    +0.000 N 
ATOM     16  H   UNL     1      48.824   8.599  15.166  0.00  0.00    +0.000 HD
BRANCH  15  20
ATOM     17  C   UNL     1      48.757   5.221  18.271  0.00  0.00    +0.000 A 
ATOM     18  C   UNL     1      48.429   4.706  17.028  0.00  0.00    +0.000 A 
ATOM     19  N   UNL     1      48.348   5.484  15.914  0.00  0.00    +0.000 NA
ATOM     20  C   UNL     1      48.606   6.801  16.067  0.00  0.00    +0.000 A 
ATOM     21  C   UNL     1      48.927   7.298  17.339  0.00  0.00    +0.000 A 
ATOM     22  N   UNL     1      49.028   6.540  18.461  0.00  0.00    +0.000 NA
BRANCH  17  24
ATOM     23  N   UNL     1      48.338   3.057  19.262  0.00  0.00    +0.000 N 
ATOM     24  C   UNL     1      48.802   4.329  19.461  0.00  0.00    +0.000 C 
ATOM     25  O   UNL     1      49.229   4.702  20.545  0.00  0.00    +0.000 OA
ATOM     26  H   UNL     1      48.358   2.392  20.023  0.00  0.00    +0.000 HD
ATOM     27  H   UNL     1      48.010   2.775  18.345  0.00  0.00    +0.000 HD
ENDBRANCH  17  24
ENDBRANCH  15  20
ENDBRANCH   1  15
TORSDOF 5
ENDMDL
