MODEL 1
REMARK VINA RESULT:    -7.330      0.000      0.000
REMARK INTER + INTRA:         -13.057
REMARK INTER:                 -11.400
REMARK INTRA:                  -1.657
REMARK UNBOUND:                -1.657
REMARK  Name = 
REMARK  10 active torsions:
REMARK  status: ('A' for Active; 'I' for Inactive)
REMARK    1  A    between atoms: N_1  and  C_2
REMARK    2  A    between atoms: C_2  and  C_3
REMARK    3  A    between atoms: C_3  and  N_4
REMARK    4  A    between atoms: N_4  and  C_5
REMARK    5  A    between atoms: C_5  and  C_6
REMARK    6  A    between atoms: C_9  and  C_10
REMARK    7  A    between atoms: C_10  and  N_11
REMARK    8  A    between atoms: N_11  and  C_12
REMARK    9  A    between atoms: C_12  and  C_13
REMARK   10  A    between atoms: C_21  and  C_23
REMARK                            x       y       z     vdW  Elec       q    Type
REMARK                         _______ _______ _______ _____ _____    ______ ____
ROOT
ATOM      1  N   UNL     1      48.717   7.199  13.723  0.00  0.00    +0.000 N 
ATOM      2  C   UNL     1      49.629   7.543  14.759  0.00  0.00    +0.000 C 
ATOM      3  O   UNL     1      50.840   7.502  14.549  0.00  0.00    +0.000 OA
ENDROOT
BRANCH   2   4
ATOM      4  C   UNL     1      49.156   7.912  16.115  0.00  0.00    +0.000 A 
ATOM      5  C   UNL     1      49.061   9.192  16.629  0.00  0.00    +0.000 A 
ATOM      6  S   UNL     1      48.284   9.327  18.132  0.00  0.00    +0.000 S 
ATOM      7  C   UNL     1      48.072   7.650  18.209  0.00  0.00    +0.000 A 
ATOM      8  N   UNL     1      47.452   7.098  19.284  0.00  0.00    +0.000 NA
ATOM      9  C   UNL     1      47.352   5.814  19.222  0.00  0.00    +0.000 A 
ATOM     10  N   UNL     1      47.830   5.041  18.197  0.00  0.00    +0.000 N 
ATOM     11  C   UNL     1      48.547   5.549  17.130  0.00  0.00    +0.000 A 
ATOM     12  O   UNL     1      49.136   4.800  16.360  0.00  0.00    +0.000 OA
ATOM     13  C   UNL     1      48.613   6.999  17.111  0.00  0.00    +0.000 A 
ATOM     14  H   UNL     1      47.788   4.036  18.257  0.00  0.00    +0.000 HD
ENDBRANCH   2   4
BRANCH   1  15
ATOM     15  C   UNL     1      49.341   6.999  12.395  0.00  0.00    +0.000 C 
BRANCH  15  16
ATOM     16  C   UNL     1      49.468   8.183  11.405  0.00  0.00    +0.000 C 
BRANCH  16  17
ATOM     17  N   UNL     1      50.421   9.230  11.792  0.00  0.00    +0.000 NA
ATOM     18  H   UNL     1      51.325   9.029  11.366  0.00  0.00    +0.000 HD
ATOM     19  H   UNL     1      50.567   9.213  12.801  0.00  0.00    +0.000 HD
ENDBRANCH  16  17
ENDBRANCH  15  16
ENDBRANCH   1  15
BRANCH   1  20
ATOM     20  C   UNL     1      47.282   7.483  13.774  0.00  0.00    +0.000 C 
BRANCH  20  21
ATOM     21  C   UNL     1      46.406   6.456  13.074  0.00  0.00    +0.000 A 
ATOM     22  C   UNL     1      45.632   6.749  11.941  0.00  0.00    +0.000 A 
ATOM     23  C   UNL     1      44.940   5.755  11.250  0.00  0.00    +0.000 A 
ATOM     24  C   UNL     1      44.879   4.458  11.760  0.00  0.00    +0.000 A 
ATOM     25  C   UNL     1      45.614   4.155  12.911  0.00  0.00    +0.000 A 
ATOM     26  C   UNL     1      46.398   5.132  13.533  0.00  0.00    +0.000 A 
BRANCH  24  27
ATOM     27  C   UNL     1      43.941   3.456  11.140  0.00  0.00    +0.000 C 
BRANCH  27  28
ATOM     28  N   UNL     1      44.639   2.490  10.298  0.00  0.00    +0.000 NA
ATOM     29  H   UNL     1      44.188   1.581  10.391  0.00  0.00    +0.000 HD
BRANCH  28  30
ATOM     30  C   UNL     1      44.587   2.919   8.902  0.00  0.00    +0.000 C 
BRANCH  30  31
ATOM     31  C   UNL     1      45.792   2.436   8.133  0.00  0.00    +0.000 A 
ATOM     32  C   UNL     1      46.138   1.081   8.133  0.00  0.00    +0.000 A 
ATOM     33  C   UNL     1      47.243   0.678   7.397  0.00  0.00    +0.000 A 
ATOM     34  N   UNL     1      48.012   1.518   6.675  0.00  0.00    +0.000 NA
ATOM     35  C   UNL     1      47.664   2.821   6.689  0.00  0.00    +0.000 A 
ATOM     36  C   UNL     1      46.577   3.320   7.390  0.00  0.00    +0.000 A 
ENDBRANCH  30  31
ENDBRANCH  28  30
ENDBRANCH  27  28
ENDBRANCH  24  27
ENDBRANCH  20  21
ENDBRANCH   1  20
TORSDOF 10
ENDMDL
MODEL 2
REMARK VINA RESULT:    -7.117      1.343      2.120
REMARK INTER + INTRA:         -12.727
REMARK INTER:                 -10.960
REMARK INTRA:                  -1.767
REMARK UNBOUND:                -1.657
REMARK  Name = 
REMARK  10 active torsions:
REMARK  status: ('A' for Active; 'I' for Inactive)
REMARK    1  A    between atoms: N_1  and  C_2
REMARK    2  A    between atoms: C_2  and  C_3
REMARK    3  A    between atoms: C_3  and  N_4
REMARK    4  A    between atoms: N_4  and  C_5
REMARK    5  A    between atoms: C_5  and  C_6
REMARK    6  A    between atoms: C_9  and  C_10
REMARK    7  A    between atoms: C_10  and  N_11
REMARK    8  A    between atoms: N_11  and  C_12
REMARK    9  A    between atoms: C_12  and  C_13
REMARK   10  A    between atoms: C_21  and  C_23
REMARK                            x       y       z     vdW  Elec       q    Type
REMARK                         _______ _______ _______ _____ _____    ______ ____
ROOT
ATOM      1  N   UNL     1      48.212   7.463  13.148  0.00  0.00    +0.000 N 
ATOM      2  C   UNL     1      49.174   7.335  14.188  0.00  0.00    +0.000 C 
ATOM      3  O   UNL     1      50.368   7.497  13.943  0.00  0.00    +0.000 OA
ENDROOT
BRANCH   2   4
ATOM      4  C   UNL     1      48.777   6.965  15.567  0.00  0.00    +0.000 A 
ATOM      5  C   UNL     1      48.553   5.684  16.040  0.00  0.00    +0.000 A 
ATOM      6  S   UNL     1      48.322   5.547  17.716  0.00  0.00    +0.000 S 
ATOM      7  C   UNL     1      48.458   7.223  17.905  0.00  0.00    +0.000 A 
ATOM      8  N   UNL     1      48.348   7.773  19.142  0.00  0.00    +0.000 NA
ATOM      9  C   UNL     1      48.471   9.057  19.151  0.00  0.00    +0.000 A 
ATOM     10  N   UNL     1      48.675   9.831  18.040  0.00  0.00    +0.000 N 
ATOM     11  C   UNL     1      48.701   9.325  16.753  0.00  0.00    +0.000 A 
ATOM     12  O   UNL     1      48.667  10.077  15.786  0.00  0.00    +0.000 OA
ATOM     13  C   UNL     1      48.652   7.876  16.697  0.00  0.00    +0.000 A 
ATOM     14  H   UNL     1      48.679  10.835  18.115  0.00  0.00    +0.000 HD
ENDBRANCH   2   4
BRANCH   1  15
ATOM     15  C   UNL     1      48.753   7.979  11.870  0.00  0.00    +0.000 C 
BRANCH  15  16
ATOM     16  C   UNL     1      48.833   9.505  11.614  0.00  0.00    +0.000 C 
BRANCH  16  17
ATOM     17  N   UNL     1      49.299  10.311  12.749  0.00  0.00    +0.000 NA
ATOM     18  H   UNL     1      48.952   9.897  13.614  0.00  0.00    +0.000 HD
ATOM     19  H   UNL     1      48.900  11.249  12.698  0.00  0.00    +0.000 HD
ENDBRANCH  16  17
ENDBRANCH  15  16
ENDBRANCH   1  15
BRANCH   1  20
ATOM     20  C   UNL     1      46.771   7.572  13.381  0.00  0.00    +0.000 C 
BRANCH  20  21
ATOM     21  C   UNL     1      45.943   6.450  12.773  0.00  0.00    +0.000 A 
ATOM     22  C   UNL     1      44.823   6.675  11.958  0.00  0.00    +0.000 A 
ATOM     23  C   UNL     1      44.163   5.628  11.316  0.00  0.00    +0.000 A 
ATOM     24  C   UNL     1      44.512   4.305  11.590  0.00  0.00    +0.000 A 
ATOM     25  C   UNL     1      45.603   4.060  12.431  0.00  0.00    +0.000 A 
ATOM     26  C   UNL     1      46.331   5.120  12.979  0.00  0.00    +0.000 A 
BRANCH  24  27
ATOM     27  C   UNL     1      43.646   3.185  11.080  0.00  0.00    +0.000 C 
BRANCH  27  28
ATOM     28  N   UNL     1      44.334   2.355  10.095  0.00  0.00    +0.000 NA
ATOM     29  H   UNL     1      43.729   1.577   9.835  0.00  0.00    +0.000 HD
BRANCH  28  30
ATOM     30  C   UNL     1      44.644   3.149   8.908  0.00  0.00    +0.000 C 
BRANCH  30  31
ATOM     31  C   UNL     1      45.786   2.547   8.127  0.00  0.00    +0.000 A 
ATOM     32  C   UNL     1      46.589   3.349   7.312  0.00  0.00    +0.000 A 
ATOM     33  C   UNL     1      47.640   2.756   6.626  0.00  0.00    +0.000 A 
ATOM     34  N   UNL     1      47.939   1.444   6.697  0.00  0.00    +0.000 NA
ATOM     35  C   UNL     1      47.151   0.685   7.487  0.00  0.00    +0.000 A 
ATOM     36  C   UNL     1      46.081   1.184   8.213  0.00  0.00    +0.000 A 
ENDBRANCH  30  31
ENDBRANCH  28  30
ENDBRANCH  27  28
ENDBRANCH  24  27
ENDBRANCH  20  21
ENDBRANCH   1  20
TORSDOF 10
ENDMDL
MODEL 3
REMARK VINA RESULT:    -6.961      2.322      3.082
REMARK INTER + INTRA:         -12.484
REMARK INTER:                 -10.773
REMARK INTRA:                  -1.710
REMARK UNBOUND:                -1.657
REMARK  Name = 
REMARK  10 active torsions:
REMARK  status: ('A' for Active; 'I' for Inactive)
REMARK    1  A    between atoms: N_1  and  C_2
REMARK    2  A    between atoms: C_2  and  C_3
REMARK    3  A    between atoms: C_3  and  N_4
REMARK    4  A    between atoms: N_4  and  C_5
REMARK    5  A    between atoms: C_5  and  C_6
REMARK    6  A    between atoms: C_9  and  C_10
REMARK    7  A    between atoms: C_10  and  N_11
REMARK    8  A    between atoms: N_11  and  C_12
REMARK    9  A    between atoms: C_12  and  C_13
REMARK   10  A    between atoms: C_21  and  C_23
REMARK                            x       y       z     vdW  Elec       q    Type
REMARK                         _______ _______ _______ _____ _____    ______ ____
ROOT
ATOM      1  N   UNL     1      48.638   7.394  14.638  0.00  0.00    +0.000 N 
ATOM      2  C   UNL     1      48.566   7.191  16.043  0.00  0.00    +0.000 C 
ATOM      3  O   UNL     1      48.329   8.139  16.789  0.00  0.00    +0.000 OA
ENDROOT
BRANCH   2   4
ATOM      4  C   UNL     1      48.814   5.859  16.646  0.00  0.00    +0.000 A 
ATOM      5  C   UNL     1      47.879   4.857  16.834  0.00  0.00    +0.000 A 
ATOM      6  S   UNL     1      48.495   3.361  17.349  0.00  0.00    +0.000 S 
ATOM      7  C   UNL     1      50.065   3.990  17.403  0.00  0.00    +0.000 A 
ATOM      8  N   UNL     1      51.097   3.193  17.784  0.00  0.00    +0.000 NA
ATOM      9  C   UNL     1      52.240   3.790  17.783  0.00  0.00    +0.000 A 
ATOM     10  N   UNL     1      52.436   5.105  17.454  0.00  0.00    +0.000 N 
ATOM     11  C   UNL     1      51.406   5.976  17.151  0.00  0.00    +0.000 A 
ATOM     12  O   UNL     1      51.609   7.182  17.079  0.00  0.00    +0.000 OA
ATOM     13  C   UNL     1      50.109   5.332  17.056  0.00  0.00    +0.000 A 
ATOM     14  H   UNL     1      53.347   5.523  17.555  0.00  0.00    +0.000 HD
ENDBRANCH   2   4
BRANCH   1  15
ATOM     15  C   UNL     1      48.222   8.742  14.189  0.00  0.00    +0.000 C 
BRANCH  15  16
ATOM     16  C   UNL     1      49.279   9.849  13.952  0.00  0.00    +0.000 C 
BRANCH  16  17
ATOM     17  N   UNL     1      49.897  10.401  15.164  0.00  0.00    +0.000 NA
ATOM     18  H   UNL     1      49.686  11.398  15.218  0.00  0.00    +0.000 HD
ATOM     19  H   UNL     1      50.912  10.324  15.105  0.00  0.00    +0.000 HD
ENDBRANCH  16  17
ENDBRANCH  15  16
ENDBRANCH   1  15
BRANCH   1  20
ATOM     20  C   UNL     1      48.630   6.308  13.657  0.00  0.00    +0.000 C 
BRANCH  20  21
ATOM     21  C   UNL     1      47.276   6.040  13.017  0.00  0.00    +0.000 A 
ATOM     22  C   UNL     1      46.279   5.262  13.624  0.00  0.00    +0.000 A 
ATOM     23  C   UNL     1      45.006   5.141  13.068  0.00  0.00    +0.000 A 
ATOM     24  C   UNL     1      44.737   5.674  11.807  0.00  0.00    +0.000 A 
ATOM     25  C   UNL     1      45.731   6.421  11.168  0.00  0.00    +0.000 A 
ATOM     26  C   UNL     1      46.968   6.634  11.786  0.00  0.00    +0.000 A 
BRANCH  24  27
ATOM     27  C   UNL     1      43.442   5.336  11.116  0.00  0.00    +0.000 C 
BRANCH  27  28
ATOM     28  N   UNL     1      43.653   4.773   9.786  0.00  0.00    +0.000 NA
ATOM     29  H   UNL     1      44.369   5.317   9.306  0.00  0.00    +0.000 HD
BRANCH  28  30
ATOM     30  C   UNL     1      44.089   3.383   9.898  0.00  0.00    +0.000 C 
BRANCH  30  31
ATOM     31  C   UNL     1      45.162   3.060   8.888  0.00  0.00    +0.000 A 
ATOM     32  C   UNL     1      45.731   4.071   8.109  0.00  0.00    +0.000 A 
ATOM     33  C   UNL     1      46.728   3.731   7.205  0.00  0.00    +0.000 A 
ATOM     34  N   UNL     1      47.187   2.476   7.030  0.00  0.00    +0.000 NA
ATOM     35  C   UNL     1      46.624   1.513   7.789  0.00  0.00    +0.000 A 
ATOM     36  C   UNL     1      45.625   1.753   8.720  0.00  0.00    +0.000 A 
ENDBRANCH  30  31
ENDBRANCH  28  30
ENDBRANCH  27  28
ENDBRANCH  24  27
ENDBRANCH  20  21
ENDBRANCH   1  20
TORSDOF 10
ENDMDL
MODEL 4
REMARK VINA RESULT:    -6.916      3.895      8.350
REMARK INTER + INTRA:         -12.414
REMARK INTER:                 -10.907
REMARK INTRA:                  -1.507
REMARK UNBOUND:                -1.657
REMARK  Name = 
REMARK  10 active torsions:
REMARK  status: ('A' for Active; 'I' for Inactive)
REMARK    1  A    between atoms: N_1  and  C_2
REMARK    2  A    between atoms: C_2  and  C_3
REMARK    3  A    between atoms: C_3  and  N_4
REMARK    4  A    between atoms: N_4  and  C_5
REMARK    5  A    between atoms: C_5  and  C_6
REMARK    6  A    between atoms: C_9  and  C_10
REMARK    7  A    between atoms: C_10  and  N_11
REMARK    8  A    between atoms: N_11  and  C_12
REMARK    9  A    between atoms: C_12  and  C_13
REMARK   10  A    between atoms: C_21  and  C_23
REMARK                            x       y       z     vdW  Elec       q    Type
REMARK                         _______ _______ _______ _____ _____    ______ ____
ROOT
ATOM      1  N   UNL     1      45.953   7.190  12.236  0.00  0.00    +0.000 N 
ATOM      2  C   UNL     1      44.732   6.703  11.694  0.00  0.00    +0.000 C 
ATOM      3  O   UNL     1      43.848   7.492  11.367  0.00  0.00    +0.000 OA
ENDROOT
BRANCH   2   4
ATOM      4  C   UNL     1      44.474   5.250  11.550  0.00  0.00    +0.000 A 
ATOM      5  C   UNL     1      43.823   4.439  12.462  0.00  0.00    +0.000 A 
ATOM      6  S   UNL     1      43.482   2.862  11.934  0.00  0.00    +0.000 S 
ATOM      7  C   UNL     1      44.243   3.159  10.452  0.00  0.00    +0.000 A 
ATOM      8  N   UNL     1      44.301   2.177   9.516  0.00  0.00    +0.000 NA
ATOM      9  C   UNL     1      44.906   2.529   8.432  0.00  0.00    +0.000 A 
ATOM     10  N   UNL     1      45.466   3.759   8.214  0.00  0.00    +0.000 N 
ATOM     11  C   UNL     1      45.512   4.757   9.170  0.00  0.00    +0.000 A 
ATOM     12  O   UNL     1      46.210   5.749   9.004  0.00  0.00    +0.000 OA
ATOM     13  C   UNL     1      44.771   4.439  10.377  0.00  0.00    +0.000 A 
ATOM     14  H   UNL     1      45.993   3.935   7.374  0.00  0.00    +0.000 HD
ENDBRANCH   2   4
BRANCH   1  15
ATOM     15  C   UNL     1      46.110   8.661  12.175  0.00  0.00    +0.000 C 
BRANCH  15  16
ATOM     16  C   UNL     1      47.521   9.298  12.194  0.00  0.00    +0.000 C 
BRANCH  16  17
ATOM     17  N   UNL     1      47.822  10.130  13.366  0.00  0.00    +0.000 NA
ATOM     18  H   UNL     1      47.422  11.057  13.225  0.00  0.00    +0.000 HD
ATOM     19  H   UNL     1      48.830  10.261  13.451  0.00  0.00    +0.000 HD
ENDBRANCH  16  17
ENDBRANCH  15  16
ENDBRANCH   1  15
BRANCH   1  20
ATOM     20  C   UNL     1      47.159   6.374  12.388  0.00  0.00    +0.000 C 
BRANCH  20  21
ATOM     21  C   UNL     1      47.435   5.909  13.810  0.00  0.00    +0.000 A 
ATOM     22  C   UNL     1      46.844   4.768  14.375  0.00  0.00    +0.000 A 
ATOM     23  C   UNL     1      47.215   4.301  15.636  0.00  0.00    +0.000 A 
ATOM     24  C   UNL     1      48.082   5.047  16.434  0.00  0.00    +0.000 A 
ATOM     25  C   UNL     1      48.652   6.208  15.903  0.00  0.00    +0.000 A 
ATOM     26  C   UNL     1      48.363   6.608  14.594  0.00  0.00    +0.000 A 
BRANCH  24  27
ATOM     27  C   UNL     1      48.288   4.659  17.875  0.00  0.00    +0.000 C 
BRANCH  27  28
ATOM     28  N   UNL     1      49.654   4.218  18.140  0.00  0.00    +0.000 NA
ATOM     29  H   UNL     1      49.786   4.130  19.147  0.00  0.00    +0.000 HD
BRANCH  28  30
ATOM     30  C   UNL     1      49.891   2.924  17.503  0.00  0.00    +0.000 C 
BRANCH  30  31
ATOM     31  C   UNL     1      51.329   2.493  17.650  0.00  0.00    +0.000 A 
ATOM     32  C   UNL     1      51.704   1.171  17.396  0.00  0.00    +0.000 A 
ATOM     33  C   UNL     1      53.041   0.823  17.526  0.00  0.00    +0.000 A 
ATOM     34  N   UNL     1      54.011   1.687  17.884  0.00  0.00    +0.000 NA
ATOM     35  C   UNL     1      53.630   2.959  18.128  0.00  0.00    +0.000 A 
ATOM     36  C   UNL     1      52.321   3.403  18.023  0.00  0.00    +0.000 A 
ENDBRANCH  30  31
ENDBRANCH  28  30
ENDBRANCH  27  28
ENDBRANCH  24  27
ENDBRANCH  20  21
ENDBRANCH   1  20
TORSDOF 10
ENDMDL
MODEL 5
REMARK VINA RESULT:    -6.871      3.202      8.860
REMARK INTER + INTRA:         -12.344
REMARK INTER:                 -10.328
REMARK INTRA:                  -2.015
REMARK UNBOUND:                -1.657
REMARK  Name = 
REMARK  10 active torsions:
REMARK  status: ('A' for Active; 'I' for Inactive)
REMARK    1  A    between atoms: N_1  and  C_2
REMARK    2  A    between atoms: C_2  and  C_3
REMARK    3  A    between atoms: C_3  and  N_4
REMARK    4  A    between atoms: N_4  and  C_5
REMARK    5  A    between atoms: C_5  and  C_6
REMARK    6  A    between atoms: C_9  and  C_10
REMARK    7  A    between atoms: C_10  and  N_11
REMARK    8  A    between atoms: N_11  and  C_12
REMARK    9  A    between atoms: C_12  and  C_13
REMARK   10  A    between atoms: C_21  and  C_23
REMARK                            x       y       z     vdW  Elec       q    Type
REMARK                         _______ _______ _______ _____ _____    ______ ____
ROOT
ATOM      1  N   UNL     1      46.053   7.177  12.237  0.00  0.00    +0.000 N 
ATOM      2  C   UNL     1      44.822   6.723  11.690  0.00  0.00    +0.000 C 
ATOM      3  O   UNL     1      43.969   7.537  11.340  0.00  0.00    +0.000 OA
ENDROOT
BRANCH   2   4
ATOM      4  C   UNL     1      44.515   5.278  11.567  0.00  0.00    +0.000 A 
ATOM      5  C   UNL     1      43.874   4.493  12.509  0.00  0.00    +0.000 A 
ATOM      6  S   UNL     1      43.466   2.924  12.006  0.00  0.00    +0.000 S 
ATOM      7  C   UNL     1      44.182   3.187  10.495  0.00  0.00    +0.000 A 
ATOM      8  N   UNL     1      44.176   2.197   9.566  0.00  0.00    +0.000 NA
ATOM      9  C   UNL     1      44.751   2.523   8.458  0.00  0.00    +0.000 A 
ATOM     10  N   UNL     1      45.340   3.734   8.210  0.00  0.00    +0.000 N 
ATOM     11  C   UNL     1      45.451   4.736   9.156  0.00  0.00    +0.000 A 
ATOM     12  O   UNL     1      46.172   5.706   8.957  0.00  0.00    +0.000 OA
ATOM     13  C   UNL     1      44.745   4.450  10.391  0.00  0.00    +0.000 A 
ATOM     14  H   UNL     1      45.842   3.888   7.350  0.00  0.00    +0.000 HD
ENDBRANCH   2   4
BRANCH   1  15
ATOM     15  C   UNL     1      46.262   8.640  12.154  0.00  0.00    +0.000 C 
BRANCH  15  16
ATOM     16  C   UNL     1      47.680   9.239  12.327  0.00  0.00    +0.000 C 
BRANCH  16  17
ATOM     17  N   UNL     1      47.890  10.019  13.552  0.00  0.00    +0.000 NA
ATOM     18  H   UNL     1      47.381  10.900  13.475  0.00  0.00    +0.000 HD
ATOM     19  H   UNL     1      48.876  10.263  13.646  0.00  0.00    +0.000 HD
ENDBRANCH  16  17
ENDBRANCH  15  16
ENDBRANCH   1  15
BRANCH   1  20
ATOM     20  C   UNL     1      47.229   6.322  12.417  0.00  0.00    +0.000 C 
BRANCH  20  21
ATOM     21  C   UNL     1      47.441   5.826  13.839  0.00  0.00    +0.000 A 
ATOM     22  C   UNL     1      46.877   4.639  14.332  0.00  0.00    +0.000 A 
ATOM     23  C   UNL     1      47.194   4.150  15.599  0.00  0.00    +0.000 A 
ATOM     24  C   UNL     1      47.970   4.913  16.472  0.00  0.00    +0.000 A 
ATOM     25  C   UNL     1      48.510   6.118  16.012  0.00  0.00    +0.000 A 
ATOM     26  C   UNL     1      48.281   6.545  14.699  0.00  0.00    +0.000 A 
BRANCH  24  27
ATOM     27  C   UNL     1      48.108   4.489  17.910  0.00  0.00    +0.000 C 
BRANCH  27  28
ATOM     28  N   UNL     1      47.133   5.143  18.778  0.00  0.00    +0.000 NA
ATOM     29  H   UNL     1      46.512   4.437  19.171  0.00  0.00    +0.000 HD
BRANCH  28  30
ATOM     30  C   UNL     1      47.821   5.844  19.859  0.00  0.00    +0.000 C 
BRANCH  30  31
ATOM     31  C   UNL     1      48.249   7.227  19.434  0.00  0.00    +0.000 A 
ATOM     32  C   UNL     1      49.601   7.582  19.430  0.00  0.00    +0.000 A 
ATOM     33  C   UNL     1      49.951   8.859  19.014  0.00  0.00    +0.000 A 
ATOM     34  N   UNL     1      49.062   9.787  18.608  0.00  0.00    +0.000 NA
ATOM     35  C   UNL     1      47.761   9.427  18.620  0.00  0.00    +0.000 A 
ATOM     36  C   UNL     1      47.313   8.176  19.016  0.00  0.00    +0.000 A 
ENDBRANCH  30  31
ENDBRANCH  28  30
ENDBRANCH  27  28
ENDBRANCH  24  27
ENDBRANCH  20  21
ENDBRANCH   1  20
TORSDOF 10
ENDMDL
MODEL 6
REMARK VINA RESULT:    -6.843      2.246      4.651
REMARK INTER + INTRA:         -12.301
REMARK INTER:                 -10.775
REMARK INTRA:                  -1.526
REMARK UNBOUND:                -1.657
REMARK  Name = 
REMARK  10 active torsions:
REMARK  status: ('A' for Active; 'I' for Inactive)
REMARK    1  A    between atoms: N_1  and  C_2
REMARK    2  A    between atoms: C_2  and  C_3
REMARK    3  A    between atoms: C_3  and  N_4
REMARK    4  A    between atoms: N_4  and  C_5
REMARK    5  A    between atoms: C_5  and  C_6
REMARK    6  A    between atoms: C_9  and  C_10
REMARK    7  A    between atoms: C_10  and  N_11
REMARK    8  A    between atoms: N_11  and  C_12
REMARK    9  A    between atoms: C_12  and  C_13
REMARK   10  A    between atoms: C_21  and  C_23
REMARK                            x       y       z     vdW  Elec       q    Type
REMARK                         _______ _______ _______ _____ _____    ______ ____
ROOT
ATOM      1  N   UNL     1      48.414   7.501  14.498  0.00  0.00    +0.000 N 
ATOM      2  C   UNL     1      48.465   8.920  14.421  0.00  0.00    +0.000 C 
ATOM      3  O   UNL     1      48.473   9.591  15.451  0.00  0.00    +0.000 OA
ENDROOT
BRANCH   2   4
ATOM      4  C   UNL     1      48.466   9.624  13.117  0.00  0.00    +0.000 A 
ATOM      5  C   UNL     1      47.367  10.176  12.482  0.00  0.00    +0.000 A 
ATOM      6  S   UNL     1      47.702  11.109  11.104  0.00  0.00    +0.000 S 
ATOM      7  C   UNL     1      49.357  10.782  11.246  0.00  0.00    +0.000 A 
ATOM      8  N   UNL     1      50.227  11.302  10.342  0.00  0.00    +0.000 NA
ATOM      9  C   UNL     1      51.456  10.980  10.561  0.00  0.00    +0.000 A 
ATOM     10  N   UNL     1      51.884  10.177  11.584  0.00  0.00    +0.000 N 
ATOM     11  C   UNL     1      51.027   9.551  12.472  0.00  0.00    +0.000 A 
ATOM     12  O   UNL     1      51.438   8.678  13.225  0.00  0.00    +0.000 OA
ATOM     13  C   UNL     1      49.640   9.950  12.319  0.00  0.00    +0.000 A 
ATOM     14  H   UNL     1      52.851   9.903  11.644  0.00  0.00    +0.000 HD
ENDBRANCH   2   4
BRANCH   1  15
ATOM     15  C   UNL     1      48.568   6.953  15.865  0.00  0.00    +0.000 C 
BRANCH  15  16
ATOM     16  C   UNL     1      49.974   6.606  16.415  0.00  0.00    +0.000 C 
BRANCH  16  17
ATOM     17  N   UNL     1      50.207   5.185  16.698  0.00  0.00    +0.000 NA
ATOM     18  H   UNL     1      51.164   5.066  17.031  0.00  0.00    +0.000 HD
ATOM     19  H   UNL     1      50.132   4.641  15.838  0.00  0.00    +0.000 HD
ENDBRANCH  16  17
ENDBRANCH  15  16
ENDBRANCH   1  15
BRANCH   1  20
ATOM     20  C   UNL     1      48.684   6.614  13.365  0.00  0.00    +0.000 C 
BRANCH  20  21
ATOM     21  C   UNL     1      47.444   6.024  12.711  0.00  0.00    +0.000 A 
ATOM     22  C   UNL     1      46.755   4.916  13.228  0.00  0.00    +0.000 A 
ATOM     23  C   UNL     1      45.551   4.480  12.674  0.00  0.00    +0.000 A 
ATOM     24  C   UNL     1      45.077   5.046  11.491  0.00  0.00    +0.000 A 
ATOM     25  C   UNL     1      45.771   6.127  10.939  0.00  0.00    +0.000 A 
ATOM     26  C   UNL     1      46.915   6.633  11.566  0.00  0.00    +0.000 A 
BRANCH  24  27
ATOM     27  C   UNL     1      43.912   4.414  10.777  0.00  0.00    +0.000 C 
BRANCH  27  28
ATOM     28  N   UNL     1      44.316   3.279   9.952  0.00  0.00    +0.000 NA
ATOM     29  H   UNL     1      43.541   2.619   9.892  0.00  0.00    +0.000 HD
BRANCH  28  30
ATOM     30  C   UNL     1      44.669   3.740   8.611  0.00  0.00    +0.000 C 
BRANCH  30  31
ATOM     31  C   UNL     1      45.776   2.906   8.016  0.00  0.00    +0.000 A 
ATOM     32  C   UNL     1      45.866   1.540   8.300  0.00  0.00    +0.000 A 
ATOM     33  C   UNL     1      46.890   0.807   7.716  0.00  0.00    +0.000 A 
ATOM     34  N   UNL     1      47.811   1.333   6.884  0.00  0.00    +0.000 NA
ATOM     35  C   UNL     1      47.708   2.653   6.624  0.00  0.00    +0.000 A 
ATOM     36  C   UNL     1      46.722   3.468   7.156  0.00  0.00    +0.000 A 
ENDBRANCH  30  31
ENDBRANCH  28  30
ENDBRANCH  27  28
ENDBRANCH  24  27
ENDBRANCH  20  21
ENDBRANCH   1  20
TORSDOF 10
ENDMDL
MODEL 7
REMARK VINA RESULT:    -6.539      1.968      2.491
REMARK INTER + INTRA:         -11.828
REMARK INTER:                 -10.359
REMARK INTRA:                  -1.470
REMARK UNBOUND:                -1.657
REMARK  Name = 
REMARK  10 active torsions:
REMARK  status: ('A' for Active; 'I' for Inactive)
REMARK    1  A    between atoms: N_1  and  C_2
REMARK    2  A    between atoms: C_2  and  C_3
REMARK    3  A    between atoms: C_3  and  N_4
REMARK    4  A    between atoms: N_4  and  C_5
REMARK    5  A    between atoms: C_5  and  C_6
REMARK    6  A    between atoms: C_9  and  C_10
REMARK    7  A    between atoms: C_10  and  N_11
REMARK    8  A    between atoms: N_11  and  C_12
REMARK    9  A    between atoms: C_12  and  C_13
REMARK   10  A    between atoms: C_21  and  C_23
REMARK                            x       y       z     vdW  Elec       q    Type
REMARK                         _______ _______ _______ _____ _____    ______ ____
ROOT
ATOM      1  N   UNL     1      48.687   7.993  14.476  0.00  0.00    +0.000 N 
ATOM      2  C   UNL     1      49.104   7.858  15.829  0.00  0.00    +0.000 C 
ATOM      3  O   UNL     1      48.601   8.564  16.700  0.00  0.00    +0.000 OA
ENDROOT
BRANCH   2   4
ATOM      4  C   UNL     1      50.172   6.906  16.217  0.00  0.00    +0.000 A 
ATOM      5  C   UNL     1      51.535   7.132  16.151  0.00  0.00    +0.000 A 
ATOM      6  S   UNL     1      52.516   5.945  16.865  0.00  0.00    +0.000 S 
ATOM      7  C   UNL     1      51.157   5.018  17.264  0.00  0.00    +0.000 A 
ATOM      8  N   UNL     1      51.315   3.835  17.912  0.00  0.00    +0.000 NA
ATOM      9  C   UNL     1      50.205   3.226  18.159  0.00  0.00    +0.000 A 
ATOM     10  N   UNL     1      48.966   3.686  17.802  0.00  0.00    +0.000 N 
ATOM     11  C   UNL     1      48.763   4.836  17.062  0.00  0.00    +0.000 A 
ATOM     12  O   UNL     1      47.663   5.086  16.585  0.00  0.00    +0.000 OA
ATOM     13  C   UNL     1      49.975   5.600  16.833  0.00  0.00    +0.000 A 
ATOM     14  H   UNL     1      48.149   3.116  17.957  0.00  0.00    +0.000 HD
ENDBRANCH   2   4
BRANCH   1  15
ATOM     15  C   UNL     1      47.515   8.876  14.280  0.00  0.00    +0.000 C 
BRANCH  15  16
ATOM     16  C   UNL     1      47.590  10.069  13.294  0.00  0.00    +0.000 C 
BRANCH  16  17
ATOM     17  N   UNL     1      48.413  11.201  13.736  0.00  0.00    +0.000 NA
ATOM     18  H   UNL     1      48.106  11.491  14.664  0.00  0.00    +0.000 HD
ATOM     19  H   UNL     1      48.266  12.001  13.121  0.00  0.00    +0.000 HD
ENDBRANCH  16  17
ENDBRANCH  15  16
ENDBRANCH   1  15
BRANCH   1  20
ATOM     20  C   UNL     1      49.005   7.026  13.425  0.00  0.00    +0.000 C 
BRANCH  20  21
ATOM     21  C   UNL     1      47.803   6.287  12.857  0.00  0.00    +0.000 A 
ATOM     22  C   UNL     1      47.104   6.717  11.718  0.00  0.00    +0.000 A 
ATOM     23  C   UNL     1      46.086   5.949  11.152  0.00  0.00    +0.000 A 
ATOM     24  C   UNL     1      45.634   4.798  11.796  0.00  0.00    +0.000 A 
ATOM     25  C   UNL     1      46.294   4.374  12.954  0.00  0.00    +0.000 A 
ATOM     26  C   UNL     1      47.389   5.088  13.451  0.00  0.00    +0.000 A 
BRANCH  24  27
ATOM     27  C   UNL     1      44.386   4.111  11.307  0.00  0.00    +0.000 C 
BRANCH  27  28
ATOM     28  N   UNL     1      44.648   2.755  10.834  0.00  0.00    +0.000 NA
ATOM     29  H   UNL     1      44.125   2.096  11.409  0.00  0.00    +0.000 HD
BRANCH  28  30
ATOM     30  C   UNL     1      44.229   2.625   9.440  0.00  0.00    +0.000 C 
BRANCH  30  31
ATOM     31  C   UNL     1      45.417   2.583   8.511  0.00  0.00    +0.000 A 
ATOM     32  C   UNL     1      45.884   3.752   7.903  0.00  0.00    +0.000 A 
ATOM     33  C   UNL     1      46.991   3.670   7.070  0.00  0.00    +0.000 A 
ATOM     34  N   UNL     1      47.650   2.524   6.807  0.00  0.00    +0.000 NA
ATOM     35  C   UNL     1      47.183   1.406   7.400  0.00  0.00    +0.000 A 
ATOM     36  C   UNL     1      46.087   1.386   8.250  0.00  0.00    +0.000 A 
ENDBRANCH  30  31
ENDBRANCH  28  30
ENDBRANCH  27  28
ENDBRANCH  24  27
ENDBRANCH  20  21
ENDBRANCH   1  20
TORSDOF 10
ENDMDL
MODEL 8
REMARK VINA RESULT:    -6.528      2.643      4.691
REMARK INTER + INTRA:         -11.810
REMARK INTER:                 -10.381
REMARK INTRA:                  -1.429
REMARK UNBOUND:                -1.657
REMARK  Name = 
REMARK  10 active torsions:
REMARK  status: ('A' for Active; 'I' for Inactive)
REMARK    1  A    between atoms: N_1  and  C_2
REMARK    2  A    between atoms: C_2  and  C_3
REMARK    3  A    between atoms: C_3  and  N_4
REMARK    4  A    between atoms: N_4  and  C_5
REMARK    5  A    between atoms: C_5  and  C_6
REMARK    6  A    between atoms: C_9  and  C_10
REMARK    7  A    between atoms: C_10  and  N_11
REMARK    8  A    between atoms: N_11  and  C_12
REMARK    9  A    between atoms: C_12  and  C_13
REMARK   10  A    between atoms: C_21  and  C_23
REMARK                            x       y       z     vdW  Elec       q    Type
REMARK                         _______ _______ _______ _____ _____    ______ ____
ROOT
ATOM      1  N   UNL     1      48.875   8.451  14.499  0.00  0.00    +0.000 N 
ATOM      2  C   UNL     1      49.824   9.399  14.028  0.00  0.00    +0.000 C 
ATOM      3  O   UNL     1      49.820  10.545  14.475  0.00  0.00    +0.000 OA
ENDROOT
BRANCH   2   4
ATOM      4  C   UNL     1      50.802   9.054  12.970  0.00  0.00    +0.000 A 
ATOM      5  C   UNL     1      50.646   9.260  11.611  0.00  0.00    +0.000 A 
ATOM      6  S   UNL     1      52.020   8.965  10.658  0.00  0.00    +0.000 S 
ATOM      7  C   UNL     1      52.902   8.487  12.020  0.00  0.00    +0.000 A 
ATOM      8  N   UNL     1      54.196   8.096  11.883  0.00  0.00    +0.000 NA
ATOM      9  C   UNL     1      54.756   7.758  12.994  0.00  0.00    +0.000 A 
ATOM     10  N   UNL     1      54.136   7.760  14.215  0.00  0.00    +0.000 N 
ATOM     11  C   UNL     1      52.798   8.061  14.390  0.00  0.00    +0.000 A 
ATOM     12  O   UNL     1      52.242   7.839  15.458  0.00  0.00    +0.000 OA
ATOM     13  C   UNL     1      52.145   8.530  13.181  0.00  0.00    +0.000 A 
ATOM     14  H   UNL     1      54.614   7.405  15.028  0.00  0.00    +0.000 HD
ENDBRANCH   2   4
BRANCH   1  15
ATOM     15  C   UNL     1      48.070   8.908  15.655  0.00  0.00    +0.000 C 
BRANCH  15  16
ATOM     16  C   UNL     1      48.557   8.640  17.101  0.00  0.00    +0.000 C 
BRANCH  16  17
ATOM     17  N   UNL     1      47.497   8.458  18.100  0.00  0.00    +0.000 NA
ATOM     18  H   UNL     1      46.601   8.380  17.621  0.00  0.00    +0.000 HD
ATOM     19  H   UNL     1      47.435   9.283  18.697  0.00  0.00    +0.000 HD
ENDBRANCH  16  17
ENDBRANCH  15  16
ENDBRANCH   1  15
BRANCH   1  20
ATOM     20  C   UNL     1      48.970   7.011  14.252  0.00  0.00    +0.000 C 
BRANCH  20  21
ATOM     21  C   UNL     1      47.905   6.456  13.319  0.00  0.00    +0.000 A 
ATOM     22  C   UNL     1      47.121   5.334  13.628  0.00  0.00    +0.000 A 
ATOM     23  C   UNL     1      46.070   4.927  12.806  0.00  0.00    +0.000 A 
ATOM     24  C   UNL     1      45.866   5.542  11.571  0.00  0.00    +0.000 A 
ATOM     25  C   UNL     1      46.663   6.639  11.228  0.00  0.00    +0.000 A 
ATOM     26  C   UNL     1      47.640   7.112  12.110  0.00  0.00    +0.000 A 
BRANCH  24  27
ATOM     27  C   UNL     1      44.887   4.946  10.594  0.00  0.00    +0.000 C 
BRANCH  27  28
ATOM     28  N   UNL     1      45.371   5.006   9.218  0.00  0.00    +0.000 NA
ATOM     29  H   UNL     1      46.385   4.906   9.218  0.00  0.00    +0.000 HD
BRANCH  28  30
ATOM     30  C   UNL     1      44.774   3.927   8.434  0.00  0.00    +0.000 C 
BRANCH  30  31
ATOM     31  C   UNL     1      45.830   3.010   7.867  0.00  0.00    +0.000 A 
ATOM     32  C   UNL     1      46.767   3.491   6.947  0.00  0.00    +0.000 A 
ATOM     33  C   UNL     1      47.731   2.617   6.465  0.00  0.00    +0.000 A 
ATOM     34  N   UNL     1      47.824   1.323   6.830  0.00  0.00    +0.000 NA
ATOM     35  C   UNL     1      46.909   0.877   7.717  0.00  0.00    +0.000 A 
ATOM     36  C   UNL     1      45.910   1.672   8.257  0.00  0.00    +0.000 A 
ENDBRANCH  30  31
ENDBRANCH  28  30
ENDBRANCH  27  28
ENDBRANCH  24  27
ENDBRANCH  20  21
ENDBRANCH   1  20
TORSDOF 10
ENDMDL
MODEL 9
REMARK VINA RESULT:    -6.222      3.554      8.728
REMARK INTER + INTRA:         -11.335
REMARK INTER:                  -9.410
REMARK INTRA:                  -1.925
REMARK UNBOUND:                -1.657
REMARK  Name = 
REMARK  10 active torsions:
REMARK  status: ('A' for Active; 'I' for Inactive)
REMARK    1  A    between atoms: N_1  and  C_2
REMARK    2  A    between atoms: C_2  and  C_3
REMARK    3  A    between atoms: C_3  and  N_4
REMARK    4  A    between atoms: N_4  and  C_5
REMARK    5  A    between atoms: C_5  and  C_6
REMARK    6  A    between atoms: C_9  and  C_10
REMARK    7  A    between atoms: C_10  and  N_11
REMARK    8  A    between atoms: N_11  and  C_12
REMARK    9  A    between atoms: C_12  and  C_13
REMARK   10  A    between atoms: C_21  and  C_23
REMARK                            x       y       z     vdW  Elec       q    Type
REMARK                         _______ _______ _______ _____ _____    ______ ____
ROOT
ATOM      1  N   UNL     1      46.368   7.434  12.527  0.00  0.00    +0.000 N 
ATOM      2  C   UNL     1      45.313   7.320  11.580  0.00  0.00    +0.000 C 
ATOM      3  O   UNL     1      44.547   8.264  11.399  0.00  0.00    +0.000 OA
ENDROOT
BRANCH   2   4
ATOM      4  C   UNL     1      45.082   6.065  10.826  0.00  0.00    +0.000 A 
ATOM      5  C   UNL     1      45.587   5.754   9.577  0.00  0.00    +0.000 A 
ATOM      6  S   UNL     1      45.334   4.159   9.054  0.00  0.00    +0.000 S 
ATOM      7  C   UNL     1      44.475   3.799  10.467  0.00  0.00    +0.000 A 
ATOM      8  N   UNL     1      43.966   2.552  10.647  0.00  0.00    +0.000 NA
ATOM      9  C   UNL     1      43.335   2.406  11.763  0.00  0.00    +0.000 A 
ATOM     10  N   UNL     1      43.156   3.393  12.695  0.00  0.00    +0.000 N 
ATOM     11  C   UNL     1      43.575   4.699  12.513  0.00  0.00    +0.000 A 
ATOM     12  O   UNL     1      43.202   5.585  13.271  0.00  0.00    +0.000 OA
ATOM     13  C   UNL     1      44.364   4.894  11.311  0.00  0.00    +0.000 A 
ATOM     14  H   UNL     1      42.582   3.227  13.506  0.00  0.00    +0.000 HD
ENDBRANCH   2   4
BRANCH   1  15
ATOM     15  C   UNL     1      46.552   8.793  13.083  0.00  0.00    +0.000 C 
BRANCH  15  16
ATOM     16  C   UNL     1      47.852   9.585  12.799  0.00  0.00    +0.000 C 
BRANCH  16  17
ATOM     17  N   UNL     1      48.291  10.484  13.873  0.00  0.00    +0.000 NA
ATOM     18  H   UNL     1      48.986  11.131  13.500  0.00  0.00    +0.000 HD
ATOM     19  H   UNL     1      48.758   9.950  14.606  0.00  0.00    +0.000 HD
ENDBRANCH  16  17
ENDBRANCH  15  16
ENDBRANCH   1  15
BRANCH   1  20
ATOM     20  C   UNL     1      47.489   6.496  12.614  0.00  0.00    +0.000 C 
BRANCH  20  21
ATOM     21  C   UNL     1      47.687   5.869  13.986  0.00  0.00    +0.000 A 
ATOM     22  C   UNL     1      48.531   6.415  14.966  0.00  0.00    +0.000 A 
ATOM     23  C   UNL     1      48.594   5.885  16.255  0.00  0.00    +0.000 A 
ATOM     24  C   UNL     1      47.925   4.700  16.560  0.00  0.00    +0.000 A 
ATOM     25  C   UNL     1      47.108   4.120  15.584  0.00  0.00    +0.000 A 
ATOM     26  C   UNL     1      46.961   4.722  14.329  0.00  0.00    +0.000 A 
BRANCH  24  27
ATOM     27  C   UNL     1      48.187   4.013  17.874  0.00  0.00    +0.000 C 
BRANCH  27  28
ATOM     28  N   UNL     1      47.572   4.713  18.998  0.00  0.00    +0.000 NA
ATOM     29  H   UNL     1      47.003   4.054  19.528  0.00  0.00    +0.000 HD
BRANCH  28  30
ATOM     30  C   UNL     1      48.609   5.268  19.865  0.00  0.00    +0.000 C 
BRANCH  30  31
ATOM     31  C   UNL     1      48.581   6.777  19.860  0.00  0.00    +0.000 A 
ATOM     32  C   UNL     1      49.688   7.509  20.298  0.00  0.00    +0.000 A 
ATOM     33  C   UNL     1      49.625   8.895  20.259  0.00  0.00    +0.000 A 
ATOM     34  N   UNL     1      48.553   9.586  19.822  0.00  0.00    +0.000 NA
ATOM     35  C   UNL     1      47.494   8.862  19.405  0.00  0.00    +0.000 A 
ATOM     36  C   UNL     1      47.461   7.476  19.403  0.00  0.00    +0.000 A 
ENDBRANCH  30  31
ENDBRANCH  28  30
ENDBRANCH  27  28
ENDBRANCH  24  27
ENDBRANCH  20  21
ENDBRANCH   1  20
TORSDOF 10
ENDMDL
