MODEL 1
REMARK VINA RESULT:    -7.686      0.000      0.000
REMARK INTER + INTRA:         -11.024
REMARK INTER:                 -10.158
REMARK INTRA:                  -0.866
REMARK UNBOUND:                -0.866
REMARK  Name = 
REMARK  6 active torsions:
REMARK  status: ('A' for Active; 'I' for Inactive)
REMARK    1  A    between atoms: N_1  and  C_2
REMARK    2  A    between atoms: C_2  and  C_3
REMARK    3  A    between atoms: C_6  and  O_7
REMARK    4  A    between atoms: O_7  and  C_8
REMARK    5  A    between atoms: C_8  and  C_9
REMARK    6  A    between atoms: C_14  and  C_15
REMARK                            x       y       z     vdW  Elec       q    Type
REMARK                         _______ _______ _______ _____ _____    ______ ____
ROOT
ATOM      1  C   UNL     1      43.368   4.247  11.037  0.00  0.00    +0.000 C 
ENDROOT
BRANCH   1   2
ATOM      2  C   UNL     1      44.379   5.056  11.814  0.00  0.00    +0.000 A 
ATOM      3  C   UNL     1      44.418   6.448  11.641  0.00  0.00    +0.000 A 
ATOM      4  C   UNL     1      45.299   7.226  12.386  0.00  0.00    +0.000 A 
ATOM      5 BR   UNL     1      45.331   9.100  12.134  0.00  0.00    +0.000 Br
ATOM      6  C   UNL     1      46.143   6.637  13.325  0.00  0.00    +0.000 A 
ATOM      7  C   UNL     1      46.108   5.249  13.529  0.00  0.00    +0.000 A 
ATOM      8  C   UNL     1      45.224   4.466  12.764  0.00  0.00    +0.000 A 
BRANCH   7   9
ATOM      9  C   UNL     1      46.988   4.592  14.562  0.00  0.00    +0.000 C 
ATOM     10  F   UNL     1      48.085   5.329  14.889  0.00  0.00    +0.000 F 
ATOM     11  F   UNL     1      46.329   4.368  15.734  0.00  0.00    +0.000 F 
ATOM     12  F   UNL     1      47.458   3.380  14.159  0.00  0.00    +0.000 F 
ENDBRANCH   7   9
ENDBRANCH   1   2
BRANCH   1  13
ATOM     13  O   UNL     1      43.523   4.421   9.627  0.00  0.00    +0.000 OA
BRANCH  13  17
ATOM     14  C   UNL     1      46.561   2.271   7.722  0.00  0.00    +0.000 A 
ATOM     15  C   UNL     1      46.424   3.660   7.567  0.00  0.00    +0.000 A 
ATOM     16  C   UNL     1      45.421   4.355   8.247  0.00  0.00    +0.000 A 
ATOM     17  C   UNL     1      44.535   3.672   9.082  0.00  0.00    +0.000 A 
ATOM     18  C   UNL     1      44.710   2.303   9.293  0.00  0.00    +0.000 A 
ATOM     19  C   UNL     1      45.707   1.604   8.607  0.00  0.00    +0.000 A 
BRANCH  14  20
ATOM     20  C   UNL     1      47.585   1.497   6.934  0.00  0.00    +0.000 C 
BRANCH  20  21
ATOM     21  N   UNL     1      48.597   2.372   6.361  0.00  0.00    +0.000 NA
ATOM     22  H   UNL     1      48.966   1.940   5.516  0.00  0.00    +0.000 HD
ATOM     23  H   UNL     1      49.375   2.444   7.013  0.00  0.00    +0.000 HD
ENDBRANCH  20  21
ENDBRANCH  14  20
ENDBRANCH  13  17
ENDBRANCH   1  13
TORSDOF 6
ENDMDL
MODEL 2
REMARK VINA RESULT:    -7.574      2.507      3.021
REMARK INTER + INTRA:         -10.876
REMARK INTER:                 -10.058
REMARK INTRA:                  -0.818
REMARK UNBOUND:                -0.866
REMARK  Name = 
REMARK  6 active torsions:
REMARK  status: ('A' for Active; 'I' for Inactive)
REMARK    1  A    between atoms: N_1  and  C_2
REMARK    2  A    between atoms: C_2  and  C_3
REMARK    3  A    between atoms: C_6  and  O_7
REMARK    4  A    between atoms: O_7  and  C_8
REMARK    5  A    between atoms: C_8  and  C_9
REMARK    6  A    between atoms: C_14  and  C_15
REMARK                            x       y       z     vdW  Elec       q    Type
REMARK                         _______ _______ _______ _____ _____    ______ ____
ROOT
ATOM      1  C   UNL     1      43.589   3.958  10.804  0.00  0.00    +0.000 C 
ENDROOT
BRANCH   1   2
ATOM      2  C   UNL     1      44.438   4.827  11.702  0.00  0.00    +0.000 A 
ATOM      3  C   UNL     1      45.232   4.221  12.687  0.00  0.00    +0.000 A 
ATOM      4  C   UNL     1      46.069   4.991  13.489  0.00  0.00    +0.000 A 
ATOM      5 BR   UNL     1      47.129   4.149  14.810  0.00  0.00    +0.000 Br
ATOM      6  C   UNL     1      46.142   6.371  13.316  0.00  0.00    +0.000 A 
ATOM      7  C   UNL     1      45.371   6.998  12.324  0.00  0.00    +0.000 A 
ATOM      8  C   UNL     1      44.517   6.215  11.524  0.00  0.00    +0.000 A 
BRANCH   7   9
ATOM      9  C   UNL     1      45.456   8.485  12.095  0.00  0.00    +0.000 C 
ATOM     10  F   UNL     1      44.641   8.929  11.099  0.00  0.00    +0.000 F 
ATOM     11  F   UNL     1      45.110   9.198  13.203  0.00  0.00    +0.000 F 
ATOM     12  F   UNL     1      46.711   8.895  11.763  0.00  0.00    +0.000 F 
ENDBRANCH   7   9
ENDBRANCH   1   2
BRANCH   1  13
ATOM     13  O   UNL     1      43.811   4.252   9.422  0.00  0.00    +0.000 OA
BRANCH  13  17
ATOM     14  C   UNL     1      46.860   2.176   7.453  0.00  0.00    +0.000 A 
ATOM     15  C   UNL     1      46.724   3.570   7.351  0.00  0.00    +0.000 A 
ATOM     16  C   UNL     1      45.717   4.239   8.052  0.00  0.00    +0.000 A 
ATOM     17  C   UNL     1      44.826   3.524   8.854  0.00  0.00    +0.000 A 
ATOM     18  C   UNL     1      45.000   2.148   9.013  0.00  0.00    +0.000 A 
ATOM     19  C   UNL     1      46.000   1.476   8.307  0.00  0.00    +0.000 A 
BRANCH  14  20
ATOM     20  C   UNL     1      47.888   1.433   6.642  0.00  0.00    +0.000 C 
BRANCH  20  21
ATOM     21  N   UNL     1      48.384   2.237   5.535  0.00  0.00    +0.000 NA
ATOM     22  H   UNL     1      47.621   2.805   5.171  0.00  0.00    +0.000 HD
ATOM     23  H   UNL     1      48.666   1.615   4.779  0.00  0.00    +0.000 HD
ENDBRANCH  20  21
ENDBRANCH  14  20
ENDBRANCH  13  17
ENDBRANCH   1  13
TORSDOF 6
ENDMDL
MODEL 3
REMARK VINA RESULT:    -7.339      2.437      2.912
REMARK INTER + INTRA:         -10.565
REMARK INTER:                  -9.816
REMARK INTRA:                  -0.749
REMARK UNBOUND:                -0.866
REMARK  Name = 
REMARK  6 active torsions:
REMARK  status: ('A' for Active; 'I' for Inactive)
REMARK    1  A    between atoms: N_1  and  C_2
REMARK    2  A    between atoms: C_2  and  C_3
REMARK    3  A    between atoms: C_6  and  O_7
REMARK    4  A    between atoms: O_7  and  C_8
REMARK    5  A    between atoms: C_8  and  C_9
REMARK    6  A    between atoms: C_14  and  C_15
REMARK                            x       y       z     vdW  Elec       q    Type
REMARK                         _______ _______ _______ _____ _____    ______ ____
ROOT
ATOM      1  C   UNL     1      44.122   4.557  11.482  0.00  0.00    +0.000 C 
ENDROOT
BRANCH   1   2
ATOM      2  C   UNL     1      45.283   5.108  12.276  0.00  0.00    +0.000 A 
ATOM      3  C   UNL     1      45.678   4.452  13.452  0.00  0.00    +0.000 A 
ATOM      4  C   UNL     1      46.780   4.901  14.173  0.00  0.00    +0.000 A 
ATOM      5 BR   UNL     1      47.291   3.999  15.755  0.00  0.00    +0.000 Br
ATOM      6  C   UNL     1      47.517   5.997  13.730  0.00  0.00    +0.000 A 
ATOM      7  C   UNL     1      47.153   6.657  12.546  0.00  0.00    +0.000 A 
ATOM      8  C   UNL     1      46.029   6.206  11.828  0.00  0.00    +0.000 A 
BRANCH   7   9
ATOM      9  C   UNL     1      47.953   7.825  12.028  0.00  0.00    +0.000 C 
ATOM     10  F   UNL     1      47.187   8.890  11.664  0.00  0.00    +0.000 F 
ATOM     11  F   UNL     1      48.831   8.300  12.955  0.00  0.00    +0.000 F 
ATOM     12  F   UNL     1      48.697   7.508  10.934  0.00  0.00    +0.000 F 
ENDBRANCH   7   9
ENDBRANCH   1   2
BRANCH   1  13
ATOM     13  O   UNL     1      44.239   4.870  10.092  0.00  0.00    +0.000 OA
BRANCH  13  17
ATOM     14  C   UNL     1      46.421   2.243   7.680  0.00  0.00    +0.000 A 
ATOM     15  C   UNL     1      46.507   3.636   7.528  0.00  0.00    +0.000 A 
ATOM     16  C   UNL     1      45.794   4.489   8.375  0.00  0.00    +0.000 A 
ATOM     17  C   UNL     1      44.977   3.961   9.377  0.00  0.00    +0.000 A 
ATOM     18  C   UNL     1      44.942   2.580   9.576  0.00  0.00    +0.000 A 
ATOM     19  C   UNL     1      45.648   1.725   8.725  0.00  0.00    +0.000 A 
BRANCH  14  20
ATOM     20  C   UNL     1      47.120   1.311   6.725  0.00  0.00    +0.000 C 
BRANCH  20  21
ATOM     21  N   UNL     1      48.419   1.830   6.321  0.00  0.00    +0.000 NA
ATOM     22  H   UNL     1      49.118   1.100   6.442  0.00  0.00    +0.000 HD
ATOM     23  H   UNL     1      48.679   2.587   6.950  0.00  0.00    +0.000 HD
ENDBRANCH  20  21
ENDBRANCH  14  20
ENDBRANCH  13  17
ENDBRANCH   1  13
TORSDOF 6
ENDMDL
MODEL 4
REMARK VINA RESULT:    -7.222      1.347      2.028
REMARK INTER + INTRA:         -10.410
REMARK INTER:                  -9.653
REMARK INTRA:                  -0.757
REMARK UNBOUND:                -0.866
REMARK  Name = 
REMARK  6 active torsions:
REMARK  status: ('A' for Active; 'I' for Inactive)
REMARK    1  A    between atoms: N_1  and  C_2
REMARK    2  A    between atoms: C_2  and  C_3
REMARK    3  A    between atoms: C_6  and  O_7
REMARK    4  A    between atoms: O_7  and  C_8
REMARK    5  A    between atoms: C_8  and  C_9
REMARK    6  A    between atoms: C_14  and  C_15
REMARK                            x       y       z     vdW  Elec       q    Type
REMARK                         _______ _______ _______ _____ _____    ______ ____
ROOT
ATOM      1  C   UNL     1      44.603   4.153  11.623  0.00  0.00    +0.000 C 
ENDROOT
BRANCH   1   2
ATOM      2  C   UNL     1      45.247   5.504  11.828  0.00  0.00    +0.000 A 
ATOM      3  C   UNL     1      44.553   6.658  11.434  0.00  0.00    +0.000 A 
ATOM      4  C   UNL     1      45.095   7.919  11.664  0.00  0.00    +0.000 A 
ATOM      5 BR   UNL     1      44.139   9.459  11.123  0.00  0.00    +0.000 Br
ATOM      6  C   UNL     1      46.326   8.055  12.302  0.00  0.00    +0.000 A 
ATOM      7  C   UNL     1      47.030   6.915  12.723  0.00  0.00    +0.000 A 
ATOM      8  C   UNL     1      46.482   5.642  12.476  0.00  0.00    +0.000 A 
BRANCH   7   9
ATOM      9  C   UNL     1      48.347   7.036  13.445  0.00  0.00    +0.000 C 
ATOM     10  F   UNL     1      48.661   8.315  13.791  0.00  0.00    +0.000 F 
ATOM     11  F   UNL     1      48.367   6.323  14.605  0.00  0.00    +0.000 F 
ATOM     12  F   UNL     1      49.395   6.581  12.706  0.00  0.00    +0.000 F 
ENDBRANCH   7   9
ENDBRANCH   1   2
BRANCH   1  13
ATOM     13  O   UNL     1      43.959   4.064  10.349  0.00  0.00    +0.000 OA
BRANCH  13  17
ATOM     14  C   UNL     1      46.508   2.344   7.517  0.00  0.00    +0.000 A 
ATOM     15  C   UNL     1      45.809   1.568   8.456  0.00  0.00    +0.000 A 
ATOM     16  C   UNL     1      44.935   2.170   9.365  0.00  0.00    +0.000 A 
ATOM     17  C   UNL     1      44.756   3.554   9.357  0.00  0.00    +0.000 A 
ATOM     18  C   UNL     1      45.396   4.321   8.381  0.00  0.00    +0.000 A 
ATOM     19  C   UNL     1      46.276   3.723   7.476  0.00  0.00    +0.000 A 
BRANCH  14  20
ATOM     20  C   UNL     1      47.512   1.719   6.585  0.00  0.00    +0.000 C 
BRANCH  20  21
ATOM     21  N   UNL     1      48.666   2.583   6.379  0.00  0.00    +0.000 NA
ATOM     22  H   UNL     1      48.390   3.548   6.551  0.00  0.00    +0.000 HD
ATOM     23  H   UNL     1      48.943   2.531   5.400  0.00  0.00    +0.000 HD
ENDBRANCH  20  21
ENDBRANCH  14  20
ENDBRANCH  13  17
ENDBRANCH   1  13
TORSDOF 6
ENDMDL
MODEL 5
REMARK VINA RESULT:    -7.154      3.053      3.750
REMARK INTER + INTRA:         -10.321
REMARK INTER:                  -9.554
REMARK INTRA:                  -0.767
REMARK UNBOUND:                -0.866
REMARK  Name = 
REMARK  6 active torsions:
REMARK  status: ('A' for Active; 'I' for Inactive)
REMARK    1  A    between atoms: N_1  and  C_2
REMARK    2  A    between atoms: C_2  and  C_3
REMARK    3  A    between atoms: C_6  and  O_7
REMARK    4  A    between atoms: O_7  and  C_8
REMARK    5  A    between atoms: C_8  and  C_9
REMARK    6  A    between atoms: C_14  and  C_15
REMARK                            x       y       z     vdW  Elec       q    Type
REMARK                         _______ _______ _______ _____ _____    ______ ____
ROOT
ATOM      1  C   UNL     1      44.116   4.222  11.119  0.00  0.00    +0.000 C 
ENDROOT
BRANCH   1   2
ATOM      2  C   UNL     1      44.718   5.555  11.496  0.00  0.00    +0.000 A 
ATOM      3  C   UNL     1      45.994   5.588  12.078  0.00  0.00    +0.000 A 
ATOM      4  C   UNL     1      46.599   6.804  12.382  0.00  0.00    +0.000 A 
ATOM      5 BR   UNL     1      48.320   6.820  13.166  0.00  0.00    +0.000 Br
ATOM      6  C   UNL     1      45.953   8.005  12.099  0.00  0.00    +0.000 A 
ATOM      7  C   UNL     1      44.683   7.998  11.499  0.00  0.00    +0.000 A 
ATOM      8  C   UNL     1      44.072   6.764  11.206  0.00  0.00    +0.000 A 
BRANCH   7   9
ATOM      9  C   UNL     1      43.978   9.284  11.154  0.00  0.00    +0.000 C 
ATOM     10  F   UNL     1      44.070  10.232  12.126  0.00  0.00    +0.000 F 
ATOM     11  F   UNL     1      44.480   9.860  10.026  0.00  0.00    +0.000 F 
ATOM     12  F   UNL     1      42.648   9.110  10.925  0.00  0.00    +0.000 F 
ENDBRANCH   7   9
ENDBRANCH   1   2
BRANCH   1  13
ATOM     13  O   UNL     1      43.774   4.171   9.731  0.00  0.00    +0.000 OA
BRANCH  13  17
ATOM     14  C   UNL     1      46.717   2.137   7.568  0.00  0.00    +0.000 A 
ATOM     15  C   UNL     1      45.821   1.467   8.415  0.00  0.00    +0.000 A 
ATOM     16  C   UNL     1      44.824   2.170   9.095  0.00  0.00    +0.000 A 
ATOM     17  C   UNL     1      44.716   3.554   8.948  0.00  0.00    +0.000 A 
ATOM     18  C   UNL     1      45.560   4.215   8.054  0.00  0.00    +0.000 A 
ATOM     19  C   UNL     1      46.563   3.515   7.379  0.00  0.00    +0.000 A 
BRANCH  14  20
ATOM     20  C   UNL     1      47.845   1.405   6.891  0.00  0.00    +0.000 C 
BRANCH  20  21
ATOM     21  N   UNL     1      48.276   2.081   5.677  0.00  0.00    +0.000 NA
ATOM     22  H   UNL     1      48.717   2.963   5.929  0.00  0.00    +0.000 HD
ATOM     23  H   UNL     1      47.454   2.317   5.125  0.00  0.00    +0.000 HD
ENDBRANCH  20  21
ENDBRANCH  14  20
ENDBRANCH  13  17
ENDBRANCH   1  13
TORSDOF 6
ENDMDL
MODEL 6
REMARK VINA RESULT:    -5.878      4.958      7.197
REMARK INTER + INTRA:          -8.634
REMARK INTER:                  -8.036
REMARK INTRA:                  -0.597
REMARK UNBOUND:                -0.866
REMARK  Name = 
REMARK  6 active torsions:
REMARK  status: ('A' for Active; 'I' for Inactive)
REMARK    1  A    between atoms: N_1  and  C_2
REMARK    2  A    between atoms: C_2  and  C_3
REMARK    3  A    between atoms: C_6  and  O_7
REMARK    4  A    between atoms: O_7  and  C_8
REMARK    5  A    between atoms: C_8  and  C_9
REMARK    6  A    between atoms: C_14  and  C_15
REMARK                            x       y       z     vdW  Elec       q    Type
REMARK                         _______ _______ _______ _____ _____    ______ ____
ROOT
ATOM      1  C   UNL     1      47.071   3.642  14.067  0.00  0.00    +0.000 C 
ENDROOT
BRANCH   1   2
ATOM      2  C   UNL     1      46.443   4.827  13.371  0.00  0.00    +0.000 A 
ATOM      3  C   UNL     1      47.220   5.972  13.140  0.00  0.00    +0.000 A 
ATOM      4  C   UNL     1      46.687   7.057  12.450  0.00  0.00    +0.000 A 
ATOM      5 BR   UNL     1      47.755   8.589  12.150  0.00  0.00    +0.000 Br
ATOM      6  C   UNL     1      45.382   7.015  11.965  0.00  0.00    +0.000 A 
ATOM      7  C   UNL     1      44.592   5.872  12.168  0.00  0.00    +0.000 A 
ATOM      8  C   UNL     1      45.132   4.784  12.878  0.00  0.00    +0.000 A 
BRANCH   7   9
ATOM      9  C   UNL     1      43.188   5.790  11.626  0.00  0.00    +0.000 C 
ATOM     10  F   UNL     1      42.258   5.480  12.571  0.00  0.00    +0.000 F 
ATOM     11  F   UNL     1      42.778   6.967  11.075  0.00  0.00    +0.000 F 
ATOM     12  F   UNL     1      43.056   4.852  10.649  0.00  0.00    +0.000 F 
ENDBRANCH   7   9
ENDBRANCH   1   2
BRANCH   1  13
ATOM     13  O   UNL     1      46.788   3.642  15.469  0.00  0.00    +0.000 OA
BRANCH  13  17
ATOM     14  C   UNL     1      50.292   3.858  17.740  0.00  0.00    +0.000 A 
ATOM     15  C   UNL     1      49.534   5.000  17.432  0.00  0.00    +0.000 A 
ATOM     16  C   UNL     1      48.347   4.890  16.703  0.00  0.00    +0.000 A 
ATOM     17  C   UNL     1      47.908   3.640  16.262  0.00  0.00    +0.000 A 
ATOM     18  C   UNL     1      48.620   2.496  16.625  0.00  0.00    +0.000 A 
ATOM     19  C   UNL     1      49.811   2.604  17.347  0.00  0.00    +0.000 A 
BRANCH  14  20
ATOM     20  C   UNL     1      51.612   3.971  18.455  0.00  0.00    +0.000 C 
BRANCH  20  21
ATOM     21  N   UNL     1      52.323   2.701  18.475  0.00  0.00    +0.000 NA
ATOM     22  H   UNL     1      52.014   2.162  19.281  0.00  0.00    +0.000 HD
ATOM     23  H   UNL     1      53.316   2.883  18.613  0.00  0.00    +0.000 HD
ENDBRANCH  20  21
ENDBRANCH  14  20
ENDBRANCH  13  17
ENDBRANCH   1  13
TORSDOF 6
ENDMDL
MODEL 7
REMARK VINA RESULT:    -5.662      4.819      7.562
REMARK INTER + INTRA:          -8.349
REMARK INTER:                  -7.836
REMARK INTRA:                  -0.513
REMARK UNBOUND:                -0.866
REMARK  Name = 
REMARK  6 active torsions:
REMARK  status: ('A' for Active; 'I' for Inactive)
REMARK    1  A    between atoms: N_1  and  C_2
REMARK    2  A    between atoms: C_2  and  C_3
REMARK    3  A    between atoms: C_6  and  O_7
REMARK    4  A    between atoms: O_7  and  C_8
REMARK    5  A    between atoms: C_8  and  C_9
REMARK    6  A    between atoms: C_14  and  C_15
REMARK                            x       y       z     vdW  Elec       q    Type
REMARK                         _______ _______ _______ _____ _____    ______ ____
ROOT
ATOM      1  C   UNL     1      47.175   3.568  14.439  0.00  0.00    +0.000 C 
ENDROOT
BRANCH   1   2
ATOM      2  C   UNL     1      46.320   4.330  13.454  0.00  0.00    +0.000 A 
ATOM      3  C   UNL     1      46.348   5.732  13.468  0.00  0.00    +0.000 A 
ATOM      4  C   UNL     1      45.616   6.461  12.534  0.00  0.00    +0.000 A 
ATOM      5 BR   UNL     1      45.672   8.351  12.575  0.00  0.00    +0.000 Br
ATOM      6  C   UNL     1      44.860   5.809  11.563  0.00  0.00    +0.000 A 
ATOM      7  C   UNL     1      44.832   4.406  11.518  0.00  0.00    +0.000 A 
ATOM      8  C   UNL     1      45.563   3.675  12.472  0.00  0.00    +0.000 A 
BRANCH   7   9
ATOM      9  C   UNL     1      44.047   3.677  10.457  0.00  0.00    +0.000 C 
ATOM     10  F   UNL     1      43.581   4.491   9.470  0.00  0.00    +0.000 F 
ATOM     11  F   UNL     1      44.790   2.722   9.830  0.00  0.00    +0.000 F 
ATOM     12  F   UNL     1      42.957   3.035  10.958  0.00  0.00    +0.000 F 
ENDBRANCH   7   9
ENDBRANCH   1   2
BRANCH   1  13
ATOM     13  O   UNL     1      46.912   3.968  15.786  0.00  0.00    +0.000 OA
BRANCH  13  17
ATOM     14  C   UNL     1      50.389   4.203  18.095  0.00  0.00    +0.000 A 
ATOM     15  C   UNL     1      49.635   5.341  17.770  0.00  0.00    +0.000 A 
ATOM     16  C   UNL     1      48.457   5.226  17.028  0.00  0.00    +0.000 A 
ATOM     17  C   UNL     1      48.022   3.973  16.592  0.00  0.00    +0.000 A 
ATOM     18  C   UNL     1      48.731   2.832  16.971  0.00  0.00    +0.000 A 
ATOM     19  C   UNL     1      49.914   2.946  17.706  0.00  0.00    +0.000 A 
BRANCH  14  20
ATOM     20  C   UNL     1      51.702   4.321  18.824  0.00  0.00    +0.000 C 
BRANCH  20  21
ATOM     21  N   UNL     1      51.513   4.378  20.266  0.00  0.00    +0.000 NA
ATOM     22  H   UNL     1      50.556   4.662  20.463  0.00  0.00    +0.000 HD
ATOM     23  H   UNL     1      52.115   5.106  20.646  0.00  0.00    +0.000 HD
ENDBRANCH  20  21
ENDBRANCH  14  20
ENDBRANCH  13  17
ENDBRANCH   1  13
TORSDOF 6
ENDMDL
MODEL 8
REMARK VINA RESULT:    -5.561      4.489      5.864
REMARK INTER + INTRA:          -8.215
REMARK INTER:                  -7.608
REMARK INTRA:                  -0.607
REMARK UNBOUND:                -0.866
REMARK  Name = 
REMARK  6 active torsions:
REMARK  status: ('A' for Active; 'I' for Inactive)
REMARK    1  A    between atoms: N_1  and  C_2
REMARK    2  A    between atoms: C_2  and  C_3
REMARK    3  A    between atoms: C_6  and  O_7
REMARK    4  A    between atoms: O_7  and  C_8
REMARK    5  A    between atoms: C_8  and  C_9
REMARK    6  A    between atoms: C_14  and  C_15
REMARK                            x       y       z     vdW  Elec       q    Type
REMARK                         _______ _______ _______ _____ _____    ______ ____
ROOT
ATOM      1  C   UNL     1      48.452   6.915  14.395  0.00  0.00    +0.000 C 
ENDROOT
BRANCH   1   2
ATOM      2  C   UNL     1      48.611   6.385  15.801  0.00  0.00    +0.000 A 
ATOM      3  C   UNL     1      48.949   7.275  16.832  0.00  0.00    +0.000 A 
ATOM      4  C   UNL     1      49.044   6.827  18.145  0.00  0.00    +0.000 A 
ATOM      5 BR   UNL     1      49.501   8.047  19.517  0.00  0.00    +0.000 Br
ATOM      6  C   UNL     1      48.790   5.493  18.459  0.00  0.00    +0.000 A 
ATOM      7  C   UNL     1      48.431   4.589  17.447  0.00  0.00    +0.000 A 
ATOM      8  C   UNL     1      48.349   5.045  16.118  0.00  0.00    +0.000 A 
BRANCH   7   9
ATOM      9  C   UNL     1      48.120   3.149  17.764  0.00  0.00    +0.000 C 
ATOM     10  F   UNL     1      48.336   2.821  19.068  0.00  0.00    +0.000 F 
ATOM     11  F   UNL     1      46.817   2.836  17.515  0.00  0.00    +0.000 F 
ATOM     12  F   UNL     1      48.861   2.276  17.030  0.00  0.00    +0.000 F 
ENDBRANCH   7   9
ENDBRANCH   1   2
BRANCH   1  13
ATOM     13  O   UNL     1      48.290   5.857  13.447  0.00  0.00    +0.000 OA
BRANCH  13  17
ATOM     14  C   UNL     1      44.415   5.838  11.879  0.00  0.00    +0.000 A 
ATOM     15  C   UNL     1      45.419   6.676  11.369  0.00  0.00    +0.000 A 
ATOM     16  C   UNL     1      46.715   6.632  11.889  0.00  0.00    +0.000 A 
ATOM     17  C   UNL     1      47.022   5.758  12.934  0.00  0.00    +0.000 A 
ATOM     18  C   UNL     1      46.045   4.875  13.398  0.00  0.00    +0.000 A 
ATOM     19  C   UNL     1      44.747   4.923  12.884  0.00  0.00    +0.000 A 
BRANCH  14  20
ATOM     20  C   UNL     1      42.996   5.932  11.382  0.00  0.00    +0.000 C 
BRANCH  20  21
ATOM     21  N   UNL     1      42.628   7.303  11.060  0.00  0.00    +0.000 NA
ATOM     22  H   UNL     1      41.722   7.300  10.595  0.00  0.00    +0.000 HD
ATOM     23  H   UNL     1      43.297   7.672  10.388  0.00  0.00    +0.000 HD
ENDBRANCH  20  21
ENDBRANCH  14  20
ENDBRANCH  13  17
ENDBRANCH   1  13
TORSDOF 6
ENDMDL
MODEL 9
REMARK VINA RESULT:    -5.543      5.107      7.284
REMARK INTER + INTRA:          -8.191
REMARK INTER:                  -7.549
REMARK INTRA:                  -0.642
REMARK UNBOUND:                -0.866
REMARK  Name = 
REMARK  6 active torsions:
REMARK  status: ('A' for Active; 'I' for Inactive)
REMARK    1  A    between atoms: N_1  and  C_2
REMARK    2  A    between atoms: C_2  and  C_3
REMARK    3  A    between atoms: C_6  and  O_7
REMARK    4  A    between atoms: O_7  and  C_8
REMARK    5  A    between atoms: C_8  and  C_9
REMARK    6  A    between atoms: C_14  and  C_15
REMARK                            x       y       z     vdW  Elec       q    Type
REMARK                         _______ _______ _______ _____ _____    ______ ____
ROOT
ATOM      1  C   UNL     1      47.075   3.659  14.111  0.00  0.00    +0.000 C 
ENDROOT
BRANCH   1   2
ATOM      2  C   UNL     1      46.406   4.811  13.399  0.00  0.00    +0.000 A 
ATOM      3  C   UNL     1      45.070   4.678  12.991  0.00  0.00    +0.000 A 
ATOM      4  C   UNL     1      44.408   5.742  12.386  0.00  0.00    +0.000 A 
ATOM      5 BR   UNL     1      42.608   5.536  11.846  0.00  0.00    +0.000 Br
ATOM      6  C   UNL     1      45.057   6.959  12.191  0.00  0.00    +0.000 A 
ATOM      7  C   UNL     1      46.388   7.123  12.608  0.00  0.00    +0.000 A 
ATOM      8  C   UNL     1      47.055   6.038  13.208  0.00  0.00    +0.000 A 
BRANCH   7   9
ATOM      9  C   UNL     1      47.101   8.439  12.438  0.00  0.00    +0.000 C 
ATOM     10  F   UNL     1      48.182   8.369  11.612  0.00  0.00    +0.000 F 
ATOM     11  F   UNL     1      46.292   9.400  11.908  0.00  0.00    +0.000 F 
ATOM     12  F   UNL     1      47.562   8.944  13.614  0.00  0.00    +0.000 F 
ENDBRANCH   7   9
ENDBRANCH   1   2
BRANCH   1  13
ATOM     13  O   UNL     1      46.805   3.678  15.514  0.00  0.00    +0.000 OA
BRANCH  13  17
ATOM     14  C   UNL     1      50.333   3.941  17.743  0.00  0.00    +0.000 A 
ATOM     15  C   UNL     1      49.599   5.081  17.375  0.00  0.00    +0.000 A 
ATOM     16  C   UNL     1      48.404   4.957  16.663  0.00  0.00    +0.000 A 
ATOM     17  C   UNL     1      47.931   3.695  16.298  0.00  0.00    +0.000 A 
ATOM     18  C   UNL     1      48.620   2.557  16.721  0.00  0.00    +0.000 A 
ATOM     19  C   UNL     1      49.820   2.679  17.426  0.00  0.00    +0.000 A 
BRANCH  14  20
ATOM     20  C   UNL     1      51.662   4.063  18.440  0.00  0.00    +0.000 C 
BRANCH  20  21
ATOM     21  N   UNL     1      51.503   4.237  19.876  0.00  0.00    +0.000 NA
ATOM     22  H   UNL     1      51.410   5.230  20.081  0.00  0.00    +0.000 HD
ATOM     23  H   UNL     1      52.354   3.925  20.340  0.00  0.00    +0.000 HD
ENDBRANCH  20  21
ENDBRANCH  14  20
ENDBRANCH  13  17
ENDBRANCH   1  13
TORSDOF 6
ENDMDL
