MODEL 1
REMARK VINA RESULT:    -7.947      0.000      0.000
REMARK INTER + INTRA:         -11.362
REMARK INTER:                 -10.734
REMARK INTRA:                  -0.629
REMARK UNBOUND:                -0.629
REMARK  Name = 
REMARK  7 active torsions:
REMARK  status: ('A' for Active; 'I' for Inactive)
REMARK    1  A    between atoms: C_1  and  O_2
REMARK    2  A    between atoms: O_2  and  C_3
REMARK    3  A    between atoms: C_5  and  C_6
REMARK    4  A    between atoms: C_11  and  O_12
REMARK    5  A    between atoms: O_12  and  C_13
REMARK    6  A    between atoms: C_13  and  C_14
REMARK    7  A    between atoms: C_18  and  C_19
REMARK                            x       y       z     vdW  Elec       q    Type
REMARK                         _______ _______ _______ _____ _____    ______ ____
ROOT
ATOM      1  O   UNL     1      43.743   5.358  10.158  0.00  0.00    +0.000 OA
ENDROOT
BRANCH   1   7
ATOM      2  C   UNL     1      44.216   2.902   9.962  0.00  0.00    +0.000 A 
ATOM      3  C   UNL     1      45.000   1.937   9.313  0.00  0.00    +0.000 A 
ATOM      4  C   UNL     1      45.962   2.289   8.357  0.00  0.00    +0.000 A 
ATOM      5  C   UNL     1      46.134   3.637   8.036  0.00  0.00    +0.000 A 
ATOM      6  C   UNL     1      45.351   4.609   8.673  0.00  0.00    +0.000 A 
ATOM      7  C   UNL     1      44.394   4.260   9.637  0.00  0.00    +0.000 A 
BRANCH   4   8
ATOM      8  C   UNL     1      46.745   1.177   7.742  0.00  0.00    +0.000 C 
ATOM      9  N   UNL     1      47.779   1.485   6.902  0.00  0.00    +0.000 N 
ATOM     10  O   UNL     1      46.484   0.003   7.976  0.00  0.00    +0.000 OA
ATOM     11  H   UNL     1      48.058   2.413   6.633  0.00  0.00    +0.000 HD
ATOM     12  H   UNL     1      48.279   0.703   6.502  0.00  0.00    +0.000 HD
ENDBRANCH   4   8
BRANCH   2  14
ATOM     13  C   UNL     1      43.657   2.183  12.174  0.00  0.00    +0.000 C 
ATOM     14  O   UNL     1      43.245   2.553  10.863  0.00  0.00    +0.000 OA
ENDBRANCH   2  14
ENDBRANCH   1   7
BRANCH   1  15
ATOM     15  C   UNL     1      43.780   5.523  11.574  0.00  0.00    +0.000 C 
BRANCH  15  16
ATOM     16  C   UNL     1      45.185   5.694  12.112  0.00  0.00    +0.000 A 
ATOM     17  C   UNL     1      46.043   6.599  11.464  0.00  0.00    +0.000 A 
ATOM     18  C   UNL     1      47.305   6.874  11.978  0.00  0.00    +0.000 A 
ATOM     19  C   UNL     1      47.716   6.271  13.163  0.00  0.00    +0.000 A 
ATOM     20  C   UNL     1      46.868   5.392  13.855  0.00  0.00    +0.000 A 
ATOM     21  C   UNL     1      45.607   5.096  13.308  0.00  0.00    +0.000 A 
BRANCH  20  22
ATOM     22  C   UNL     1      47.259   4.848  15.220  0.00  0.00    +0.000 C 
ATOM     23  C   UNL     1      48.423   5.665  15.806  0.00  0.00    +0.000 C 
ATOM     24  C   UNL     1      48.910   5.067  17.115  0.00  0.00    +0.000 C 
ATOM     25  O   UNL     1      49.253   3.693  16.946  0.00  0.00    +0.000 OA
ATOM     26  C   UNL     1      48.130   2.904  16.554  0.00  0.00    +0.000 C 
ATOM     27  C   UNL     1      47.605   3.352  15.196  0.00  0.00    +0.000 C 
ENDBRANCH  20  22
ENDBRANCH  15  16
ENDBRANCH   1  15
TORSDOF 6
ENDMDL
MODEL 2
REMARK VINA RESULT:    -7.835      2.937      6.792
REMARK INTER + INTRA:         -11.212
REMARK INTER:                  -9.883
REMARK INTRA:                  -1.329
REMARK UNBOUND:                -0.629
REMARK  Name = 
REMARK  7 active torsions:
REMARK  status: ('A' for Active; 'I' for Inactive)
REMARK    1  A    between atoms: C_1  and  O_2
REMARK    2  A    between atoms: O_2  and  C_3
REMARK    3  A    between atoms: C_5  and  C_6
REMARK    4  A    between atoms: C_11  and  O_12
REMARK    5  A    between atoms: O_12  and  C_13
REMARK    6  A    between atoms: C_13  and  C_14
REMARK    7  A    between atoms: C_18  and  C_19
REMARK                            x       y       z     vdW  Elec       q    Type
REMARK                         _______ _______ _______ _____ _____    ______ ____
ROOT
ATOM      1  O   UNL     1      44.420   6.912  12.613  0.00  0.00    +0.000 OA
ENDROOT
BRANCH   1   7
ATOM      2  C   UNL     1      46.691   6.058  13.251  0.00  0.00    +0.000 A 
ATOM      3  C   UNL     1      48.069   6.305  13.173  0.00  0.00    +0.000 A 
ATOM      4  C   UNL     1      48.579   7.432  12.515  0.00  0.00    +0.000 A 
ATOM      5  C   UNL     1      47.691   8.323  11.911  0.00  0.00    +0.000 A 
ATOM      6  C   UNL     1      46.312   8.082  11.978  0.00  0.00    +0.000 A 
ATOM      7  C   UNL     1      45.797   6.960  12.645  0.00  0.00    +0.000 A 
BRANCH   4   8
ATOM      8  C   UNL     1      50.063   7.598  12.507  0.00  0.00    +0.000 C 
ATOM      9  N   UNL     1      50.733   7.605  13.699  0.00  0.00    +0.000 N 
ATOM     10  O   UNL     1      50.688   7.724  11.460  0.00  0.00    +0.000 OA
ATOM     11  H   UNL     1      50.309   7.528  14.607  0.00  0.00    +0.000 HD
ATOM     12  H   UNL     1      51.735   7.726  13.648  0.00  0.00    +0.000 HD
ENDBRANCH   4   8
BRANCH   2  14
ATOM     13  C   UNL     1      46.731   3.676  13.463  0.00  0.00    +0.000 C 
ATOM     14  O   UNL     1      46.195   4.933  13.857  0.00  0.00    +0.000 OA
ENDBRANCH   2  14
ENDBRANCH   1   7
BRANCH   1  15
ATOM     15  C   UNL     1      43.812   6.541  11.377  0.00  0.00    +0.000 C 
BRANCH  15  16
ATOM     16  C   UNL     1      44.017   5.080  11.034  0.00  0.00    +0.000 A 
ATOM     17  C   UNL     1      43.348   4.113  11.803  0.00  0.00    +0.000 A 
ATOM     18  C   UNL     1      43.415   2.766  11.466  0.00  0.00    +0.000 A 
ATOM     19  C   UNL     1      44.128   2.369  10.339  0.00  0.00    +0.000 A 
ATOM     20  C   UNL     1      44.777   3.315   9.528  0.00  0.00    +0.000 A 
ATOM     21  C   UNL     1      44.729   4.670   9.898  0.00  0.00    +0.000 A 
BRANCH  20  22
ATOM     22  C   UNL     1      45.431   2.899   8.220  0.00  0.00    +0.000 C 
ATOM     23  C   UNL     1      46.156   1.553   8.391  0.00  0.00    +0.000 C 
ATOM     24  C   UNL     1      46.917   1.174   7.131  0.00  0.00    +0.000 C 
ATOM     25  O   UNL     1      47.810   2.218   6.749  0.00  0.00    +0.000 OA
ATOM     26  C   UNL     1      47.120   3.428   6.437  0.00  0.00    +0.000 C 
ATOM     27  C   UNL     1      46.387   3.962   7.660  0.00  0.00    +0.000 C 
ENDBRANCH  20  22
ENDBRANCH  15  16
ENDBRANCH   1  15
TORSDOF 6
ENDMDL
MODEL 3
REMARK VINA RESULT:    -7.673      2.029      3.034
REMARK INTER + INTRA:         -10.993
REMARK INTER:                 -10.776
REMARK INTRA:                  -0.217
REMARK UNBOUND:                -0.629
REMARK  Name = 
REMARK  7 active torsions:
REMARK  status: ('A' for Active; 'I' for Inactive)
REMARK    1  A    between atoms: C_1  and  O_2
REMARK    2  A    between atoms: O_2  and  C_3
REMARK    3  A    between atoms: C_5  and  C_6
REMARK    4  A    between atoms: C_11  and  O_12
REMARK    5  A    between atoms: O_12  and  C_13
REMARK    6  A    between atoms: C_13  and  C_14
REMARK    7  A    between atoms: C_18  and  C_19
REMARK                            x       y       z     vdW  Elec       q    Type
REMARK                         _______ _______ _______ _____ _____    ______ ____
ROOT
ATOM      1  O   UNL     1      43.879   4.910  10.300  0.00  0.00    +0.000 OA
ENDROOT
BRANCH   1   7
ATOM      2  C   UNL     1      44.627   2.639   9.541  0.00  0.00    +0.000 A 
ATOM      3  C   UNL     1      45.507   1.947   8.696  0.00  0.00    +0.000 A 
ATOM      4  C   UNL     1      46.411   2.622   7.864  0.00  0.00    +0.000 A 
ATOM      5  C   UNL     1      46.424   4.017   7.869  0.00  0.00    +0.000 A 
ATOM      6  C   UNL     1      45.543   4.717   8.704  0.00  0.00    +0.000 A 
ATOM      7  C   UNL     1      44.644   4.046   9.546  0.00  0.00    +0.000 A 
BRANCH   4   8
ATOM      8  C   UNL     1      47.308   1.781   7.017  0.00  0.00    +0.000 C 
ATOM      9  N   UNL     1      48.326   2.386   6.331  0.00  0.00    +0.000 N 
ATOM     10  O   UNL     1      47.155   0.568   6.927  0.00  0.00    +0.000 OA
ATOM     11  H   UNL     1      48.520   3.372   6.325  0.00  0.00    +0.000 HD
ATOM     12  H   UNL     1      48.905   1.782   5.765  0.00  0.00    +0.000 HD
ENDBRANCH   4   8
BRANCH   2  14
ATOM     13  C   UNL     1      43.451   2.500  11.620  0.00  0.00    +0.000 C 
ATOM     14  O   UNL     1      43.713   1.980  10.322  0.00  0.00    +0.000 OA
ENDBRANCH   2  14
ENDBRANCH   1   7
BRANCH   1  15
ATOM     15  C   UNL     1      44.474   6.153  10.665  0.00  0.00    +0.000 C 
BRANCH  15  16
ATOM     16  C   UNL     1      45.471   6.021  11.798  0.00  0.00    +0.000 A 
ATOM     17  C   UNL     1      45.189   5.113  12.832  0.00  0.00    +0.000 A 
ATOM     18  C   UNL     1      46.118   4.873  13.840  0.00  0.00    +0.000 A 
ATOM     19  C   UNL     1      47.352   5.515  13.811  0.00  0.00    +0.000 A 
ATOM     20  C   UNL     1      47.679   6.399  12.770  0.00  0.00    +0.000 A 
ATOM     21  C   UNL     1      46.719   6.659  11.775  0.00  0.00    +0.000 A 
BRANCH  20  22
ATOM     22  C   UNL     1      49.076   6.986  12.660  0.00  0.00    +0.000 C 
ATOM     23  C   UNL     1      49.570   7.452  14.041  0.00  0.00    +0.000 C 
ATOM     24  C   UNL     1      50.915   8.150  13.937  0.00  0.00    +0.000 C 
ATOM     25  O   UNL     1      50.855   9.224  13.001  0.00  0.00    +0.000 OA
ATOM     26  C   UNL     1      50.551   8.771  11.682  0.00  0.00    +0.000 C 
ATOM     27  C   UNL     1      49.171   8.128  11.638  0.00  0.00    +0.000 C 
ENDBRANCH  20  22
ENDBRANCH  15  16
ENDBRANCH   1  15
TORSDOF 6
ENDMDL
MODEL 4
REMARK VINA RESULT:    -7.299      3.420      7.355
REMARK INTER + INTRA:         -10.488
REMARK INTER:                  -9.553
REMARK INTRA:                  -0.935
REMARK UNBOUND:                -0.629
REMARK  Name = 
REMARK  7 active torsions:
REMARK  status: ('A' for Active; 'I' for Inactive)
REMARK    1  A    between atoms: C_1  and  O_2
REMARK    2  A    between atoms: O_2  and  C_3
REMARK    3  A    between atoms: C_5  and  C_6
REMARK    4  A    between atoms: C_11  and  O_12
REMARK    5  A    between atoms: O_12  and  C_13
REMARK    6  A    between atoms: C_13  and  C_14
REMARK    7  A    between atoms: C_18  and  C_19
REMARK                            x       y       z     vdW  Elec       q    Type
REMARK                         _______ _______ _______ _____ _____    ______ ____
ROOT
ATOM      1  O   UNL     1      45.040   6.948  12.632  0.00  0.00    +0.000 OA
ENDROOT
BRANCH   1   7
ATOM      2  C   UNL     1      46.636   8.834  12.195  0.00  0.00    +0.000 A 
ATOM      3  C   UNL     1      47.987   9.176  12.043  0.00  0.00    +0.000 A 
ATOM      4  C   UNL     1      49.006   8.218  12.139  0.00  0.00    +0.000 A 
ATOM      5  C   UNL     1      48.663   6.891  12.405  0.00  0.00    +0.000 A 
ATOM      6  C   UNL     1      47.316   6.540  12.566  0.00  0.00    +0.000 A 
ATOM      7  C   UNL     1      46.294   7.494  12.460  0.00  0.00    +0.000 A 
BRANCH   4   8
ATOM      8  C   UNL     1      50.407   8.696  11.946  0.00  0.00    +0.000 C 
ATOM      9  N   UNL     1      51.436   7.933  12.424  0.00  0.00    +0.000 N 
ATOM     10  O   UNL     1      50.651   9.751  11.370  0.00  0.00    +0.000 OA
ATOM     11  H   UNL     1      51.338   7.067  12.925  0.00  0.00    +0.000 HD
ATOM     12  H   UNL     1      52.368   8.297  12.278  0.00  0.00    +0.000 HD
ENDBRANCH   4   8
BRANCH   2  14
ATOM     13  C   UNL     1      45.994  11.085  11.703  0.00  0.00    +0.000 C 
ATOM     14  O   UNL     1      45.645   9.778  12.145  0.00  0.00    +0.000 OA
ENDBRANCH   2  14
ENDBRANCH   1   7
BRANCH   1  15
ATOM     15  C   UNL     1      44.290   6.663  11.453  0.00  0.00    +0.000 C 
BRANCH  15  16
ATOM     16  C   UNL     1      44.301   5.193  11.087  0.00  0.00    +0.000 A 
ATOM     17  C   UNL     1      43.508   4.312  11.841  0.00  0.00    +0.000 A 
ATOM     18  C   UNL     1      43.397   2.972  11.483  0.00  0.00    +0.000 A 
ATOM     19  C   UNL     1      44.054   2.502  10.350  0.00  0.00    +0.000 A 
ATOM     20  C   UNL     1      44.824   3.366   9.554  0.00  0.00    +0.000 A 
ATOM     21  C   UNL     1      44.955   4.710   9.945  0.00  0.00    +0.000 A 
BRANCH  20  22
ATOM     22  C   UNL     1      45.421   2.887   8.241  0.00  0.00    +0.000 C 
ATOM     23  C   UNL     1      46.134   1.538   8.439  0.00  0.00    +0.000 C 
ATOM     24  C   UNL     1      46.840   1.097   7.167  0.00  0.00    +0.000 C 
ATOM     25  O   UNL     1      47.731   2.112   6.708  0.00  0.00    +0.000 OA
ATOM     26  C   UNL     1      47.046   3.317   6.372  0.00  0.00    +0.000 C 
ATOM     27  C   UNL     1      46.368   3.912   7.600  0.00  0.00    +0.000 C 
ENDBRANCH  20  22
ENDBRANCH  15  16
ENDBRANCH   1  15
TORSDOF 6
ENDMDL
MODEL 5
REMARK VINA RESULT:    -7.218      2.832      7.458
REMARK INTER + INTRA:         -10.379
REMARK INTER:                  -9.753
REMARK INTRA:                  -0.626
REMARK UNBOUND:                -0.629
REMARK  Name = 
REMARK  7 active torsions:
REMARK  status: ('A' for Active; 'I' for Inactive)
REMARK    1  A    between atoms: C_1  and  O_2
REMARK    2  A    between atoms: O_2  and  C_3
REMARK    3  A    between atoms: C_5  and  C_6
REMARK    4  A    between atoms: C_11  and  O_12
REMARK    5  A    between atoms: O_12  and  C_13
REMARK    6  A    between atoms: C_13  and  C_14
REMARK    7  A    between atoms: C_18  and  C_19
REMARK                            x       y       z     vdW  Elec       q    Type
REMARK                         _______ _______ _______ _____ _____    ______ ____
ROOT
ATOM      1  O   UNL     1      47.563   6.739  12.284  0.00  0.00    +0.000 OA
ENDROOT
BRANCH   1   7
ATOM      2  C   UNL     1      48.392   6.696  14.652  0.00  0.00    +0.000 A 
ATOM      3  C   UNL     1      48.378   5.977  15.856  0.00  0.00    +0.000 A 
ATOM      4  C   UNL     1      47.674   4.773  15.986  0.00  0.00    +0.000 A 
ATOM      5  C   UNL     1      46.958   4.286  14.891  0.00  0.00    +0.000 A 
ATOM      6  C   UNL     1      46.960   5.001  13.686  0.00  0.00    +0.000 A 
ATOM      7  C   UNL     1      47.672   6.201  13.548  0.00  0.00    +0.000 A 
BRANCH   4   8
ATOM      8  C   UNL     1      47.741   4.088  17.311  0.00  0.00    +0.000 C 
ATOM      9  N   UNL     1      47.016   2.945  17.501  0.00  0.00    +0.000 N 
ATOM     10  O   UNL     1      48.432   4.527  18.225  0.00  0.00    +0.000 OA
ATOM     11  H   UNL     1      46.407   2.520  16.823  0.00  0.00    +0.000 HD
ATOM     12  H   UNL     1      47.085   2.518  18.414  0.00  0.00    +0.000 HD
ENDBRANCH   4   8
BRANCH   2  14
ATOM     13  C   UNL     1      48.275   9.086  14.671  0.00  0.00    +0.000 C 
ATOM     14  O   UNL     1      49.044   7.896  14.538  0.00  0.00    +0.000 OA
ENDBRANCH   2  14
ENDBRANCH   1   7
BRANCH   1  15
ATOM     15  C   UNL     1      46.286   7.249  11.904  0.00  0.00    +0.000 C 
BRANCH  15  16
ATOM     16  C   UNL     1      45.363   6.180  11.356  0.00  0.00    +0.000 A 
ATOM     17  C   UNL     1      44.020   6.183  11.767  0.00  0.00    +0.000 A 
ATOM     18  C   UNL     1      43.105   5.293  11.215  0.00  0.00    +0.000 A 
ATOM     19  C   UNL     1      43.515   4.407  10.223  0.00  0.00    +0.000 A 
ATOM     20  C   UNL     1      44.841   4.405   9.763  0.00  0.00    +0.000 A 
ATOM     21  C   UNL     1      45.764   5.287  10.353  0.00  0.00    +0.000 A 
BRANCH  20  22
ATOM     22  C   UNL     1      45.253   3.541   8.582  0.00  0.00    +0.000 C 
ATOM     23  C   UNL     1      45.670   2.141   9.064  0.00  0.00    +0.000 C 
ATOM     24  C   UNL     1      46.198   1.298   7.915  0.00  0.00    +0.000 C 
ATOM     25  O   UNL     1      47.261   1.971   7.243  0.00  0.00    +0.000 OA
ATOM     26  C   UNL     1      46.833   3.200   6.658  0.00  0.00    +0.000 C 
ATOM     27  C   UNL     1      46.363   4.174   7.731  0.00  0.00    +0.000 C 
ENDBRANCH  20  22
ENDBRANCH  15  16
ENDBRANCH   1  15
TORSDOF 6
ENDMDL
MODEL 6
REMARK VINA RESULT:    -6.851      2.228      2.982
REMARK INTER + INTRA:          -9.883
REMARK INTER:                  -9.164
REMARK INTRA:                  -0.719
REMARK UNBOUND:                -0.629
REMARK  Name = 
REMARK  7 active torsions:
REMARK  status: ('A' for Active; 'I' for Inactive)
REMARK    1  A    between atoms: C_1  and  O_2
REMARK    2  A    between atoms: O_2  and  C_3
REMARK    3  A    between atoms: C_5  and  C_6
REMARK    4  A    between atoms: C_11  and  O_12
REMARK    5  A    between atoms: O_12  and  C_13
REMARK    6  A    between atoms: C_13  and  C_14
REMARK    7  A    between atoms: C_18  and  C_19
REMARK                            x       y       z     vdW  Elec       q    Type
REMARK                         _______ _______ _______ _____ _____    ______ ____
ROOT
ATOM      1  O   UNL     1      43.944   5.361  10.604  0.00  0.00    +0.000 OA
ENDROOT
BRANCH   1   7
ATOM      2  C   UNL     1      44.303   2.968   9.943  0.00  0.00    +0.000 A 
ATOM      3  C   UNL     1      45.024   2.111   9.099  0.00  0.00    +0.000 A 
ATOM      4  C   UNL     1      45.970   2.598   8.187  0.00  0.00    +0.000 A 
ATOM      5  C   UNL     1      46.190   3.974   8.111  0.00  0.00    +0.000 A 
ATOM      6  C   UNL     1      45.470   4.840   8.946  0.00  0.00    +0.000 A 
ATOM      7  C   UNL     1      44.530   4.355   9.866  0.00  0.00    +0.000 A 
BRANCH   4   8
ATOM      8  C   UNL     1      46.685   1.591   7.349  0.00  0.00    +0.000 C 
ATOM      9  N   UNL     1      46.673   0.280   7.739  0.00  0.00    +0.000 N 
ATOM     10  O   UNL     1      47.276   1.912   6.324  0.00  0.00    +0.000 OA
ATOM     11  H   UNL     1      46.236  -0.079   8.570  0.00  0.00    +0.000 HD
ATOM     12  H   UNL     1      47.175  -0.368   7.147  0.00  0.00    +0.000 HD
ENDBRANCH   4   8
BRANCH   2  14
ATOM     13  C   UNL     1      43.674   2.418  12.184  0.00  0.00    +0.000 C 
ATOM     14  O   UNL     1      43.347   2.495  10.802  0.00  0.00    +0.000 OA
ENDBRANCH   2  14
ENDBRANCH   1   7
BRANCH   1  15
ATOM     15  C   UNL     1      44.525   5.660  11.871  0.00  0.00    +0.000 C 
BRANCH  15  16
ATOM     16  C   UNL     1      45.291   6.966  11.876  0.00  0.00    +0.000 A 
ATOM     17  C   UNL     1      44.603   8.145  11.542  0.00  0.00    +0.000 A 
ATOM     18  C   UNL     1      45.229   9.383  11.634  0.00  0.00    +0.000 A 
ATOM     19  C   UNL     1      46.541   9.464  12.090  0.00  0.00    +0.000 A 
ATOM     20  C   UNL     1      47.244   8.308  12.468  0.00  0.00    +0.000 A 
ATOM     21  C   UNL     1      46.612   7.059  12.338  0.00  0.00    +0.000 A 
BRANCH  20  22
ATOM     22  C   UNL     1      48.622   8.409  13.101  0.00  0.00    +0.000 C 
ATOM     23  C   UNL     1      48.850   7.238  14.072  0.00  0.00    +0.000 C 
ATOM     24  C   UNL     1      50.173   7.383  14.806  0.00  0.00    +0.000 C 
ATOM     25  O   UNL     1      50.249   8.646  15.464  0.00  0.00    +0.000 OA
ATOM     26  C   UNL     1      50.196   9.735  14.544  0.00  0.00    +0.000 C 
ATOM     27  C   UNL     1      48.864   9.752  13.805  0.00  0.00    +0.000 C 
ENDBRANCH  20  22
ENDBRANCH  15  16
ENDBRANCH   1  15
TORSDOF 6
ENDMDL
MODEL 7
REMARK VINA RESULT:    -6.741      3.615      8.308
REMARK INTER + INTRA:          -9.733
REMARK INTER:                  -8.798
REMARK INTRA:                  -0.935
REMARK UNBOUND:                -0.629
REMARK  Name = 
REMARK  7 active torsions:
REMARK  status: ('A' for Active; 'I' for Inactive)
REMARK    1  A    between atoms: C_1  and  O_2
REMARK    2  A    between atoms: O_2  and  C_3
REMARK    3  A    between atoms: C_5  and  C_6
REMARK    4  A    between atoms: C_11  and  O_12
REMARK    5  A    between atoms: O_12  and  C_13
REMARK    6  A    between atoms: C_13  and  C_14
REMARK    7  A    between atoms: C_18  and  C_19
REMARK                            x       y       z     vdW  Elec       q    Type
REMARK                         _______ _______ _______ _____ _____    ______ ____
ROOT
ATOM      1  O   UNL     1      49.393   6.309  15.024  0.00  0.00    +0.000 OA
ENDROOT
BRANCH   1   7
ATOM      2  C   UNL     1      48.491   5.143  17.054  0.00  0.00    +0.000 A 
ATOM      3  C   UNL     1      48.037   5.322  18.369  0.00  0.00    +0.000 A 
ATOM      4  C   UNL     1      47.993   6.589  18.967  0.00  0.00    +0.000 A 
ATOM      5  C   UNL     1      48.426   7.697  18.237  0.00  0.00    +0.000 A 
ATOM      6  C   UNL     1      48.889   7.527  16.925  0.00  0.00    +0.000 A 
ATOM      7  C   UNL     1      48.924   6.263  16.319  0.00  0.00    +0.000 A 
BRANCH   4   8
ATOM      8  C   UNL     1      47.479   6.661  20.367  0.00  0.00    +0.000 C 
ATOM      9  N   UNL     1      47.065   5.509  20.977  0.00  0.00    +0.000 N 
ATOM     10  O   UNL     1      47.423   7.723  20.976  0.00  0.00    +0.000 OA
ATOM     11  H   UNL     1      47.053   4.596  20.556  0.00  0.00    +0.000 HD
ATOM     12  H   UNL     1      46.718   5.603  21.921  0.00  0.00    +0.000 HD
ENDBRANCH   4   8
BRANCH   2  14
ATOM     13  C   UNL     1      47.855   2.838  17.102  0.00  0.00    +0.000 C 
ATOM     14  O   UNL     1      48.575   3.899  16.486  0.00  0.00    +0.000 OA
ENDBRANCH   2  14
ENDBRANCH   1   7
BRANCH   1  15
ATOM     15  C   UNL     1      48.999   7.427  14.231  0.00  0.00    +0.000 C 
BRANCH  15  16
ATOM     16  C   UNL     1      47.599   7.289  13.671  0.00  0.00    +0.000 A 
ATOM     17  C   UNL     1      46.871   8.459  13.398  0.00  0.00    +0.000 A 
ATOM     18  C   UNL     1      45.624   8.394  12.784  0.00  0.00    +0.000 A 
ATOM     19  C   UNL     1      45.102   7.160  12.408  0.00  0.00    +0.000 A 
ATOM     20  C   UNL     1      45.821   5.976  12.633  0.00  0.00    +0.000 A 
ATOM     21  C   UNL     1      47.065   6.052  13.284  0.00  0.00    +0.000 A 
BRANCH  20  22
ATOM     22  C   UNL     1      45.318   4.647  12.093  0.00  0.00    +0.000 C 
ATOM     23  C   UNL     1      44.995   4.768  10.594  0.00  0.00    +0.000 C 
ATOM     24  C   UNL     1      44.377   3.486  10.059  0.00  0.00    +0.000 C 
ATOM     25  O   UNL     1      43.231   3.121  10.825  0.00  0.00    +0.000 OA
ATOM     26  C   UNL     1      43.559   2.854  12.188  0.00  0.00    +0.000 C 
ATOM     27  C   UNL     1      44.107   4.103  12.866  0.00  0.00    +0.000 C 
ENDBRANCH  20  22
ENDBRANCH  15  16
ENDBRANCH   1  15
TORSDOF 6
ENDMDL
MODEL 8
REMARK VINA RESULT:    -6.568      3.783      5.216
REMARK INTER + INTRA:          -9.500
REMARK INTER:                  -8.214
REMARK INTRA:                  -1.286
REMARK UNBOUND:                -0.629
REMARK  Name = 
REMARK  7 active torsions:
REMARK  status: ('A' for Active; 'I' for Inactive)
REMARK    1  A    between atoms: C_1  and  O_2
REMARK    2  A    between atoms: O_2  and  C_3
REMARK    3  A    between atoms: C_5  and  C_6
REMARK    4  A    between atoms: C_11  and  O_12
REMARK    5  A    between atoms: O_12  and  C_13
REMARK    6  A    between atoms: C_13  and  C_14
REMARK    7  A    between atoms: C_18  and  C_19
REMARK                            x       y       z     vdW  Elec       q    Type
REMARK                         _______ _______ _______ _____ _____    ______ ____
ROOT
ATOM      1  O   UNL     1      48.794   6.163  12.841  0.00  0.00    +0.000 OA
ENDROOT
BRANCH   1   7
ATOM      2  C   UNL     1      46.747   4.911  13.573  0.00  0.00    +0.000 A 
ATOM      3  C   UNL     1      45.352   4.828  13.449  0.00  0.00    +0.000 A 
ATOM      4  C   UNL     1      44.630   5.711  12.635  0.00  0.00    +0.000 A 
ATOM      5  C   UNL     1      45.319   6.707  11.941  0.00  0.00    +0.000 A 
ATOM      6  C   UNL     1      46.712   6.803  12.063  0.00  0.00    +0.000 A 
ATOM      7  C   UNL     1      47.439   5.914  12.869  0.00  0.00    +0.000 A 
BRANCH   4   8
ATOM      8  C   UNL     1      43.151   5.519  12.571  0.00  0.00    +0.000 C 
ATOM      9  N   UNL     1      42.427   6.263  11.681  0.00  0.00    +0.000 N 
ATOM     10  O   UNL     1      42.578   4.710  13.293  0.00  0.00    +0.000 OA
ATOM     11  H   UNL     1      42.801   6.962  11.064  0.00  0.00    +0.000 HD
ATOM     12  H   UNL     1      41.429   6.106  11.676  0.00  0.00    +0.000 HD
ENDBRANCH   4   8
BRANCH   2  14
ATOM     13  C   UNL     1      47.153   4.124  15.795  0.00  0.00    +0.000 C 
ATOM     14  O   UNL     1      47.446   4.075  14.403  0.00  0.00    +0.000 OA
ENDBRANCH   2  14
ENDBRANCH   1   7
BRANCH   1  15
ATOM     15  C   UNL     1      49.209   7.515  13.026  0.00  0.00    +0.000 C 
BRANCH  15  16
ATOM     16  C   UNL     1      49.102   7.974  14.466  0.00  0.00    +0.000 A 
ATOM     17  C   UNL     1      48.524   9.227  14.725  0.00  0.00    +0.000 A 
ATOM     18  C   UNL     1      48.303   9.651  16.031  0.00  0.00    +0.000 A 
ATOM     19  C   UNL     1      48.631   8.816  17.095  0.00  0.00    +0.000 A 
ATOM     20  C   UNL     1      49.176   7.542  16.868  0.00  0.00    +0.000 A 
ATOM     21  C   UNL     1      49.425   7.138  15.544  0.00  0.00    +0.000 A 
BRANCH  20  22
ATOM     22  C   UNL     1      49.397   6.576  18.020  0.00  0.00    +0.000 C 
ATOM     23  C   UNL     1      50.151   5.327  17.531  0.00  0.00    +0.000 C 
ATOM     24  C   UNL     1      50.279   4.294  18.638  0.00  0.00    +0.000 C 
ATOM     25  O   UNL     1      48.999   3.969  19.176  0.00  0.00    +0.000 OA
ATOM     26  C   UNL     1      48.365   5.100  19.773  0.00  0.00    +0.000 C 
ATOM     27  C   UNL     1      48.096   6.179  18.732  0.00  0.00    +0.000 C 
ENDBRANCH  20  22
ENDBRANCH  15  16
ENDBRANCH   1  15
TORSDOF 6
ENDMDL
MODEL 9
REMARK VINA RESULT:    -6.498      3.345      7.307
REMARK INTER + INTRA:          -9.405
REMARK INTER:                  -8.428
REMARK INTRA:                  -0.977
REMARK UNBOUND:                -0.629
REMARK  Name = 
REMARK  7 active torsions:
REMARK  status: ('A' for Active; 'I' for Inactive)
REMARK    1  A    between atoms: C_1  and  O_2
REMARK    2  A    between atoms: O_2  and  C_3
REMARK    3  A    between atoms: C_5  and  C_6
REMARK    4  A    between atoms: C_11  and  O_12
REMARK    5  A    between atoms: O_12  and  C_13
REMARK    6  A    between atoms: C_13  and  C_14
REMARK    7  A    between atoms: C_18  and  C_19
REMARK                            x       y       z     vdW  Elec       q    Type
REMARK                         _______ _______ _______ _____ _____    ______ ____
ROOT
ATOM      1  O   UNL     1      46.616   6.879  13.643  0.00  0.00    +0.000 OA
ENDROOT
BRANCH   1   7
ATOM      2  C   UNL     1      48.951   7.630  14.168  0.00  0.00    +0.000 A 
ATOM      3  C   UNL     1      50.179   8.020  13.614  0.00  0.00    +0.000 A 
ATOM      4  C   UNL     1      50.377   8.075  12.227  0.00  0.00    +0.000 A 
ATOM      5  C   UNL     1      49.327   7.720  11.379  0.00  0.00    +0.000 A 
ATOM      6  C   UNL     1      48.098   7.322  11.923  0.00  0.00    +0.000 A 
ATOM      7  C   UNL     1      47.893   7.276  13.310  0.00  0.00    +0.000 A 
BRANCH   4   8
ATOM      8  C   UNL     1      51.722   8.516  11.752  0.00  0.00    +0.000 C 
ATOM      9  N   UNL     1      52.823   7.796  12.125  0.00  0.00    +0.000 N 
ATOM     10  O   UNL     1      51.857   9.502  11.036  0.00  0.00    +0.000 OA
ATOM     11  H   UNL     1      52.817   6.987  12.723  0.00  0.00    +0.000 HD
ATOM     12  H   UNL     1      53.714   8.133  11.787  0.00  0.00    +0.000 HD
ENDBRANCH   4   8
BRANCH   2  14
ATOM     13  C   UNL     1      49.064   6.289  16.145  0.00  0.00    +0.000 C 
ATOM     14  O   UNL     1      48.772   7.534  15.523  0.00  0.00    +0.000 OA
ENDBRANCH   2  14
ENDBRANCH   1   7
BRANCH   1  15
ATOM     15  C   UNL     1      46.343   5.480  13.611  0.00  0.00    +0.000 C 
BRANCH  15  16
ATOM     16  C   UNL     1      45.255   5.113  12.623  0.00  0.00    +0.000 A 
ATOM     17  C   UNL     1      43.966   5.634  12.825  0.00  0.00    +0.000 A 
ATOM     18  C   UNL     1      42.957   5.417  11.892  0.00  0.00    +0.000 A 
ATOM     19  C   UNL     1      43.231   4.701  10.731  0.00  0.00    +0.000 A 
ATOM     20  C   UNL     1      44.519   4.199  10.482  0.00  0.00    +0.000 A 
ATOM     21  C   UNL     1      45.521   4.396  11.448  0.00  0.00    +0.000 A 
BRANCH  20  22
ATOM     22  C   UNL     1      44.853   3.545   9.152  0.00  0.00    +0.000 C 
ATOM     23  C   UNL     1      45.399   2.124   9.377  0.00  0.00    +0.000 C 
ATOM     24  C   UNL     1      45.852   1.495   8.070  0.00  0.00    +0.000 C 
ATOM     25  O   UNL     1      46.798   2.333   7.408  0.00  0.00    +0.000 OA
ATOM     26  C   UNL     1      46.240   3.598   7.056  0.00  0.00    +0.000 C 
ATOM     27  C   UNL     1      45.829   4.372   8.303  0.00  0.00    +0.000 C 
ENDBRANCH  20  22
ENDBRANCH  15  16
ENDBRANCH   1  15
TORSDOF 6
ENDMDL
