MODEL 1
REMARK VINA RESULT:    -8.732      0.000      0.000
REMARK INTER + INTRA:         -13.342
REMARK INTER:                 -12.306
REMARK INTRA:                  -1.037
REMARK UNBOUND:                -1.037
REMARK  Name = 
REMARK  7 active torsions:
REMARK  status: ('A' for Active; 'I' for Inactive)
REMARK    1  A    between atoms: C_2  and  C_4
REMARK    2  A    between atoms: N_8  and  C_9
REMARK    3  A    between atoms: C_9  and  C_10
REMARK    4  A    between atoms: C_10  and  C_11
REMARK    5  A    between atoms: C_10  and  C_13
REMARK    6  A    between atoms: C_17  and  O_18
REMARK    7  A    between atoms: O_18  and  C_19
REMARK                            x       y       z     vdW  Elec       q    Type
REMARK                         _______ _______ _______ _____ _____    ______ ____
ROOT
ATOM      1  C   UNL     1      43.791   4.286  12.473  0.00  0.00    +0.000 C 
ENDROOT
BRANCH   1   2
ATOM      2  C   UNL     1      45.189   4.893  12.579  0.00  0.00    +0.000 A 
ATOM      3  C   UNL     1      45.655   5.889  11.709  0.00  0.00    +0.000 A 
ATOM      4  C   UNL     1      46.911   6.472  11.899  0.00  0.00    +0.000 A 
ATOM      5  C   UNL     1      47.720   6.084  12.968  0.00  0.00    +0.000 A 
ATOM      6  C   UNL     1      47.270   5.101  13.845  0.00  0.00    +0.000 A 
ATOM      7  C   UNL     1      46.017   4.514  13.649  0.00  0.00    +0.000 A 
BRANCH   6   8
ATOM      8  O   UNL     1      47.938   4.677  14.964  0.00  0.00    +0.000 OA
BRANCH   8   9
ATOM      9  C   UNL     1      47.188   4.091  16.052  0.00  0.00    +0.000 C 
ATOM     10  C   UNL     1      47.312   4.744  17.442  0.00  0.00    +0.000 C 
ATOM     11  N   UNL     1      47.664   3.447  18.038  0.00  0.00    +0.000 NA
ATOM     12  C   UNL     1      47.860   2.865  16.702  0.00  0.00    +0.000 C 
ATOM     13  H   UNL     1      46.911   3.014  18.572  0.00  0.00    +0.000 HD
ENDBRANCH   8   9
ENDBRANCH   6   8
ENDBRANCH   1   2
BRANCH   1  14
ATOM     14  C   UNL     1      42.744   5.334  12.863  0.00  0.00    +0.000 C 
ATOM     15  F   UNL     1      41.961   5.636  11.793  0.00  0.00    +0.000 F 
ENDBRANCH   1  14
BRANCH   1  16
ATOM     16  C   UNL     1      43.481   3.644  11.103  0.00  0.00    +0.000 C 
BRANCH  16  21
ATOM     17  C   UNL     1      46.630   2.517   7.143  0.00  0.00    +0.000 A 
ATOM     18  C   UNL     1      46.047   3.733   7.478  0.00  0.00    +0.000 A 
ATOM     19  C   UNL     1      45.275   3.819   8.639  0.00  0.00    +0.000 A 
ATOM     20  C   UNL     1      45.113   2.699   9.442  0.00  0.00    +0.000 A 
ATOM     21  N   UNL     1      44.518   2.716  10.677  0.00  0.00    +0.000 N 
ATOM     22  N   UNL     1      45.628   1.503   9.092  0.00  0.00    +0.000 NA
ATOM     23  C   UNL     1      46.359   1.427   7.950  0.00  0.00    +0.000 A 
ATOM     24  H   UNL     1      44.426   1.757  11.008  0.00  0.00    +0.000 HD
BRANCH  17  26
ATOM     25  N   UNL     1      47.480   3.317   5.021  0.00  0.00    +0.000 N 
ATOM     26  C   UNL     1      47.538   2.357   5.993  0.00  0.00    +0.000 C 
ATOM     27  O   UNL     1      48.347   1.440   5.936  0.00  0.00    +0.000 OA
ATOM     28  H   UNL     1      48.201   3.281   4.311  0.00  0.00    +0.000 HD
ATOM     29  H   UNL     1      47.029   4.208   5.177  0.00  0.00    +0.000 HD
ENDBRANCH  17  26
ENDBRANCH  16  21
ENDBRANCH   1  16
TORSDOF 7
ENDMDL
MODEL 2
REMARK VINA RESULT:    -7.769      2.443      3.673
REMARK INTER + INTRA:         -11.985
REMARK INTER:                 -11.170
REMARK INTRA:                  -0.816
REMARK UNBOUND:                -1.037
REMARK  Name = 
REMARK  7 active torsions:
REMARK  status: ('A' for Active; 'I' for Inactive)
REMARK    1  A    between atoms: C_2  and  C_4
REMARK    2  A    between atoms: N_8  and  C_9
REMARK    3  A    between atoms: C_9  and  C_10
REMARK    4  A    between atoms: C_10  and  C_11
REMARK    5  A    between atoms: C_10  and  C_13
REMARK    6  A    between atoms: C_17  and  O_18
REMARK    7  A    between atoms: O_18  and  C_19
REMARK                            x       y       z     vdW  Elec       q    Type
REMARK                         _______ _______ _______ _____ _____    ______ ____
ROOT
ATOM      1  C   UNL     1      43.502   4.683  12.343  0.00  0.00    +0.000 C 
ENDROOT
BRANCH   1   2
ATOM      2  C   UNL     1      44.907   5.083  12.787  0.00  0.00    +0.000 A 
ATOM      3  C   UNL     1      45.757   4.222  13.494  0.00  0.00    +0.000 A 
ATOM      4  C   UNL     1      47.064   4.605  13.806  0.00  0.00    +0.000 A 
ATOM      5  C   UNL     1      47.554   5.849  13.404  0.00  0.00    +0.000 A 
ATOM      6  C   UNL     1      46.726   6.714  12.696  0.00  0.00    +0.000 A 
ATOM      7  C   UNL     1      45.416   6.332  12.393  0.00  0.00    +0.000 A 
BRANCH   6   8
ATOM      8  O   UNL     1      47.103   7.933  12.193  0.00  0.00    +0.000 OA
BRANCH   8   9
ATOM      9  C   UNL     1      46.590   9.136  12.807  0.00  0.00    +0.000 C 
ATOM     10  C   UNL     1      45.359   9.802  12.162  0.00  0.00    +0.000 C 
ATOM     11  N   UNL     1      46.068  11.088  12.095  0.00  0.00    +0.000 NA
ATOM     12  C   UNL     1      47.342  10.424  12.411  0.00  0.00    +0.000 C 
ATOM     13  H   UNL     1      45.770  11.766  12.796  0.00  0.00    +0.000 HD
ENDBRANCH   8   9
ENDBRANCH   6   8
ENDBRANCH   1   2
BRANCH   1  14
ATOM     14  C   UNL     1      42.714   5.933  11.938  0.00  0.00    +0.000 C 
ATOM     15  F   UNL     1      41.392   5.637  11.819  0.00  0.00    +0.000 F 
ENDBRANCH   1  14
BRANCH   1  16
ATOM     16  C   UNL     1      43.469   3.600  11.242  0.00  0.00    +0.000 C 
BRANCH  16  21
ATOM     17  C   UNL     1      46.738   2.670   7.328  0.00  0.00    +0.000 A 
ATOM     18  C   UNL     1      46.198   1.779   8.248  0.00  0.00    +0.000 A 
ATOM     19  C   UNL     1      45.278   2.247   9.188  0.00  0.00    +0.000 A 
ATOM     20  C   UNL     1      44.909   3.585   9.183  0.00  0.00    +0.000 A 
ATOM     21  N   UNL     1      43.901   4.109   9.949  0.00  0.00    +0.000 N 
ATOM     22  N   UNL     1      45.473   4.466   8.332  0.00  0.00    +0.000 NA
ATOM     23  C   UNL     1      46.382   4.002   7.435  0.00  0.00    +0.000 A 
ATOM     24  H   UNL     1      43.904   5.122   9.844  0.00  0.00    +0.000 HD
BRANCH  17  26
ATOM     25  N   UNL     1      47.683   3.046   5.131  0.00  0.00    +0.000 N 
ATOM     26  C   UNL     1      47.639   2.248   6.241  0.00  0.00    +0.000 C 
ATOM     27  O   UNL     1      48.358   1.263   6.347  0.00  0.00    +0.000 OA
ATOM     28  H   UNL     1      48.405   2.833   4.454  0.00  0.00    +0.000 HD
ATOM     29  H   UNL     1      47.317   3.989   5.135  0.00  0.00    +0.000 HD
ENDBRANCH  17  26
ENDBRANCH  16  21
ENDBRANCH   1  16
TORSDOF 7
ENDMDL
MODEL 3
REMARK VINA RESULT:    -7.503      2.126      8.226
REMARK INTER + INTRA:         -11.610
REMARK INTER:                 -10.985
REMARK INTRA:                  -0.625
REMARK UNBOUND:                -1.037
REMARK  Name = 
REMARK  7 active torsions:
REMARK  status: ('A' for Active; 'I' for Inactive)
REMARK    1  A    between atoms: C_2  and  C_4
REMARK    2  A    between atoms: N_8  and  C_9
REMARK    3  A    between atoms: C_9  and  C_10
REMARK    4  A    between atoms: C_10  and  C_11
REMARK    5  A    between atoms: C_10  and  C_13
REMARK    6  A    between atoms: C_17  and  O_18
REMARK    7  A    between atoms: O_18  and  C_19
REMARK                            x       y       z     vdW  Elec       q    Type
REMARK                         _______ _______ _______ _____ _____    ______ ____
ROOT
ATOM      1  C   UNL     1      45.813   6.441  11.247  0.00  0.00    +0.000 C 
ENDROOT
BRANCH   1   2
ATOM      2  C   UNL     1      45.420   5.215  10.426  0.00  0.00    +0.000 A 
ATOM      3  C   UNL     1      44.439   4.303  10.839  0.00  0.00    +0.000 A 
ATOM      4  C   UNL     1      44.056   3.242  10.013  0.00  0.00    +0.000 A 
ATOM      5  C   UNL     1      44.633   3.079   8.753  0.00  0.00    +0.000 A 
ATOM      6  C   UNL     1      45.603   3.980   8.323  0.00  0.00    +0.000 A 
ATOM      7  C   UNL     1      45.991   5.034   9.154  0.00  0.00    +0.000 A 
BRANCH   6   8
ATOM      8  O   UNL     1      46.200   3.967   7.089  0.00  0.00    +0.000 OA
BRANCH   8   9
ATOM      9  C   UNL     1      46.560   2.699   6.495  0.00  0.00    +0.000 C 
ATOM     10  C   UNL     1      47.753   1.936   7.103  0.00  0.00    +0.000 C 
ATOM     11  N   UNL     1      48.384   1.834   5.778  0.00  0.00    +0.000 NA
ATOM     12  C   UNL     1      47.436   2.814   5.230  0.00  0.00    +0.000 C 
ATOM     13  H   UNL     1      48.315   0.909   5.353  0.00  0.00    +0.000 HD
ENDBRANCH   8   9
ENDBRANCH   6   8
ENDBRANCH   1   2
BRANCH   1  14
ATOM     14  C   UNL     1      44.568   7.035  11.913  0.00  0.00    +0.000 C 
ATOM     15  F   UNL     1      44.065   8.044  11.153  0.00  0.00    +0.000 F 
ENDBRANCH   1  14
BRANCH   1  16
ATOM     16  C   UNL     1      46.946   6.185  12.265  0.00  0.00    +0.000 C 
BRANCH  16  21
ATOM     17  C   UNL     1      48.332   4.605  17.003  0.00  0.00    +0.000 A 
ATOM     18  C   UNL     1      48.710   5.754  16.319  0.00  0.00    +0.000 A 
ATOM     19  C   UNL     1      48.156   6.009  15.063  0.00  0.00    +0.000 A 
ATOM     20  C   UNL     1      47.233   5.124  14.525  0.00  0.00    +0.000 A 
ATOM     21  N   UNL     1      46.512   5.361  13.383  0.00  0.00    +0.000 N 
ATOM     22  N   UNL     1      46.906   3.979  15.157  0.00  0.00    +0.000 NA
ATOM     23  C   UNL     1      47.468   3.731  16.369  0.00  0.00    +0.000 A 
ATOM     24  H   UNL     1      45.991   4.519  13.145  0.00  0.00    +0.000 HD
BRANCH  17  26
ATOM     25  N   UNL     1      48.317   3.153  18.941  0.00  0.00    +0.000 N 
ATOM     26  C   UNL     1      48.789   4.303  18.372  0.00  0.00    +0.000 C 
ATOM     27  O   UNL     1      49.598   5.017  18.951  0.00  0.00    +0.000 OA
ATOM     28  H   UNL     1      48.745   2.878  19.817  0.00  0.00    +0.000 HD
ATOM     29  H   UNL     1      47.880   2.425  18.392  0.00  0.00    +0.000 HD
ENDBRANCH  17  26
ENDBRANCH  16  21
ENDBRANCH   1  16
TORSDOF 7
ENDMDL
MODEL 4
REMARK VINA RESULT:    -6.725      3.061      7.681
REMARK INTER + INTRA:         -10.513
REMARK INTER:                  -9.810
REMARK INTRA:                  -0.703
REMARK UNBOUND:                -1.037
REMARK  Name = 
REMARK  7 active torsions:
REMARK  status: ('A' for Active; 'I' for Inactive)
REMARK    1  A    between atoms: C_2  and  C_4
REMARK    2  A    between atoms: N_8  and  C_9
REMARK    3  A    between atoms: C_9  and  C_10
REMARK    4  A    between atoms: C_10  and  C_11
REMARK    5  A    between atoms: C_10  and  C_13
REMARK    6  A    between atoms: C_17  and  O_18
REMARK    7  A    between atoms: O_18  and  C_19
REMARK                            x       y       z     vdW  Elec       q    Type
REMARK                         _______ _______ _______ _____ _____    ______ ____
ROOT
ATOM      1  C   UNL     1      44.338   5.837  11.352  0.00  0.00    +0.000 C 
ENDROOT
BRANCH   1   2
ATOM      2  C   UNL     1      44.581   4.556  10.557  0.00  0.00    +0.000 A 
ATOM      3  C   UNL     1      43.978   3.333  10.880  0.00  0.00    +0.000 A 
ATOM      4  C   UNL     1      44.167   2.208  10.072  0.00  0.00    +0.000 A 
ATOM      5  C   UNL     1      44.948   2.285   8.918  0.00  0.00    +0.000 A 
ATOM      6  C   UNL     1      45.548   3.494   8.578  0.00  0.00    +0.000 A 
ATOM      7  C   UNL     1      45.364   4.616   9.392  0.00  0.00    +0.000 A 
BRANCH   6   8
ATOM      8  O   UNL     1      46.284   3.718   7.443  0.00  0.00    +0.000 OA
BRANCH   8   9
ATOM      9  C   UNL     1      46.694   2.590   6.638  0.00  0.00    +0.000 C 
ATOM     10  C   UNL     1      48.137   2.076   6.805  0.00  0.00    +0.000 C 
ATOM     11  N   UNL     1      48.360   2.179   5.355  0.00  0.00    +0.000 NA
ATOM     12  C   UNL     1      47.121   2.955   5.201  0.00  0.00    +0.000 C 
ATOM     13  H   UNL     1      48.351   1.283   4.867  0.00  0.00    +0.000 HD
ENDBRANCH   8   9
ENDBRANCH   6   8
ENDBRANCH   1   2
BRANCH   1  14
ATOM     14  C   UNL     1      43.988   5.485  12.801  0.00  0.00    +0.000 C 
ATOM     15  F   UNL     1      42.638   5.442  12.961  0.00  0.00    +0.000 F 
ENDBRANCH   1  14
BRANCH   1  16
ATOM     16  C   UNL     1      45.490   6.863  11.270  0.00  0.00    +0.000 C 
BRANCH  16  21
ATOM     17  C   UNL     1      50.085   8.014  13.374  0.00  0.00    +0.000 A 
ATOM     18  C   UNL     1      49.589   8.349  12.120  0.00  0.00    +0.000 A 
ATOM     19  C   UNL     1      48.284   7.982  11.786  0.00  0.00    +0.000 A 
ATOM     20  C   UNL     1      47.502   7.302  12.710  0.00  0.00    +0.000 A 
ATOM     21  N   UNL     1      46.166   7.042  12.546  0.00  0.00    +0.000 N 
ATOM     22  N   UNL     1      47.997   6.923  13.905  0.00  0.00    +0.000 NA
ATOM     23  C   UNL     1      49.275   7.268  14.210  0.00  0.00    +0.000 A 
ATOM     24  H   UNL     1      45.855   6.440  13.307  0.00  0.00    +0.000 HD
BRANCH  17  26
ATOM     25  N   UNL     1      52.498   7.939  13.188  0.00  0.00    +0.000 N 
ATOM     26  C   UNL     1      51.412   8.444  13.849  0.00  0.00    +0.000 C 
ATOM     27  O   UNL     1      51.538   9.259  14.753  0.00  0.00    +0.000 OA
ATOM     28  H   UNL     1      53.395   8.347  13.422  0.00  0.00    +0.000 HD
ATOM     29  H   UNL     1      52.415   7.494  12.284  0.00  0.00    +0.000 HD
ENDBRANCH  17  26
ENDBRANCH  16  21
ENDBRANCH   1  16
TORSDOF 7
ENDMDL
MODEL 5
REMARK VINA RESULT:    -6.629      3.344      5.122
REMARK INTER + INTRA:         -10.379
REMARK INTER:                  -9.656
REMARK INTRA:                  -0.723
REMARK UNBOUND:                -1.037
REMARK  Name = 
REMARK  7 active torsions:
REMARK  status: ('A' for Active; 'I' for Inactive)
REMARK    1  A    between atoms: C_2  and  C_4
REMARK    2  A    between atoms: N_8  and  C_9
REMARK    3  A    between atoms: C_9  and  C_10
REMARK    4  A    between atoms: C_10  and  C_11
REMARK    5  A    between atoms: C_10  and  C_13
REMARK    6  A    between atoms: C_17  and  O_18
REMARK    7  A    between atoms: O_18  and  C_19
REMARK                            x       y       z     vdW  Elec       q    Type
REMARK                         _______ _______ _______ _____ _____    ______ ____
ROOT
ATOM      1  C   UNL     1      48.279   8.392  13.311  0.00  0.00    +0.000 C 
ENDROOT
BRANCH   1   2
ATOM      2  C   UNL     1      48.536   8.055  14.778  0.00  0.00    +0.000 A 
ATOM      3  C   UNL     1      48.318   8.967  15.820  0.00  0.00    +0.000 A 
ATOM      4  C   UNL     1      48.489   8.584  17.153  0.00  0.00    +0.000 A 
ATOM      5  C   UNL     1      48.866   7.278  17.474  0.00  0.00    +0.000 A 
ATOM      6  C   UNL     1      49.079   6.358  16.452  0.00  0.00    +0.000 A 
ATOM      7  C   UNL     1      48.916   6.746  15.120  0.00  0.00    +0.000 A 
BRANCH   6   8
ATOM      8  O   UNL     1      49.390   5.035  16.635  0.00  0.00    +0.000 OA
BRANCH   8   9
ATOM      9  C   UNL     1      48.612   4.252  17.569  0.00  0.00    +0.000 C 
ATOM     10  C   UNL     1      48.149   2.853  17.120  0.00  0.00    +0.000 C 
ATOM     11  N   UNL     1      46.758   3.185  17.464  0.00  0.00    +0.000 NA
ATOM     12  C   UNL     1      47.111   4.606  17.601  0.00  0.00    +0.000 C 
ATOM     13  H   UNL     1      46.428   2.755  18.328  0.00  0.00    +0.000 HD
ENDBRANCH   8   9
ENDBRANCH   6   8
ENDBRANCH   1   2
BRANCH   1  14
ATOM     14  C   UNL     1      49.075   7.437  12.416  0.00  0.00    +0.000 C 
ATOM     15  F   UNL     1      48.972   7.818  11.114  0.00  0.00    +0.000 F 
ENDBRANCH   1  14
BRANCH   1  16
ATOM     16  C   UNL     1      46.784   8.435  12.923  0.00  0.00    +0.000 C 
BRANCH  16  21
ATOM     17  C   UNL     1      44.383   4.062  11.519  0.00  0.00    +0.000 A 
ATOM     18  C   UNL     1      45.408   4.742  10.873  0.00  0.00    +0.000 A 
ATOM     19  C   UNL     1      45.952   5.879  11.474  0.00  0.00    +0.000 A 
ATOM     20  C   UNL     1      45.471   6.304  12.706  0.00  0.00    +0.000 A 
ATOM     21  N   UNL     1      46.040   7.302  13.453  0.00  0.00    +0.000 N 
ATOM     22  N   UNL     1      44.437   5.682  13.308  0.00  0.00    +0.000 NA
ATOM     23  C   UNL     1      43.904   4.589  12.703  0.00  0.00    +0.000 A 
ATOM     24  H   UNL     1      45.440   7.494  14.253  0.00  0.00    +0.000 HD
BRANCH  17  26
ATOM     25  N   UNL     1      44.442   2.233   9.932  0.00  0.00    +0.000 N 
ATOM     26  C   UNL     1      43.817   2.800  11.008  0.00  0.00    +0.000 C 
ATOM     27  O   UNL     1      42.869   2.253  11.556  0.00  0.00    +0.000 OA
ATOM     28  H   UNL     1      44.140   1.300   9.679  0.00  0.00    +0.000 HD
ATOM     29  H   UNL     1      45.370   2.513   9.644  0.00  0.00    +0.000 HD
ENDBRANCH  17  26
ENDBRANCH  16  21
ENDBRANCH   1  16
TORSDOF 7
ENDMDL
MODEL 6
REMARK VINA RESULT:    -6.551      3.072      8.300
REMARK INTER + INTRA:         -10.268
REMARK INTER:                  -9.815
REMARK INTRA:                  -0.453
REMARK UNBOUND:                -1.037
REMARK  Name = 
REMARK  7 active torsions:
REMARK  status: ('A' for Active; 'I' for Inactive)
REMARK    1  A    between atoms: C_2  and  C_4
REMARK    2  A    between atoms: N_8  and  C_9
REMARK    3  A    between atoms: C_9  and  C_10
REMARK    4  A    between atoms: C_10  and  C_11
REMARK    5  A    between atoms: C_10  and  C_13
REMARK    6  A    between atoms: C_17  and  O_18
REMARK    7  A    between atoms: O_18  and  C_19
REMARK                            x       y       z     vdW  Elec       q    Type
REMARK                         _______ _______ _______ _____ _____    ______ ____
ROOT
ATOM      1  C   UNL     1      46.771   4.638  13.739  0.00  0.00    +0.000 C 
ENDROOT
BRANCH   1   2
ATOM      2  C   UNL     1      45.462   4.373  13.000  0.00  0.00    +0.000 A 
ATOM      3  C   UNL     1      44.275   5.066  13.278  0.00  0.00    +0.000 A 
ATOM      4  C   UNL     1      43.124   4.846  12.517  0.00  0.00    +0.000 A 
ATOM      5  C   UNL     1      43.138   3.942  11.454  0.00  0.00    +0.000 A 
ATOM      6  C   UNL     1      44.309   3.251  11.159  0.00  0.00    +0.000 A 
ATOM      7  C   UNL     1      45.457   3.466  11.927  0.00  0.00    +0.000 A 
BRANCH   6   8
ATOM      8  O   UNL     1      44.471   2.386  10.107  0.00  0.00    +0.000 OA
BRANCH   8   9
ATOM      9  C   UNL     1      44.591   2.919   8.770  0.00  0.00    +0.000 C 
ATOM     10  C   UNL     1      45.881   2.606   7.986  0.00  0.00    +0.000 C 
ATOM     11  N   UNL     1      46.088   4.038   7.721  0.00  0.00    +0.000 NA
ATOM     12  C   UNL     1      45.057   4.389   8.709  0.00  0.00    +0.000 C 
ATOM     13  H   UNL     1      45.862   4.323   6.769  0.00  0.00    +0.000 HD
ENDBRANCH   8   9
ENDBRANCH   6   8
ENDBRANCH   1   2
BRANCH   1  14
ATOM     14  C   UNL     1      47.323   6.010  13.335  0.00  0.00    +0.000 C 
ATOM     15  F   UNL     1      48.591   5.885  12.861  0.00  0.00    +0.000 F 
ENDBRANCH   1  14
BRANCH   1  16
ATOM     16  C   UNL     1      46.676   4.485  15.273  0.00  0.00    +0.000 C 
BRANCH  16  21
ATOM     17  C   UNL     1      51.021   2.842  17.570  0.00  0.00    +0.000 A 
ATOM     18  C   UNL     1      50.423   4.094  17.626  0.00  0.00    +0.000 A 
ATOM     19  C   UNL     1      49.206   4.295  16.971  0.00  0.00    +0.000 A 
ATOM     20  C   UNL     1      48.610   3.244  16.288  0.00  0.00    +0.000 A 
ATOM     21  N   UNL     1      47.348   3.288  15.755  0.00  0.00    +0.000 N 
ATOM     22  N   UNL     1      49.214   2.043  16.182  0.00  0.00    +0.000 NA
ATOM     23  C   UNL     1      50.407   1.866  16.806  0.00  0.00    +0.000 A 
ATOM     24  H   UNL     1      47.191   2.438  15.217  0.00  0.00    +0.000 HD
BRANCH  17  26
ATOM     25  N   UNL     1      52.634   1.197  18.318  0.00  0.00    +0.000 N 
ATOM     26  C   UNL     1      52.253   2.511  18.310  0.00  0.00    +0.000 C 
ATOM     27  O   UNL     1      52.935   3.377  18.843  0.00  0.00    +0.000 OA
ATOM     28  H   UNL     1      53.550   1.000  18.702  0.00  0.00    +0.000 HD
ATOM     29  H   UNL     1      52.249   0.525  17.670  0.00  0.00    +0.000 HD
ENDBRANCH  17  26
ENDBRANCH  16  21
ENDBRANCH   1  16
TORSDOF 7
ENDMDL
MODEL 7
REMARK VINA RESULT:    -6.156      3.451      7.972
REMARK INTER + INTRA:          -9.711
REMARK INTER:                  -8.745
REMARK INTRA:                  -0.966
REMARK UNBOUND:                -1.037
REMARK  Name = 
REMARK  7 active torsions:
REMARK  status: ('A' for Active; 'I' for Inactive)
REMARK    1  A    between atoms: C_2  and  C_4
REMARK    2  A    between atoms: N_8  and  C_9
REMARK    3  A    between atoms: C_9  and  C_10
REMARK    4  A    between atoms: C_10  and  C_11
REMARK    5  A    between atoms: C_10  and  C_13
REMARK    6  A    between atoms: C_17  and  O_18
REMARK    7  A    between atoms: O_18  and  C_19
REMARK                            x       y       z     vdW  Elec       q    Type
REMARK                         _______ _______ _______ _____ _____    ______ ____
ROOT
ATOM      1  C   UNL     1      48.973   7.558  12.434  0.00  0.00    +0.000 C 
ENDROOT
BRANCH   1   2
ATOM      2  C   UNL     1      47.465   7.554  12.195  0.00  0.00    +0.000 A 
ATOM      3  C   UNL     1      46.632   8.622  12.557  0.00  0.00    +0.000 A 
ATOM      4  C   UNL     1      45.271   8.605  12.241  0.00  0.00    +0.000 A 
ATOM      5  C   UNL     1      44.716   7.530  11.545  0.00  0.00    +0.000 A 
ATOM      6  C   UNL     1      45.530   6.464  11.172  0.00  0.00    +0.000 A 
ATOM      7  C   UNL     1      46.889   6.479  11.496  0.00  0.00    +0.000 A 
BRANCH   6   8
ATOM      8  O   UNL     1      45.123   5.382  10.435  0.00  0.00    +0.000 OA
BRANCH   8   9
ATOM      9  C   UNL     1      44.971   4.102  11.090  0.00  0.00    +0.000 C 
ATOM     10  C   UNL     1      44.571   2.895  10.220  0.00  0.00    +0.000 C 
ATOM     11  N   UNL     1      43.449   2.596  11.121  0.00  0.00    +0.000 NA
ATOM     12  C   UNL     1      43.607   3.899  11.783  0.00  0.00    +0.000 C 
ATOM     13  H   UNL     1      43.607   1.797  11.736  0.00  0.00    +0.000 HD
ENDBRANCH   8   9
ENDBRANCH   6   8
ENDBRANCH   1   2
BRANCH   1  14
ATOM     14  C   UNL     1      49.676   8.273  11.275  0.00  0.00    +0.000 C 
ATOM     15  F   UNL     1      50.569   7.437  10.681  0.00  0.00    +0.000 F 
ENDBRANCH   1  14
BRANCH   1  16
ATOM     16  C   UNL     1      49.396   8.130  13.806  0.00  0.00    +0.000 C 
BRANCH  16  21
ATOM     17  C   UNL     1      48.198   4.319  17.108  0.00  0.00    +0.000 A 
ATOM     18  C   UNL     1      47.444   4.842  16.065  0.00  0.00    +0.000 A 
ATOM     19  C   UNL     1      47.999   5.835  15.256  0.00  0.00    +0.000 A 
ATOM     20  C   UNL     1      49.294   6.275  15.497  0.00  0.00    +0.000 A 
ATOM     21  N   UNL     1      49.987   7.120  14.670  0.00  0.00    +0.000 N 
ATOM     22  N   UNL     1      50.009   5.815  16.543  0.00  0.00    +0.000 NA
ATOM     23  C   UNL     1      49.449   4.863  17.335  0.00  0.00    +0.000 A 
ATOM     24  H   UNL     1      50.863   7.374  15.123  0.00  0.00    +0.000 HD
BRANCH  17  26
ATOM     25  N   UNL     1      48.406   2.990  19.121  0.00  0.00    +0.000 N 
ATOM     26  C   UNL     1      47.732   3.203  17.951  0.00  0.00    +0.000 C 
ATOM     27  O   UNL     1      46.752   2.535  17.647  0.00  0.00    +0.000 OA
ATOM     28  H   UNL     1      47.994   2.320  19.760  0.00  0.00    +0.000 HD
ATOM     29  H   UNL     1      49.025   3.684  19.516  0.00  0.00    +0.000 HD
ENDBRANCH  17  26
ENDBRANCH  16  21
ENDBRANCH   1  16
TORSDOF 7
ENDMDL
MODEL 8
REMARK VINA RESULT:    -5.992      4.494      6.775
REMARK INTER + INTRA:          -9.480
REMARK INTER:                  -8.874
REMARK INTRA:                  -0.607
REMARK UNBOUND:                -1.037
REMARK  Name = 
REMARK  7 active torsions:
REMARK  status: ('A' for Active; 'I' for Inactive)
REMARK    1  A    between atoms: C_2  and  C_4
REMARK    2  A    between atoms: N_8  and  C_9
REMARK    3  A    between atoms: C_9  and  C_10
REMARK    4  A    between atoms: C_10  and  C_11
REMARK    5  A    between atoms: C_10  and  C_13
REMARK    6  A    between atoms: C_17  and  O_18
REMARK    7  A    between atoms: O_18  and  C_19
REMARK                            x       y       z     vdW  Elec       q    Type
REMARK                         _______ _______ _______ _____ _____    ______ ____
ROOT
ATOM      1  C   UNL     1      48.322   2.856  16.664  0.00  0.00    +0.000 C 
ENDROOT
BRANCH   1   2
ATOM      2  C   UNL     1      49.780   2.942  17.111  0.00  0.00    +0.000 A 
ATOM      3  C   UNL     1      50.413   4.156  17.415  0.00  0.00    +0.000 A 
ATOM      4  C   UNL     1      51.724   4.175  17.899  0.00  0.00    +0.000 A 
ATOM      5  C   UNL     1      52.423   2.985  18.105  0.00  0.00    +0.000 A 
ATOM      6  C   UNL     1      51.807   1.771  17.815  0.00  0.00    +0.000 A 
ATOM      7  C   UNL     1      50.499   1.754  17.323  0.00  0.00    +0.000 A 
BRANCH   6   8
ATOM      8  O   UNL     1      52.360   0.535  18.031  0.00  0.00    +0.000 OA
BRANCH   8   9
ATOM      9  C   UNL     1      53.788   0.367  17.881  0.00  0.00    +0.000 C 
ATOM     10  C   UNL     1      54.316  -0.091  16.508  0.00  0.00    +0.000 C 
ATOM     11  N   UNL     1      55.053  -1.194  17.142  0.00  0.00    +0.000 NA
ATOM     12  C   UNL     1      54.329  -0.979  18.403  0.00  0.00    +0.000 C 
ATOM     13  H   UNL     1      56.059  -1.039  17.210  0.00  0.00    +0.000 HD
ENDBRANCH   8   9
ENDBRANCH   6   8
ENDBRANCH   1   2
BRANCH   1  14
ATOM     14  C   UNL     1      47.404   2.909  17.889  0.00  0.00    +0.000 C 
ATOM     15  F   UNL     1      46.984   4.184  18.106  0.00  0.00    +0.000 F 
ENDBRANCH   1  14
BRANCH   1  16
ATOM     16  C   UNL     1      47.922   3.900  15.598  0.00  0.00    +0.000 C 
BRANCH  16  21
ATOM     17  C   UNL     1      44.611   4.726  11.698  0.00  0.00    +0.000 A 
ATOM     18  C   UNL     1      45.299   5.653  12.472  0.00  0.00    +0.000 A 
ATOM     19  C   UNL     1      46.198   5.196  13.437  0.00  0.00    +0.000 A 
ATOM     20  C   UNL     1      46.399   3.832  13.601  0.00  0.00    +0.000 A 
ATOM     21  N   UNL     1      47.371   3.287  14.400  0.00  0.00    +0.000 N 
ATOM     22  N   UNL     1      45.692   2.928  12.894  0.00  0.00    +0.000 NA
ATOM     23  C   UNL     1      44.805   3.385  11.971  0.00  0.00    +0.000 A 
ATOM     24  H   UNL     1      47.238   2.278  14.432  0.00  0.00    +0.000 HD
BRANCH  17  26
ATOM     25  N   UNL     1      44.064   4.688   9.339  0.00  0.00    +0.000 N 
ATOM     26  C   UNL     1      43.718   5.116  10.591  0.00  0.00    +0.000 C 
ATOM     27  O   UNL     1      42.685   5.741  10.789  0.00  0.00    +0.000 OA
ATOM     28  H   UNL     1      43.377   4.834   8.610  0.00  0.00    +0.000 HD
ATOM     29  H   UNL     1      44.745   3.955   9.193  0.00  0.00    +0.000 HD
ENDBRANCH  17  26
ENDBRANCH  16  21
ENDBRANCH   1  16
TORSDOF 7
ENDMDL
MODEL 9
REMARK VINA RESULT:    -5.842      3.720      8.281
REMARK INTER + INTRA:          -9.269
REMARK INTER:                  -8.456
REMARK INTRA:                  -0.813
REMARK UNBOUND:                -1.037
REMARK  Name = 
REMARK  7 active torsions:
REMARK  status: ('A' for Active; 'I' for Inactive)
REMARK    1  A    between atoms: C_2  and  C_4
REMARK    2  A    between atoms: N_8  and  C_9
REMARK    3  A    between atoms: C_9  and  C_10
REMARK    4  A    between atoms: C_10  and  C_11
REMARK    5  A    between atoms: C_10  and  C_13
REMARK    6  A    between atoms: C_17  and  O_18
REMARK    7  A    between atoms: O_18  and  C_19
REMARK                            x       y       z     vdW  Elec       q    Type
REMARK                         _______ _______ _______ _____ _____    ______ ____
ROOT
ATOM      1  C   UNL     1      48.549   7.678  13.335  0.00  0.00    +0.000 C 
ENDROOT
BRANCH   1   2
ATOM      2  C   UNL     1      47.151   7.457  12.763  0.00  0.00    +0.000 A 
ATOM      3  C   UNL     1      46.224   8.495  12.593  0.00  0.00    +0.000 A 
ATOM      4  C   UNL     1      44.987   8.255  11.988  0.00  0.00    +0.000 A 
ATOM      5  C   UNL     1      44.657   6.980  11.526  0.00  0.00    +0.000 A 
ATOM      6  C   UNL     1      45.568   5.940  11.681  0.00  0.00    +0.000 A 
ATOM      7  C   UNL     1      46.801   6.180  12.294  0.00  0.00    +0.000 A 
BRANCH   6   8
ATOM      8  O   UNL     1      45.391   4.661  11.218  0.00  0.00    +0.000 OA
BRANCH   8   9
ATOM      9  C   UNL     1      44.050   4.138  11.091  0.00  0.00    +0.000 C 
ATOM     10  C   UNL     1      43.398   3.525  12.345  0.00  0.00    +0.000 C 
ATOM     11  N   UNL     1      43.097   2.290  11.605  0.00  0.00    +0.000 NA
ATOM     12  C   UNL     1      43.974   2.714  10.504  0.00  0.00    +0.000 C 
ATOM     13  H   UNL     1      42.118   2.191  11.339  0.00  0.00    +0.000 HD
ENDBRANCH   8   9
ENDBRANCH   6   8
ENDBRANCH   1   2
BRANCH   1  14
ATOM     14  C   UNL     1      49.346   8.599  12.405  0.00  0.00    +0.000 C 
ATOM     15  F   UNL     1      49.772   7.909  11.313  0.00  0.00    +0.000 F 
ENDBRANCH   1  14
BRANCH   1  16
ATOM     16  C   UNL     1      48.565   8.181  14.796  0.00  0.00    +0.000 C 
BRANCH  16  21
ATOM     17  C   UNL     1      51.037   4.502  17.482  0.00  0.00    +0.000 A 
ATOM     18  C   UNL     1      51.533   5.696  16.974  0.00  0.00    +0.000 A 
ATOM     19  C   UNL     1      50.660   6.574  16.330  0.00  0.00    +0.000 A 
ATOM     20  C   UNL     1      49.315   6.250  16.218  0.00  0.00    +0.000 A 
ATOM     21  N   UNL     1      48.351   7.107  15.755  0.00  0.00    +0.000 N 
ATOM     22  N   UNL     1      48.838   5.068  16.657  0.00  0.00    +0.000 NA
ATOM     23  C   UNL     1      49.702   4.212  17.264  0.00  0.00    +0.000 A 
ATOM     24  H   UNL     1      47.474   6.597  15.669  0.00  0.00    +0.000 HD
BRANCH  17  26
ATOM     25  N   UNL     1      52.091   3.879  19.571  0.00  0.00    +0.000 N 
ATOM     26  C   UNL     1      51.862   3.561  18.261  0.00  0.00    +0.000 C 
ATOM     27  O   UNL     1      52.274   2.515  17.777  0.00  0.00    +0.000 OA
ATOM     28  H   UNL     1      52.533   3.163  20.135  0.00  0.00    +0.000 HD
ATOM     29  H   UNL     1      51.544   4.577  20.056  0.00  0.00    +0.000 HD
ENDBRANCH  17  26
ENDBRANCH  16  21
ENDBRANCH   1  16
TORSDOF 7
ENDMDL
