MODEL 1
REMARK VINA RESULT:    -7.182      0.000      0.000
REMARK INTER + INTRA:         -10.780
REMARK INTER:                  -9.911
REMARK INTRA:                  -0.869
REMARK UNBOUND:                -0.869
REMARK  Name = 
REMARK  10 active torsions:
REMARK  status: ('A' for Active; 'I' for Inactive)
REMARK    1  A    between atoms: C_1  and  O_2
REMARK    2  A    between atoms: O_2  and  C_3
REMARK    3  A    between atoms: C_9  and  C_10
REMARK    4  A    between atoms: C_10  and  C_11
REMARK    5  A    between atoms: C_14  and  C_15
REMARK    6  A    between atoms: C_15  and  N_16
REMARK    7  A    between atoms: C_15  and  C_17
REMARK    8  A    between atoms: C_17  and  C_18
REMARK    9  A    between atoms: C_18  and  C_19
REMARK   10  A    between atoms: C_18  and  C_20
REMARK                            x       y       z     vdW  Elec       q    Type
REMARK                         _______ _______ _______ _____ _____    ______ ____
ROOT
ATOM      1  C   UNL     1      44.512   6.542  12.062  0.00  0.00    +0.000 C 
ATOM      2  C   UNL     1      44.840   8.009  11.786  0.00  0.00    +0.000 C 
ATOM      3  C   UNL     1      45.891   8.581  12.732  0.00  0.00    +0.000 C 
ATOM      4  C   UNL     1      47.213   7.792  12.721  0.00  0.00    +0.000 C 
ATOM      5  C   UNL     1      46.995   6.279  12.861  0.00  0.00    +0.000 C 
ATOM      6  C   UNL     1      45.728   5.648  12.298  0.00  0.00    +0.000 C 
ENDROOT
BRANCH   1   7
ATOM      7  C   UNL     1      43.568   5.912  11.003  0.00  0.00    +0.000 C 
BRANCH   7  14
ATOM      8  C   UNL     1      45.835   3.436   7.657  0.00  0.00    +0.000 A 
ATOM      9  C   UNL     1      45.844   2.067   7.932  0.00  0.00    +0.000 A 
ATOM     10  C   UNL     1      45.134   1.551   9.023  0.00  0.00    +0.000 A 
ATOM     11  C   UNL     1      44.458   2.444   9.850  0.00  0.00    +0.000 A 
ATOM     12  N   UNL     1      43.737   2.227  10.991  0.00  0.00    +0.000 N 
ATOM     13  C   UNL     1      43.335   3.406  11.544  0.00  0.00    +0.000 A 
ATOM     14  C   UNL     1      43.738   4.443  10.713  0.00  0.00    +0.000 A 
ATOM     15  C   UNL     1      44.436   3.822   9.622  0.00  0.00    +0.000 A 
ATOM     16  C   UNL     1      45.108   4.310   8.477  0.00  0.00    +0.000 A 
ATOM     17  H   UNL     1      43.580   1.298  11.388  0.00  0.00    +0.000 HD
BRANCH   8  19
ATOM     18  C   UNL     1      47.049   3.237   5.608  0.00  0.00    +0.000 C 
ATOM     19  O   UNL     1      46.518   4.056   6.642  0.00  0.00    +0.000 OA
ENDBRANCH   8  19
ENDBRANCH   7  14
ENDBRANCH   1   7
BRANCH   4  20
ATOM     20  C   UNL     1      48.220   8.321  13.816  0.00  0.00    +0.000 C 
BRANCH  20  21
ATOM     21  N   UNL     1      47.464   9.014  14.862  0.00  0.00    +0.000 NA
ATOM     22  H   UNL     1      46.571   8.545  15.007  0.00  0.00    +0.000 HD
ATOM     23  H   UNL     1      47.248   9.966  14.573  0.00  0.00    +0.000 HD
ENDBRANCH  20  21
BRANCH  20  24
ATOM     24  C   UNL     1      49.315   9.242  13.216  0.00  0.00    +0.000 C 
BRANCH  24  25
ATOM     25  C   UNL     1      49.607   9.176  11.695  0.00  0.00    +0.000 C 
ATOM     26  C   UNL     1      50.119  10.480  11.079  0.00  0.00    +0.000 C 
ATOM     27  C   UNL     1      50.658   8.080  11.454  0.00  0.00    +0.000 C 
ENDBRANCH  24  25
ENDBRANCH  20  24
ENDBRANCH   4  20
TORSDOF 7
ENDMDL
MODEL 2
REMARK VINA RESULT:    -7.047      1.782      2.594
REMARK INTER + INTRA:         -10.594
REMARK INTER:                  -9.536
REMARK INTRA:                  -1.059
REMARK UNBOUND:                -0.869
REMARK  Name = 
REMARK  10 active torsions:
REMARK  status: ('A' for Active; 'I' for Inactive)
REMARK    1  A    between atoms: C_1  and  O_2
REMARK    2  A    between atoms: O_2  and  C_3
REMARK    3  A    between atoms: C_9  and  C_10
REMARK    4  A    between atoms: C_10  and  C_11
REMARK    5  A    between atoms: C_14  and  C_15
REMARK    6  A    between atoms: C_15  and  N_16
REMARK    7  A    between atoms: C_15  and  C_17
REMARK    8  A    between atoms: C_17  and  C_18
REMARK    9  A    between atoms: C_18  and  C_19
REMARK   10  A    between atoms: C_18  and  C_20
REMARK                            x       y       z     vdW  Elec       q    Type
REMARK                         _______ _______ _______ _____ _____    ______ ____
ROOT
ATOM      1  C   UNL     1      45.310   6.738  12.559  0.00  0.00    +0.000 C 
ATOM      2  C   UNL     1      45.613   8.232  12.659  0.00  0.00    +0.000 C 
ATOM      3  C   UNL     1      46.770   8.552  13.601  0.00  0.00    +0.000 C 
ATOM      4  C   UNL     1      48.077   7.830  13.226  0.00  0.00    +0.000 C 
ATOM      5  C   UNL     1      47.868   6.330  12.971  0.00  0.00    +0.000 C 
ATOM      6  C   UNL     1      46.540   5.844  12.404  0.00  0.00    +0.000 C 
ENDROOT
BRANCH   1   7
ATOM      7  C   UNL     1      44.246   6.395  11.482  0.00  0.00    +0.000 C 
BRANCH   7  14
ATOM      8  C   UNL     1      45.761   3.623   7.948  0.00  0.00    +0.000 A 
ATOM      9  C   UNL     1      45.463   2.277   8.172  0.00  0.00    +0.000 A 
ATOM     10  C   UNL     1      44.692   1.887   9.274  0.00  0.00    +0.000 A 
ATOM     11  C   UNL     1      44.270   2.872  10.163  0.00  0.00    +0.000 A 
ATOM     12  N   UNL     1      43.559   2.774  11.327  0.00  0.00    +0.000 N 
ATOM     13  C   UNL     1      43.461   3.986  11.940  0.00  0.00    +0.000 A 
ATOM     14  C   UNL     1      44.062   4.941  11.131  0.00  0.00    +0.000 A 
ATOM     15  C   UNL     1      44.559   4.228   9.987  0.00  0.00    +0.000 A 
ATOM     16  C   UNL     1      45.284   4.602   8.832  0.00  0.00    +0.000 A 
ATOM     17  H   UNL     1      43.207   1.888  11.697  0.00  0.00    +0.000 HD
BRANCH   8  19
ATOM     18  C   UNL     1      46.906   3.218   5.891  0.00  0.00    +0.000 C 
ATOM     19  O   UNL     1      46.531   4.116   6.927  0.00  0.00    +0.000 OA
ENDBRANCH   8  19
ENDBRANCH   7  14
ENDBRANCH   1   7
BRANCH   4  20
ATOM     20  C   UNL     1      49.207   8.066  14.302  0.00  0.00    +0.000 C 
BRANCH  20  21
ATOM     21  N   UNL     1      50.382   7.268  13.941  0.00  0.00    +0.000 NA
ATOM     22  H   UNL     1      51.174   7.547  14.518  0.00  0.00    +0.000 HD
ATOM     23  H   UNL     1      50.649   7.446  12.975  0.00  0.00    +0.000 HD
ENDBRANCH  20  21
BRANCH  20  24
ATOM     24  C   UNL     1      48.731   7.737  15.742  0.00  0.00    +0.000 C 
BRANCH  24  25
ATOM     25  C   UNL     1      49.423   6.590  16.521  0.00  0.00    +0.000 C 
ATOM     26  C   UNL     1      49.930   6.970  17.914  0.00  0.00    +0.000 C 
ATOM     27  C   UNL     1      48.418   5.435  16.670  0.00  0.00    +0.000 C 
ENDBRANCH  24  25
ENDBRANCH  20  24
ENDBRANCH   4  20
TORSDOF 7
ENDMDL
MODEL 3
REMARK VINA RESULT:    -6.773      2.105      7.241
REMARK INTER + INTRA:         -10.216
REMARK INTER:                  -9.623
REMARK INTRA:                  -0.593
REMARK UNBOUND:                -0.869
REMARK  Name = 
REMARK  10 active torsions:
REMARK  status: ('A' for Active; 'I' for Inactive)
REMARK    1  A    between atoms: C_1  and  O_2
REMARK    2  A    between atoms: O_2  and  C_3
REMARK    3  A    between atoms: C_9  and  C_10
REMARK    4  A    between atoms: C_10  and  C_11
REMARK    5  A    between atoms: C_14  and  C_15
REMARK    6  A    between atoms: C_15  and  N_16
REMARK    7  A    between atoms: C_15  and  C_17
REMARK    8  A    between atoms: C_17  and  C_18
REMARK    9  A    between atoms: C_18  and  C_19
REMARK   10  A    between atoms: C_18  and  C_20
REMARK                            x       y       z     vdW  Elec       q    Type
REMARK                         _______ _______ _______ _____ _____    ______ ____
ROOT
ATOM      1  C   UNL     1      45.985   5.506  11.854  0.00  0.00    +0.000 C 
ATOM      2  C   UNL     1      45.673   6.145  10.502  0.00  0.00    +0.000 C 
ATOM      3  C   UNL     1      45.684   5.149   9.346  0.00  0.00    +0.000 C 
ATOM      4  C   UNL     1      44.712   3.972   9.548  0.00  0.00    +0.000 C 
ATOM      5  C   UNL     1      44.847   3.330  10.936  0.00  0.00    +0.000 C 
ATOM      6  C   UNL     1      45.257   4.190  12.124  0.00  0.00    +0.000 C 
ENDROOT
BRANCH   1   7
ATOM      7  C   UNL     1      45.814   6.481  13.051  0.00  0.00    +0.000 C 
BRANCH   7  14
ATOM      8  C   UNL     1      49.792   8.625  11.617  0.00  0.00    +0.000 A 
ATOM      9  C   UNL     1      49.603   9.991  11.403  0.00  0.00    +0.000 A 
ATOM     10  C   UNL     1      48.385  10.605  11.720  0.00  0.00    +0.000 A 
ATOM     11  C   UNL     1      47.354   9.808  12.211  0.00  0.00    +0.000 A 
ATOM     12  N   UNL     1      46.069  10.126  12.552  0.00  0.00    +0.000 N 
ATOM     13  C   UNL     1      45.364   9.010  12.885  0.00  0.00    +0.000 A 
ATOM     14  C   UNL     1      46.218   7.917  12.836  0.00  0.00    +0.000 A 
ATOM     15  C   UNL     1      47.494   8.434  12.425  0.00  0.00    +0.000 A 
ATOM     16  C   UNL     1      48.753   7.851  12.157  0.00  0.00    +0.000 A 
ATOM     17  H   UNL     1      45.694  11.076  12.501  0.00  0.00    +0.000 HD
BRANCH   8  19
ATOM     18  C   UNL     1      51.892   8.537  10.482  0.00  0.00    +0.000 C 
ATOM     19  O   UNL     1      50.923   7.912  11.315  0.00  0.00    +0.000 OA
ENDBRANCH   8  19
ENDBRANCH   7  14
ENDBRANCH   1   7
BRANCH   4  20
ATOM     20  C   UNL     1      44.858   2.890   8.409  0.00  0.00    +0.000 C 
BRANCH  20  21
ATOM     21  N   UNL     1      45.084   1.579   9.024  0.00  0.00    +0.000 NA
ATOM     22  H   UNL     1      45.929   1.609   9.592  0.00  0.00    +0.000 HD
ATOM     23  H   UNL     1      45.239   0.873   8.309  0.00  0.00    +0.000 HD
ENDBRANCH  20  21
BRANCH  20  24
ATOM     24  C   UNL     1      45.990   3.236   7.405  0.00  0.00    +0.000 C 
BRANCH  24  25
ATOM     25  C   UNL     1      46.518   2.132   6.453  0.00  0.00    +0.000 C 
ATOM     26  C   UNL     1      47.106   2.643   5.135  0.00  0.00    +0.000 C 
ATOM     27  C   UNL     1      47.607   1.338   7.195  0.00  0.00    +0.000 C 
ENDBRANCH  24  25
ENDBRANCH  20  24
ENDBRANCH   4  20
TORSDOF 7
ENDMDL
MODEL 4
REMARK VINA RESULT:    -6.650      2.505      7.450
REMARK INTER + INTRA:         -10.046
REMARK INTER:                  -9.280
REMARK INTRA:                  -0.766
REMARK UNBOUND:                -0.869
REMARK  Name = 
REMARK  10 active torsions:
REMARK  status: ('A' for Active; 'I' for Inactive)
REMARK    1  A    between atoms: C_1  and  O_2
REMARK    2  A    between atoms: O_2  and  C_3
REMARK    3  A    between atoms: C_9  and  C_10
REMARK    4  A    between atoms: C_10  and  C_11
REMARK    5  A    between atoms: C_14  and  C_15
REMARK    6  A    between atoms: C_15  and  N_16
REMARK    7  A    between atoms: C_15  and  C_17
REMARK    8  A    between atoms: C_17  and  C_18
REMARK    9  A    between atoms: C_18  and  C_19
REMARK   10  A    between atoms: C_18  and  C_20
REMARK                            x       y       z     vdW  Elec       q    Type
REMARK                         _______ _______ _______ _____ _____    ______ ____
ROOT
ATOM      1  C   UNL     1      46.061   5.592  13.266  0.00  0.00    +0.000 C 
ATOM      2  C   UNL     1      46.459   4.118  13.209  0.00  0.00    +0.000 C 
ATOM      3  C   UNL     1      45.461   3.252  12.446  0.00  0.00    +0.000 C 
ATOM      4  C   UNL     1      45.219   3.731  11.003  0.00  0.00    +0.000 C 
ATOM      5  C   UNL     1      44.935   5.238  10.924  0.00  0.00    +0.000 C 
ATOM      6  C   UNL     1      45.576   6.176  11.940  0.00  0.00    +0.000 C 
ENDROOT
BRANCH   1   7
ATOM      7  C   UNL     1      47.150   6.501  13.897  0.00  0.00    +0.000 C 
BRANCH   7  14
ATOM      8  C   UNL     1      46.510  10.726  11.847  0.00  0.00    +0.000 A 
ATOM      9  C   UNL     1      47.661  11.173  11.195  0.00  0.00    +0.000 A 
ATOM     10  C   UNL     1      48.793  10.354  11.096  0.00  0.00    +0.000 A 
ATOM     11  C   UNL     1      48.753   9.101  11.703  0.00  0.00    +0.000 A 
ATOM     12  N   UNL     1      49.711   8.131  11.803  0.00  0.00    +0.000 N 
ATOM     13  C   UNL     1      49.280   7.100  12.583  0.00  0.00    +0.000 A 
ATOM     14  C   UNL     1      47.968   7.351  12.961  0.00  0.00    +0.000 A 
ATOM     15  C   UNL     1      47.629   8.620  12.379  0.00  0.00    +0.000 A 
ATOM     16  C   UNL     1      46.478   9.442  12.409  0.00  0.00    +0.000 A 
ATOM     17  H   UNL     1      50.641   8.215  11.386  0.00  0.00    +0.000 HD
BRANCH   8  19
ATOM     18  C   UNL     1      44.138  10.868  11.604  0.00  0.00    +0.000 C 
ATOM     19  O   UNL     1      45.361  11.450  12.034  0.00  0.00    +0.000 OA
ENDBRANCH   8  19
ENDBRANCH   7  14
ENDBRANCH   1   7
BRANCH   4  20
ATOM     20  C   UNL     1      44.075   2.905  10.295  0.00  0.00    +0.000 C 
BRANCH  20  21
ATOM     21  N   UNL     1      43.344   2.140  11.309  0.00  0.00    +0.000 NA
ATOM     22  H   UNL     1      42.915   1.323  10.877  0.00  0.00    +0.000 HD
ATOM     23  H   UNL     1      42.585   2.697  11.695  0.00  0.00    +0.000 HD
ENDBRANCH  20  21
BRANCH  20  24
ATOM     24  C   UNL     1      44.622   1.973   9.181  0.00  0.00    +0.000 C 
BRANCH  24  25
ATOM     25  C   UNL     1      45.955   2.337   8.480  0.00  0.00    +0.000 C 
ATOM     26  C   UNL     1      46.681   1.161   7.821  0.00  0.00    +0.000 C 
ATOM     27  C   UNL     1      45.658   3.390   7.399  0.00  0.00    +0.000 C 
ENDBRANCH  24  25
ENDBRANCH  20  24
ENDBRANCH   4  20
TORSDOF 7
ENDMDL
MODEL 5
REMARK VINA RESULT:    -6.584      3.444      8.001
REMARK INTER + INTRA:          -9.955
REMARK INTER:                  -9.016
REMARK INTRA:                  -0.939
REMARK UNBOUND:                -0.869
REMARK  Name = 
REMARK  10 active torsions:
REMARK  status: ('A' for Active; 'I' for Inactive)
REMARK    1  A    between atoms: C_1  and  O_2
REMARK    2  A    between atoms: O_2  and  C_3
REMARK    3  A    between atoms: C_9  and  C_10
REMARK    4  A    between atoms: C_10  and  C_11
REMARK    5  A    between atoms: C_14  and  C_15
REMARK    6  A    between atoms: C_15  and  N_16
REMARK    7  A    between atoms: C_15  and  C_17
REMARK    8  A    between atoms: C_17  and  C_18
REMARK    9  A    between atoms: C_18  and  C_19
REMARK   10  A    between atoms: C_18  and  C_20
REMARK                            x       y       z     vdW  Elec       q    Type
REMARK                         _______ _______ _______ _____ _____    ______ ____
ROOT
ATOM      1  C   UNL     1      46.748   6.269  12.596  0.00  0.00    +0.000 C 
ATOM      2  C   UNL     1      46.115   6.682  11.268  0.00  0.00    +0.000 C 
ATOM      3  C   UNL     1      45.587   5.501  10.459  0.00  0.00    +0.000 C 
ATOM      4  C   UNL     1      44.561   4.648  11.226  0.00  0.00    +0.000 C 
ATOM      5  C   UNL     1      45.040   4.280  12.638  0.00  0.00    +0.000 C 
ATOM      6  C   UNL     1      45.949   5.240  13.395  0.00  0.00    +0.000 C 
ENDROOT
BRANCH   1   7
ATOM      7  C   UNL     1      47.138   7.474  13.494  0.00  0.00    +0.000 C 
BRANCH   7  14
ATOM      8  C   UNL     1      49.054   5.361  17.280  0.00  0.00    +0.000 A 
ATOM      9  C   UNL     1      50.441   5.522  17.325  0.00  0.00    +0.000 A 
ATOM     10  C   UNL     1      51.099   6.333  16.392  0.00  0.00    +0.000 A 
ATOM     11  C   UNL     1      50.339   6.938  15.394  0.00  0.00    +0.000 A 
ATOM     12  N   UNL     1      50.718   7.729  14.345  0.00  0.00    +0.000 N 
ATOM     13  C   UNL     1      49.654   8.016  13.544  0.00  0.00    +0.000 A 
ATOM     14  C   UNL     1      48.514   7.462  14.109  0.00  0.00    +0.000 A 
ATOM     15  C   UNL     1      48.953   6.792  15.302  0.00  0.00    +0.000 A 
ATOM     16  C   UNL     1      48.305   6.019  16.293  0.00  0.00    +0.000 A 
ATOM     17  H   UNL     1      51.686   8.007  14.173  0.00  0.00    +0.000 HD
BRANCH   8  19
ATOM     18  C   UNL     1      47.390   3.664  17.518  0.00  0.00    +0.000 C 
ATOM     19  O   UNL     1      48.310   4.569  18.115  0.00  0.00    +0.000 OA
ENDBRANCH   8  19
ENDBRANCH   7  14
ENDBRANCH   1   7
BRANCH   4  20
ATOM     20  C   UNL     1      44.150   3.357  10.417  0.00  0.00    +0.000 C 
BRANCH  20  21
ATOM     21  N   UNL     1      43.390   2.465  11.297  0.00  0.00    +0.000 NA
ATOM     22  H   UNL     1      43.187   1.594  10.809  0.00  0.00    +0.000 HD
ATOM     23  H   UNL     1      42.492   2.882  11.534  0.00  0.00    +0.000 HD
ENDBRANCH  20  21
BRANCH  20  24
ATOM     24  C   UNL     1      45.375   2.625   9.807  0.00  0.00    +0.000 C 
BRANCH  24  25
ATOM     25  C   UNL     1      45.448   2.426   8.272  0.00  0.00    +0.000 C 
ATOM     26  C   UNL     1      45.944   3.641   7.485  0.00  0.00    +0.000 C 
ATOM     27  C   UNL     1      46.390   1.245   7.985  0.00  0.00    +0.000 C 
ENDBRANCH  24  25
ENDBRANCH  20  24
ENDBRANCH   4  20
TORSDOF 7
ENDMDL
MODEL 6
REMARK VINA RESULT:    -6.485      2.527      7.701
REMARK INTER + INTRA:          -9.819
REMARK INTER:                  -9.096
REMARK INTRA:                  -0.722
REMARK UNBOUND:                -0.869
REMARK  Name = 
REMARK  10 active torsions:
REMARK  status: ('A' for Active; 'I' for Inactive)
REMARK    1  A    between atoms: C_1  and  O_2
REMARK    2  A    between atoms: O_2  and  C_3
REMARK    3  A    between atoms: C_9  and  C_10
REMARK    4  A    between atoms: C_10  and  C_11
REMARK    5  A    between atoms: C_14  and  C_15
REMARK    6  A    between atoms: C_15  and  N_16
REMARK    7  A    between atoms: C_15  and  C_17
REMARK    8  A    between atoms: C_17  and  C_18
REMARK    9  A    between atoms: C_18  and  C_19
REMARK   10  A    between atoms: C_18  and  C_20
REMARK                            x       y       z     vdW  Elec       q    Type
REMARK                         _______ _______ _______ _____ _____    ______ ____
ROOT
ATOM      1  C   UNL     1      45.501   5.784  11.859  0.00  0.00    +0.000 C 
ATOM      2  C   UNL     1      45.513   6.340  10.437  0.00  0.00    +0.000 C 
ATOM      3  C   UNL     1      45.684   5.264   9.368  0.00  0.00    +0.000 C 
ATOM      4  C   UNL     1      44.609   4.164   9.436  0.00  0.00    +0.000 C 
ATOM      5  C   UNL     1      44.417   3.617  10.858  0.00  0.00    +0.000 C 
ATOM      6  C   UNL     1      44.641   4.535  12.052  0.00  0.00    +0.000 C 
ENDROOT
BRANCH   1   7
ATOM      7  C   UNL     1      45.165   6.850  12.936  0.00  0.00    +0.000 C 
BRANCH   7  14
ATOM      8  C   UNL     1      49.526   7.584  14.644  0.00  0.00    +0.000 A 
ATOM      9  C   UNL     1      50.008   8.854  14.323  0.00  0.00    +0.000 A 
ATOM     10  C   UNL     1      49.190   9.790  13.679  0.00  0.00    +0.000 A 
ATOM     11  C   UNL     1      47.899   9.404  13.327  0.00  0.00    +0.000 A 
ATOM     12  N   UNL     1      46.918  10.084  12.661  0.00  0.00    +0.000 N 
ATOM     13  C   UNL     1      45.839   9.284  12.435  0.00  0.00    +0.000 A 
ATOM     14  C   UNL     1      46.072   8.050  13.027  0.00  0.00    +0.000 A 
ATOM     15  C   UNL     1      47.381   8.138  13.614  0.00  0.00    +0.000 A 
ATOM     16  C   UNL     1      48.206   7.234  14.322  0.00  0.00    +0.000 A 
ATOM     17  H   UNL     1      47.024  11.048  12.337  0.00  0.00    +0.000 HD
BRANCH   8  19
ATOM     18  C   UNL     1      50.549   6.718  16.622  0.00  0.00    +0.000 C 
ATOM     19  O   UNL     1      50.243   6.579  15.241  0.00  0.00    +0.000 OA
ENDBRANCH   8  19
ENDBRANCH   7  14
ENDBRANCH   1   7
BRANCH   4  20
ATOM     20  C   UNL     1      44.902   2.995   8.417  0.00  0.00    +0.000 C 
BRANCH  20  21
ATOM     21  N   UNL     1      44.960   1.728   9.151  0.00  0.00    +0.000 NA
ATOM     22  H   UNL     1      45.696   1.774   9.854  0.00  0.00    +0.000 HD
ATOM     23  H   UNL     1      45.206   0.966   8.523  0.00  0.00    +0.000 HD
ENDBRANCH  20  21
BRANCH  20  24
ATOM     24  C   UNL     1      46.204   3.230   7.606  0.00  0.00    +0.000 C 
BRANCH  24  25
ATOM     25  C   UNL     1      46.590   2.224   6.492  0.00  0.00    +0.000 C 
ATOM     26  C   UNL     1      47.142   2.857   5.212  0.00  0.00    +0.000 C 
ATOM     27  C   UNL     1      47.654   1.267   7.056  0.00  0.00    +0.000 C 
ENDBRANCH  24  25
ENDBRANCH  20  24
ENDBRANCH   4  20
TORSDOF 7
ENDMDL
MODEL 7
REMARK VINA RESULT:    -6.178      4.025      8.115
REMARK INTER + INTRA:          -9.395
REMARK INTER:                  -8.157
REMARK INTRA:                  -1.238
REMARK UNBOUND:                -0.869
REMARK  Name = 
REMARK  10 active torsions:
REMARK  status: ('A' for Active; 'I' for Inactive)
REMARK    1  A    between atoms: C_1  and  O_2
REMARK    2  A    between atoms: O_2  and  C_3
REMARK    3  A    between atoms: C_9  and  C_10
REMARK    4  A    between atoms: C_10  and  C_11
REMARK    5  A    between atoms: C_14  and  C_15
REMARK    6  A    between atoms: C_15  and  N_16
REMARK    7  A    between atoms: C_15  and  C_17
REMARK    8  A    between atoms: C_17  and  C_18
REMARK    9  A    between atoms: C_18  and  C_19
REMARK   10  A    between atoms: C_18  and  C_20
REMARK                            x       y       z     vdW  Elec       q    Type
REMARK                         _______ _______ _______ _____ _____    ______ ____
ROOT
ATOM      1  C   UNL     1      47.825   6.562  13.216  0.00  0.00    +0.000 C 
ATOM      2  C   UNL     1      46.796   7.680  13.059  0.00  0.00    +0.000 C 
ATOM      3  C   UNL     1      45.548   7.250  12.293  0.00  0.00    +0.000 C 
ATOM      4  C   UNL     1      44.836   6.039  12.922  0.00  0.00    +0.000 C 
ATOM      5  C   UNL     1      45.803   4.891  13.247  0.00  0.00    +0.000 C 
ATOM      6  C   UNL     1      47.243   5.210  13.629  0.00  0.00    +0.000 C 
ENDROOT
BRANCH   1   7
ATOM      7  C   UNL     1      49.018   6.946  14.132  0.00  0.00    +0.000 C 
BRANCH   7  14
ATOM      8  C   UNL     1      48.949   4.364  18.107  0.00  0.00    +0.000 A 
ATOM      9  C   UNL     1      48.777   5.156  19.244  0.00  0.00    +0.000 A 
ATOM     10  C   UNL     1      48.533   6.530  19.130  0.00  0.00    +0.000 A 
ATOM     11  C   UNL     1      48.512   7.092  17.856  0.00  0.00    +0.000 A 
ATOM     12  N   UNL     1      48.346   8.390  17.459  0.00  0.00    +0.000 N 
ATOM     13  C   UNL     1      48.504   8.509  16.111  0.00  0.00    +0.000 A 
ATOM     14  C   UNL     1      48.712   7.245  15.577  0.00  0.00    +0.000 A 
ATOM     15  C   UNL     1      48.695   6.340  16.692  0.00  0.00    +0.000 A 
ATOM     16  C   UNL     1      48.876   4.945  16.832  0.00  0.00    +0.000 A 
ATOM     17  H   UNL     1      48.183   9.159  18.111  0.00  0.00    +0.000 HD
BRANCH   8  19
ATOM     18  C   UNL     1      50.388   2.593  17.401  0.00  0.00    +0.000 C 
ATOM     19  O   UNL     1      49.225   3.021  18.097  0.00  0.00    +0.000 OA
ENDBRANCH   8  19
ENDBRANCH   7  14
ENDBRANCH   1   7
BRANCH   4  20
ATOM     20  C   UNL     1      43.641   5.531  12.025  0.00  0.00    +0.000 C 
BRANCH  20  21
ATOM     21  N   UNL     1      42.433   5.439  12.850  0.00  0.00    +0.000 NA
ATOM     22  H   UNL     1      41.857   6.268  12.706  0.00  0.00    +0.000 HD
ATOM     23  H   UNL     1      42.678   5.424  13.838  0.00  0.00    +0.000 HD
ENDBRANCH  20  21
BRANCH  20  24
ATOM     24  C   UNL     1      43.951   4.174  11.339  0.00  0.00    +0.000 C 
BRANCH  24  25
ATOM     25  C   UNL     1      44.245   4.147   9.817  0.00  0.00    +0.000 C 
ATOM     26  C   UNL     1      45.478   4.944   9.384  0.00  0.00    +0.000 C 
ATOM     27  C   UNL     1      44.439   2.683   9.391  0.00  0.00    +0.000 C 
ENDBRANCH  24  25
ENDBRANCH  20  24
ENDBRANCH   4  20
TORSDOF 7
ENDMDL
MODEL 8
REMARK VINA RESULT:    -5.899      3.655      5.585
REMARK INTER + INTRA:          -9.010
REMARK INTER:                  -8.209
REMARK INTRA:                  -0.801
REMARK UNBOUND:                -0.869
REMARK  Name = 
REMARK  10 active torsions:
REMARK  status: ('A' for Active; 'I' for Inactive)
REMARK    1  A    between atoms: C_1  and  O_2
REMARK    2  A    between atoms: O_2  and  C_3
REMARK    3  A    between atoms: C_9  and  C_10
REMARK    4  A    between atoms: C_10  and  C_11
REMARK    5  A    between atoms: C_14  and  C_15
REMARK    6  A    between atoms: C_15  and  N_16
REMARK    7  A    between atoms: C_15  and  C_17
REMARK    8  A    between atoms: C_17  and  C_18
REMARK    9  A    between atoms: C_18  and  C_19
REMARK   10  A    between atoms: C_18  and  C_20
REMARK                            x       y       z     vdW  Elec       q    Type
REMARK                         _______ _______ _______ _____ _____    ______ ____
ROOT
ATOM      1  C   UNL     1      48.161   5.774  13.457  0.00  0.00    +0.000 C 
ATOM      2  C   UNL     1      47.032   4.878  13.964  0.00  0.00    +0.000 C 
ATOM      3  C   UNL     1      47.350   4.202  15.295  0.00  0.00    +0.000 C 
ATOM      4  C   UNL     1      47.701   5.199  16.414  0.00  0.00    +0.000 C 
ATOM      5  C   UNL     1      48.740   6.238  15.972  0.00  0.00    +0.000 C 
ATOM      6  C   UNL     1      48.781   6.684  14.516  0.00  0.00    +0.000 C 
ENDROOT
BRANCH   1   7
ATOM      7  C   UNL     1      47.780   6.589  12.191  0.00  0.00    +0.000 C 
BRANCH   7  14
ATOM      8  C   UNL     1      43.986   4.125  10.776  0.00  0.00    +0.000 A 
ATOM      9  C   UNL     1      42.801   4.846  10.937  0.00  0.00    +0.000 A 
ATOM     10  C   UNL     1      42.827   6.182  11.355  0.00  0.00    +0.000 A 
ATOM     11  C   UNL     1      44.062   6.756  11.649  0.00  0.00    +0.000 A 
ATOM     12  N   UNL     1      44.374   8.003  12.114  0.00  0.00    +0.000 N 
ATOM     13  C   UNL     1      45.709   8.107  12.367  0.00  0.00    +0.000 A 
ATOM     14  C   UNL     1      46.323   6.919  11.995  0.00  0.00    +0.000 A 
ATOM     15  C   UNL     1      45.270   6.067  11.517  0.00  0.00    +0.000 A 
ATOM     16  C   UNL     1      45.220   4.740  11.032  0.00  0.00    +0.000 A 
ATOM     17  H   UNL     1      43.675   8.727  12.293  0.00  0.00    +0.000 HD
BRANCH   8  19
ATOM     18  C   UNL     1      44.865   2.499   9.262  0.00  0.00    +0.000 C 
ATOM     19  O   UNL     1      44.081   2.808  10.407  0.00  0.00    +0.000 OA
ENDBRANCH   8  19
ENDBRANCH   7  14
ENDBRANCH   1   7
BRANCH   4  20
ATOM     20  C   UNL     1      48.166   4.462  17.730  0.00  0.00    +0.000 C 
BRANCH  20  21
ATOM     21  N   UNL     1      47.114   3.533  18.153  0.00  0.00    +0.000 NA
ATOM     22  H   UNL     1      47.109   3.463  19.170  0.00  0.00    +0.000 HD
ATOM     23  H   UNL     1      47.301   2.599  17.798  0.00  0.00    +0.000 HD
ENDBRANCH  20  21
BRANCH  20  24
ATOM     24  C   UNL     1      48.524   5.453  18.869  0.00  0.00    +0.000 C 
BRANCH  24  25
ATOM     25  C   UNL     1      47.392   6.268  19.544  0.00  0.00    +0.000 C 
ATOM     26  C   UNL     1      47.315   6.129  21.066  0.00  0.00    +0.000 C 
ATOM     27  C   UNL     1      47.599   7.753  19.203  0.00  0.00    +0.000 C 
ENDBRANCH  24  25
ENDBRANCH  20  24
ENDBRANCH   4  20
TORSDOF 7
ENDMDL
MODEL 9
REMARK VINA RESULT:    -5.806      3.390      5.298
REMARK INTER + INTRA:          -8.881
REMARK INTER:                  -8.063
REMARK INTRA:                  -0.818
REMARK UNBOUND:                -0.869
REMARK  Name = 
REMARK  10 active torsions:
REMARK  status: ('A' for Active; 'I' for Inactive)
REMARK    1  A    between atoms: C_1  and  O_2
REMARK    2  A    between atoms: O_2  and  C_3
REMARK    3  A    between atoms: C_9  and  C_10
REMARK    4  A    between atoms: C_10  and  C_11
REMARK    5  A    between atoms: C_14  and  C_15
REMARK    6  A    between atoms: C_15  and  N_16
REMARK    7  A    between atoms: C_15  and  C_17
REMARK    8  A    between atoms: C_17  and  C_18
REMARK    9  A    between atoms: C_18  and  C_19
REMARK   10  A    between atoms: C_18  and  C_20
REMARK                            x       y       z     vdW  Elec       q    Type
REMARK                         _______ _______ _______ _____ _____    ______ ____
ROOT
ATOM      1  C   UNL     1      48.486   6.555  13.068  0.00  0.00    +0.000 C 
ATOM      2  C   UNL     1      47.422   5.948  13.980  0.00  0.00    +0.000 C 
ATOM      3  C   UNL     1      47.981   5.445  15.308  0.00  0.00    +0.000 C 
ATOM      4  C   UNL     1      48.722   6.533  16.106  0.00  0.00    +0.000 C 
ATOM      5  C   UNL     1      49.735   7.305  15.248  0.00  0.00    +0.000 C 
ATOM      6  C   UNL     1      49.461   7.505  13.763  0.00  0.00    +0.000 C 
ENDROOT
BRANCH   1   7
ATOM      7  C   UNL     1      47.900   7.214  11.789  0.00  0.00    +0.000 C 
BRANCH   7  14
ATOM      8  C   UNL     1      44.414   4.144  10.844  0.00  0.00    +0.000 A 
ATOM      9  C   UNL     1      43.152   4.701  11.057  0.00  0.00    +0.000 A 
ATOM     10  C   UNL     1      43.013   6.055  11.389  0.00  0.00    +0.000 A 
ATOM     11  C   UNL     1      44.168   6.816  11.544  0.00  0.00    +0.000 A 
ATOM     12  N   UNL     1      44.328   8.126  11.904  0.00  0.00    +0.000 N 
ATOM     13  C   UNL     1      45.648   8.434  12.040  0.00  0.00    +0.000 A 
ATOM     14  C   UNL     1      46.400   7.321  11.693  0.00  0.00    +0.000 A 
ATOM     15  C   UNL     1      45.451   6.296  11.357  0.00  0.00    +0.000 A 
ATOM     16  C   UNL     1      45.561   4.943  10.960  0.00  0.00    +0.000 A 
ATOM     17  H   UNL     1      43.546   8.755  12.096  0.00  0.00    +0.000 HD
BRANCH   8  19
ATOM     18  C   UNL     1      44.870   2.487   9.184  0.00  0.00    +0.000 C 
ATOM     19  O   UNL     1      44.673   2.830  10.550  0.00  0.00    +0.000 OA
ENDBRANCH   8  19
ENDBRANCH   7  14
ENDBRANCH   1   7
BRANCH   4  20
ATOM     20  C   UNL     1      49.412   5.944  17.398  0.00  0.00    +0.000 C 
BRANCH  20  21
ATOM     21  N   UNL     1      50.265   6.976  17.994  0.00  0.00    +0.000 NA
ATOM     22  H   UNL     1      51.187   6.587  18.187  0.00  0.00    +0.000 HD
ATOM     23  H   UNL     1      49.885   7.279  18.888  0.00  0.00    +0.000 HD
ENDBRANCH  20  21
BRANCH  20  24
ATOM     24  C   UNL     1      50.222   4.655  17.101  0.00  0.00    +0.000 C 
BRANCH  24  25
ATOM     25  C   UNL     1      49.842   3.340  17.830  0.00  0.00    +0.000 C 
ATOM     26  C   UNL     1      48.381   2.913  17.673  0.00  0.00    +0.000 C 
ATOM     27  C   UNL     1      50.737   2.213  17.286  0.00  0.00    +0.000 C 
ENDBRANCH  24  25
ENDBRANCH  20  24
ENDBRANCH   4  20
TORSDOF 7
ENDMDL
