MODEL 1
REMARK VINA RESULT:    -7.812      0.000      0.000
REMARK INTER + INTRA:         -10.149
REMARK INTER:                  -9.867
REMARK INTRA:                  -0.282
REMARK UNBOUND:                -0.282
REMARK  Name = 
REMARK  5 active torsions:
REMARK  status: ('A' for Active; 'I' for Inactive)
REMARK    1  A    between atoms: N_1  and  C_2
REMARK    2  A    between atoms: C_2  and  C_3
REMARK    3  A    between atoms: C_3  and  C_4
REMARK    4  A    between atoms: C_8  and  C_9
REMARK    5  A    between atoms: C_9  and  N_10
REMARK                            x       y       z     vdW  Elec       q    Type
REMARK                         _______ _______ _______ _____ _____    ______ ____
ROOT
ATOM      1  C   UNL     1      45.490   4.847  12.792  0.00  0.00    +0.000 A 
ATOM      2  C   UNL     1      44.308   5.456  13.230  0.00  0.00    +0.000 A 
ATOM      3  C   UNL     1      43.090   5.151  12.623  0.00  0.00    +0.000 A 
ATOM      4  C   UNL     1      43.042   4.243  11.566  0.00  0.00    +0.000 A 
ATOM      5  C   UNL     1      44.213   3.624  11.108  0.00  0.00    +0.000 A 
ATOM      6  C   UNL     1      45.431   3.920  11.743  0.00  0.00    +0.000 A 
ENDROOT
BRANCH   1   7
ATOM      7  C   UNL     1      46.814   5.194  13.431  0.00  0.00    +0.000 C 
BRANCH   7   8
ATOM      8  C   UNL     1      46.983   4.551  14.811  0.00  0.00    +0.000 C 
BRANCH   8   9
ATOM      9  N   UNL     1      47.487   3.184  14.687  0.00  0.00    +0.000 NA
ATOM     10  H   UNL     1      47.412   2.884  13.714  0.00  0.00    +0.000 HD
ATOM     11  H   UNL     1      46.902   2.549  15.226  0.00  0.00    +0.000 HD
ENDBRANCH   8   9
ENDBRANCH   7   8
ENDBRANCH   1   7
BRANCH   5  12
ATOM     12  C   UNL     1      44.178   2.692   9.925  0.00  0.00    +0.000 C 
BRANCH  12  13
ATOM     13  N   UNL     1      45.102   3.115   8.884  0.00  0.00    +0.000 N 
ATOM     14  C   UNL     1      45.323   4.415   8.517  0.00  0.00    +0.000 A 
ATOM     15  N   UNL     1      46.290   4.516   7.633  0.00  0.00    +0.000 NA
ATOM     16  C   UNL     1      46.708   3.225   7.407  0.00  0.00    +0.000 A 
ATOM     17  C   UNL     1      47.716   2.736   6.571  0.00  0.00    +0.000 A 
ATOM     18  N   UNL     1      47.966   1.400   6.503  0.00  0.00    +0.000 NA
ATOM     19  C   UNL     1      47.215   0.560   7.251  0.00  0.00    +0.000 A 
ATOM     20  C   UNL     1      46.195   0.946   8.113  0.00  0.00    +0.000 A 
ATOM     21  C   UNL     1      45.969   2.321   8.172  0.00  0.00    +0.000 A 
ENDBRANCH  12  13
ENDBRANCH   5  12
TORSDOF 5
ENDMDL
MODEL 2
REMARK VINA RESULT:    -7.654      1.779      6.231
REMARK INTER + INTRA:          -9.950
REMARK INTER:                  -9.474
REMARK INTRA:                  -0.476
REMARK UNBOUND:                -0.282
REMARK  Name = 
REMARK  5 active torsions:
REMARK  status: ('A' for Active; 'I' for Inactive)
REMARK    1  A    between atoms: N_1  and  C_2
REMARK    2  A    between atoms: C_2  and  C_3
REMARK    3  A    between atoms: C_3  and  C_4
REMARK    4  A    between atoms: C_8  and  C_9
REMARK    5  A    between atoms: C_9  and  N_10
REMARK                            x       y       z     vdW  Elec       q    Type
REMARK                         _______ _______ _______ _____ _____    ______ ____
ROOT
ATOM      1  C   UNL     1      46.061   3.392   7.832  0.00  0.00    +0.000 A 
ATOM      2  C   UNL     1      45.637   2.075   8.051  0.00  0.00    +0.000 A 
ATOM      3  C   UNL     1      44.759   1.781   9.092  0.00  0.00    +0.000 A 
ATOM      4  C   UNL     1      44.303   2.795   9.933  0.00  0.00    +0.000 A 
ATOM      5  C   UNL     1      44.716   4.120   9.736  0.00  0.00    +0.000 A 
ATOM      6  C   UNL     1      45.582   4.409   8.668  0.00  0.00    +0.000 A 
ENDROOT
BRANCH   1   7
ATOM      7  C   UNL     1      47.032   3.711   6.720  0.00  0.00    +0.000 C 
BRANCH   7   8
ATOM      8  C   UNL     1      47.108   2.596   5.673  0.00  0.00    +0.000 C 
BRANCH   8   9
ATOM      9  N   UNL     1      48.426   1.961   5.688  0.00  0.00    +0.000 NA
ATOM     10  H   UNL     1      48.983   2.359   6.445  0.00  0.00    +0.000 HD
ATOM     11  H   UNL     1      48.923   2.175   4.826  0.00  0.00    +0.000 HD
ENDBRANCH   8   9
ENDBRANCH   7   8
ENDBRANCH   1   7
BRANCH   5  12
ATOM     12  C   UNL     1      44.280   5.210  10.680  0.00  0.00    +0.000 C 
BRANCH  12  13
ATOM     13  N   UNL     1      44.985   5.131  11.950  0.00  0.00    +0.000 N 
ATOM     14  C   UNL     1      44.607   4.345  13.005  0.00  0.00    +0.000 A 
ATOM     15  N   UNL     1      45.485   4.382  13.981  0.00  0.00    +0.000 NA
ATOM     16  C   UNL     1      46.471   5.238  13.547  0.00  0.00    +0.000 A 
ATOM     17  C   UNL     1      47.656   5.640  14.170  0.00  0.00    +0.000 A 
ATOM     18  N   UNL     1      48.501   6.507  13.548  0.00  0.00    +0.000 NA
ATOM     19  C   UNL     1      48.166   6.973  12.324  0.00  0.00    +0.000 A 
ATOM     20  C   UNL     1      47.017   6.632  11.621  0.00  0.00    +0.000 A 
ATOM     21  C   UNL     1      46.175   5.735  12.277  0.00  0.00    +0.000 A 
ENDBRANCH  12  13
ENDBRANCH   5  12
TORSDOF 5
ENDMDL
MODEL 3
REMARK VINA RESULT:    -7.586      1.871      5.978
REMARK INTER + INTRA:          -9.864
REMARK INTER:                  -9.339
REMARK INTRA:                  -0.525
REMARK UNBOUND:                -0.282
REMARK  Name = 
REMARK  5 active torsions:
REMARK  status: ('A' for Active; 'I' for Inactive)
REMARK    1  A    between atoms: N_1  and  C_2
REMARK    2  A    between atoms: C_2  and  C_3
REMARK    3  A    between atoms: C_3  and  C_4
REMARK    4  A    between atoms: C_8  and  C_9
REMARK    5  A    between atoms: C_9  and  N_10
REMARK                            x       y       z     vdW  Elec       q    Type
REMARK                         _______ _______ _______ _____ _____    ______ ____
ROOT
ATOM      1  C   UNL     1      46.026   3.343   7.904  0.00  0.00    +0.000 A 
ATOM      2  C   UNL     1      45.702   2.003   8.147  0.00  0.00    +0.000 A 
ATOM      3  C   UNL     1      44.800   1.666   9.155  0.00  0.00    +0.000 A 
ATOM      4  C   UNL     1      44.220   2.663   9.939  0.00  0.00    +0.000 A 
ATOM      5  C   UNL     1      44.531   4.011   9.716  0.00  0.00    +0.000 A 
ATOM      6  C   UNL     1      45.423   4.341   8.682  0.00  0.00    +0.000 A 
ENDROOT
BRANCH   1   7
ATOM      7  C   UNL     1      47.021   3.710   6.829  0.00  0.00    +0.000 C 
BRANCH   7   8
ATOM      8  C   UNL     1      47.109   2.650   5.727  0.00  0.00    +0.000 C 
BRANCH   8   9
ATOM      9  N   UNL     1      48.399   1.963   5.771  0.00  0.00    +0.000 NA
ATOM     10  H   UNL     1      48.997   2.413   6.465  0.00  0.00    +0.000 HD
ATOM     11  H   UNL     1      48.876   2.064   4.878  0.00  0.00    +0.000 HD
ENDBRANCH   8   9
ENDBRANCH   7   8
ENDBRANCH   1   7
BRANCH   5  12
ATOM     12  C   UNL     1      43.959   5.088  10.601  0.00  0.00    +0.000 C 
BRANCH  12  13
ATOM     13  N   UNL     1      45.000   5.771  11.353  0.00  0.00    +0.000 N 
ATOM     14  C   UNL     1      45.278   7.109  11.265  0.00  0.00    +0.000 A 
ATOM     15  N   UNL     1      46.188   7.478  12.137  0.00  0.00    +0.000 NA
ATOM     16  C   UNL     1      46.526   6.329  12.814  0.00  0.00    +0.000 A 
ATOM     17  C   UNL     1      47.433   6.131  13.859  0.00  0.00    +0.000 A 
ATOM     18  N   UNL     1      47.611   4.890  14.390  0.00  0.00    +0.000 NA
ATOM     19  C   UNL     1      46.899   3.859  13.882  0.00  0.00    +0.000 A 
ATOM     20  C   UNL     1      45.973   3.953  12.850  0.00  0.00    +0.000 A 
ATOM     21  C   UNL     1      45.803   5.236  12.333  0.00  0.00    +0.000 A 
ENDBRANCH  12  13
ENDBRANCH   5  12
TORSDOF 5
ENDMDL
MODEL 4
REMARK VINA RESULT:    -7.140      1.636      2.278
REMARK INTER + INTRA:          -9.300
REMARK INTER:                  -8.839
REMARK INTRA:                  -0.461
REMARK UNBOUND:                -0.282
REMARK  Name = 
REMARK  5 active torsions:
REMARK  status: ('A' for Active; 'I' for Inactive)
REMARK    1  A    between atoms: N_1  and  C_2
REMARK    2  A    between atoms: C_2  and  C_3
REMARK    3  A    between atoms: C_3  and  C_4
REMARK    4  A    between atoms: C_8  and  C_9
REMARK    5  A    between atoms: C_9  and  N_10
REMARK                            x       y       z     vdW  Elec       q    Type
REMARK                         _______ _______ _______ _____ _____    ______ ____
ROOT
ATOM      1  C   UNL     1      46.032   6.421  11.837  0.00  0.00    +0.000 A 
ATOM      2  C   UNL     1      45.209   6.056  12.909  0.00  0.00    +0.000 A 
ATOM      3  C   UNL     1      44.159   5.159  12.718  0.00  0.00    +0.000 A 
ATOM      4  C   UNL     1      43.912   4.626  11.453  0.00  0.00    +0.000 A 
ATOM      5  C   UNL     1      44.721   4.979  10.364  0.00  0.00    +0.000 A 
ATOM      6  C   UNL     1      45.791   5.865  10.573  0.00  0.00    +0.000 A 
ENDROOT
BRANCH   1   7
ATOM      7  C   UNL     1      47.155   7.411  12.033  0.00  0.00    +0.000 C 
BRANCH   7   8
ATOM      8  C   UNL     1      47.970   7.125  13.299  0.00  0.00    +0.000 C 
BRANCH   8   9
ATOM      9  N   UNL     1      49.213   6.429  12.967  0.00  0.00    +0.000 NA
ATOM     10  H   UNL     1      49.433   5.761  13.707  0.00  0.00    +0.000 HD
ATOM     11  H   UNL     1      49.986   7.093  12.945  0.00  0.00    +0.000 HD
ENDBRANCH   8   9
ENDBRANCH   7   8
ENDBRANCH   1   7
BRANCH   5  12
ATOM     12  C   UNL     1      44.421   4.458   8.983  0.00  0.00    +0.000 C 
BRANCH  12  13
ATOM     13  N   UNL     1      45.034   3.159   8.757  0.00  0.00    +0.000 N 
ATOM     14  C   UNL     1      44.558   1.974   9.251  0.00  0.00    +0.000 A 
ATOM     15  N   UNL     1      45.239   0.946   8.798  0.00  0.00    +0.000 NA
ATOM     16  C   UNL     1      46.207   1.486   7.984  0.00  0.00    +0.000 A 
ATOM     17  C   UNL     1      47.204   0.861   7.230  0.00  0.00    +0.000 A 
ATOM     18  N   UNL     1      48.068   1.600   6.481  0.00  0.00    +0.000 NA
ATOM     19  C   UNL     1      47.945   2.947   6.490  0.00  0.00    +0.000 A 
ATOM     20  C   UNL     1      46.988   3.661   7.201  0.00  0.00    +0.000 A 
ATOM     21  C   UNL     1      46.110   2.878   7.949  0.00  0.00    +0.000 A 
ENDBRANCH  12  13
ENDBRANCH   5  12
TORSDOF 5
ENDMDL
MODEL 5
REMARK VINA RESULT:    -6.630      2.064      6.498
REMARK INTER + INTRA:          -8.657
REMARK INTER:                  -8.158
REMARK INTRA:                  -0.499
REMARK UNBOUND:                -0.282
REMARK  Name = 
REMARK  5 active torsions:
REMARK  status: ('A' for Active; 'I' for Inactive)
REMARK    1  A    between atoms: N_1  and  C_2
REMARK    2  A    between atoms: C_2  and  C_3
REMARK    3  A    between atoms: C_3  and  C_4
REMARK    4  A    between atoms: C_8  and  C_9
REMARK    5  A    between atoms: C_9  and  N_10
REMARK                            x       y       z     vdW  Elec       q    Type
REMARK                         _______ _______ _______ _____ _____    ______ ____
ROOT
ATOM      1  C   UNL     1      45.506   2.541   8.820  0.00  0.00    +0.000 A 
ATOM      2  C   UNL     1      45.920   3.532   7.921  0.00  0.00    +0.000 A 
ATOM      3  C   UNL     1      45.935   4.871   8.306  0.00  0.00    +0.000 A 
ATOM      4  C   UNL     1      45.526   5.238   9.588  0.00  0.00    +0.000 A 
ATOM      5  C   UNL     1      45.104   4.264  10.503  0.00  0.00    +0.000 A 
ATOM      6  C   UNL     1      45.116   2.915  10.113  0.00  0.00    +0.000 A 
ENDROOT
BRANCH   1   7
ATOM      7  C   UNL     1      45.464   1.091   8.399  0.00  0.00    +0.000 C 
BRANCH   7   8
ATOM      8  C   UNL     1      46.750   0.652   7.692  0.00  0.00    +0.000 C 
BRANCH   8   9
ATOM      9  N   UNL     1      46.821  -0.807   7.606  0.00  0.00    +0.000 NA
ATOM     10  H   UNL     1      46.731  -1.204   8.542  0.00  0.00    +0.000 HD
ATOM     11  H   UNL     1      47.737  -1.089   7.265  0.00  0.00    +0.000 HD
ENDBRANCH   8   9
ENDBRANCH   7   8
ENDBRANCH   1   7
BRANCH   5  12
ATOM     12  C   UNL     1      44.599   4.659  11.867  0.00  0.00    +0.000 C 
BRANCH  12  13
ATOM     13  N   UNL     1      45.693   4.881  12.799  0.00  0.00    +0.000 N 
ATOM     14  C   UNL     1      46.399   3.888  13.425  0.00  0.00    +0.000 A 
ATOM     15  N   UNL     1      47.404   4.368  14.122  0.00  0.00    +0.000 NA
ATOM     16  C   UNL     1      47.342   5.732  13.952  0.00  0.00    +0.000 A 
ATOM     17  C   UNL     1      48.168   6.743  14.452  0.00  0.00    +0.000 A 
ATOM     18  N   UNL     1      47.921   8.046  14.150  0.00  0.00    +0.000 NA
ATOM     19  C   UNL     1      46.860   8.341  13.366  0.00  0.00    +0.000 A 
ATOM     20  C   UNL     1      45.984   7.412  12.817  0.00  0.00    +0.000 A 
ATOM     21  C   UNL     1      46.267   6.084  13.134  0.00  0.00    +0.000 A 
ENDBRANCH  12  13
ENDBRANCH   5  12
TORSDOF 5
ENDMDL
MODEL 6
REMARK VINA RESULT:    -6.380      1.820      2.145
REMARK INTER + INTRA:          -8.341
REMARK INTER:                  -8.085
REMARK INTRA:                  -0.256
REMARK UNBOUND:                -0.282
REMARK  Name = 
REMARK  5 active torsions:
REMARK  status: ('A' for Active; 'I' for Inactive)
REMARK    1  A    between atoms: N_1  and  C_2
REMARK    2  A    between atoms: C_2  and  C_3
REMARK    3  A    between atoms: C_3  and  C_4
REMARK    4  A    between atoms: C_8  and  C_9
REMARK    5  A    between atoms: C_9  and  N_10
REMARK                            x       y       z     vdW  Elec       q    Type
REMARK                         _______ _______ _______ _____ _____    ______ ____
ROOT
ATOM      1  C   UNL     1      45.908   6.000  12.517  0.00  0.00    +0.000 A 
ATOM      2  C   UNL     1      46.170   5.097  13.554  0.00  0.00    +0.000 A 
ATOM      3  C   UNL     1      45.896   3.740  13.393  0.00  0.00    +0.000 A 
ATOM      4  C   UNL     1      45.348   3.272  12.199  0.00  0.00    +0.000 A 
ATOM      5  C   UNL     1      45.075   4.158  11.148  0.00  0.00    +0.000 A 
ATOM      6  C   UNL     1      45.378   5.520  11.312  0.00  0.00    +0.000 A 
ENDROOT
BRANCH   1   7
ATOM      7  C   UNL     1      46.181   7.475  12.697  0.00  0.00    +0.000 C 
BRANCH   7   8
ATOM      8  C   UNL     1      47.596   7.749  13.216  0.00  0.00    +0.000 C 
BRANCH   8   9
ATOM      9  N   UNL     1      48.155   8.945  12.586  0.00  0.00    +0.000 NA
ATOM     10  H   UNL     1      49.175   8.899  12.621  0.00  0.00    +0.000 HD
ATOM     11  H   UNL     1      47.890   9.771  13.118  0.00  0.00    +0.000 HD
ENDBRANCH   8   9
ENDBRANCH   7   8
ENDBRANCH   1   7
BRANCH   5  12
ATOM     12  C   UNL     1      44.423   3.670   9.880  0.00  0.00    +0.000 C 
BRANCH  12  13
ATOM     13  N   UNL     1      45.363   3.644   8.771  0.00  0.00    +0.000 N 
ATOM     14  C   UNL     1      45.869   4.754   8.150  0.00  0.00    +0.000 A 
ATOM     15  N   UNL     1      46.783   4.443   7.259  0.00  0.00    +0.000 NA
ATOM     16  C   UNL     1      46.866   3.070   7.293  0.00  0.00    +0.000 A 
ATOM     17  C   UNL     1      47.680   2.196   6.566  0.00  0.00    +0.000 A 
ATOM     18  N   UNL     1      47.598   0.853   6.764  0.00  0.00    +0.000 NA
ATOM     19  C   UNL     1      46.709   0.383   7.670  0.00  0.00    +0.000 A 
ATOM     20  C   UNL     1      45.861   1.167   8.442  0.00  0.00    +0.000 A 
ATOM     21  C   UNL     1      45.974   2.540   8.227  0.00  0.00    +0.000 A 
ENDBRANCH  12  13
ENDBRANCH   5  12
TORSDOF 5
ENDMDL
MODEL 7
REMARK VINA RESULT:    -6.305      2.301      6.186
REMARK INTER + INTRA:          -8.245
REMARK INTER:                  -7.671
REMARK INTRA:                  -0.574
REMARK UNBOUND:                -0.282
REMARK  Name = 
REMARK  5 active torsions:
REMARK  status: ('A' for Active; 'I' for Inactive)
REMARK    1  A    between atoms: N_1  and  C_2
REMARK    2  A    between atoms: C_2  and  C_3
REMARK    3  A    between atoms: C_3  and  C_4
REMARK    4  A    between atoms: C_8  and  C_9
REMARK    5  A    between atoms: C_9  and  N_10
REMARK                            x       y       z     vdW  Elec       q    Type
REMARK                         _______ _______ _______ _____ _____    ______ ____
ROOT
ATOM      1  C   UNL     1      45.004   3.937   9.374  0.00  0.00    +0.000 A 
ATOM      2  C   UNL     1      44.357   2.725   9.647  0.00  0.00    +0.000 A 
ATOM      3  C   UNL     1      43.749   2.513  10.884  0.00  0.00    +0.000 A 
ATOM      4  C   UNL     1      43.790   3.504  11.864  0.00  0.00    +0.000 A 
ATOM      5  C   UNL     1      44.434   4.723  11.615  0.00  0.00    +0.000 A 
ATOM      6  C   UNL     1      45.023   4.936  10.357  0.00  0.00    +0.000 A 
ENDROOT
BRANCH   1   7
ATOM      7  C   UNL     1      45.685   4.161   8.045  0.00  0.00    +0.000 C 
BRANCH   7   8
ATOM      8  C   UNL     1      46.374   2.897   7.521  0.00  0.00    +0.000 C 
BRANCH   8   9
ATOM      9  N   UNL     1      47.652   3.227   6.891  0.00  0.00    +0.000 NA
ATOM     10  H   UNL     1      47.998   4.109   7.272  0.00  0.00    +0.000 HD
ATOM     11  H   UNL     1      47.516   3.382   5.895  0.00  0.00    +0.000 HD
ENDBRANCH   8   9
ENDBRANCH   7   8
ENDBRANCH   1   7
BRANCH   5  12
ATOM     12  C   UNL     1      44.539   5.772  12.692  0.00  0.00    +0.000 C 
BRANCH  12  13
ATOM     13  N   UNL     1      45.889   5.858  13.224  0.00  0.00    +0.000 N 
ATOM     14  C   UNL     1      46.468   4.924  14.041  0.00  0.00    +0.000 A 
ATOM     15  N   UNL     1      47.731   5.197  14.278  0.00  0.00    +0.000 NA
ATOM     16  C   UNL     1      47.981   6.366  13.597  0.00  0.00    +0.000 A 
ATOM     17  C   UNL     1      49.159   7.110  13.483  0.00  0.00    +0.000 A 
ATOM     18  N   UNL     1      49.183   8.253  12.744  0.00  0.00    +0.000 NA
ATOM     19  C   UNL     1      48.046   8.654  12.132  0.00  0.00    +0.000 A 
ATOM     20  C   UNL     1      46.829   7.984  12.181  0.00  0.00    +0.000 A 
ATOM     21  C   UNL     1      46.836   6.812  12.935  0.00  0.00    +0.000 A 
ENDBRANCH  12  13
ENDBRANCH   5  12
TORSDOF 5
ENDMDL
MODEL 8
REMARK VINA RESULT:    -5.824      2.606      4.684
REMARK INTER + INTRA:          -7.638
REMARK INTER:                  -7.078
REMARK INTRA:                  -0.561
REMARK UNBOUND:                -0.282
REMARK  Name = 
REMARK  5 active torsions:
REMARK  status: ('A' for Active; 'I' for Inactive)
REMARK    1  A    between atoms: N_1  and  C_2
REMARK    2  A    between atoms: C_2  and  C_3
REMARK    3  A    between atoms: C_3  and  C_4
REMARK    4  A    between atoms: C_8  and  C_9
REMARK    5  A    between atoms: C_9  and  N_10
REMARK                            x       y       z     vdW  Elec       q    Type
REMARK                         _______ _______ _______ _____ _____    ______ ____
ROOT
ATOM      1  C   UNL     1      49.094   7.212  13.997  0.00  0.00    +0.000 A 
ATOM      2  C   UNL     1      49.805   7.596  12.853  0.00  0.00    +0.000 A 
ATOM      3  C   UNL     1      49.148   7.752  11.634  0.00  0.00    +0.000 A 
ATOM      4  C   UNL     1      47.777   7.515  11.540  0.00  0.00    +0.000 A 
ATOM      5  C   UNL     1      47.045   7.126  12.671  0.00  0.00    +0.000 A 
ATOM      6  C   UNL     1      47.713   6.996  13.900  0.00  0.00    +0.000 A 
ENDROOT
BRANCH   1   7
ATOM      7  C   UNL     1      49.806   7.018  15.315  0.00  0.00    +0.000 C 
BRANCH   7   8
ATOM      8  C   UNL     1      48.930   6.309  16.353  0.00  0.00    +0.000 C 
BRANCH   8   9
ATOM      9  N   UNL     1      49.462   4.981  16.657  0.00  0.00    +0.000 NA
ATOM     10  H   UNL     1      48.919   4.277  16.155  0.00  0.00    +0.000 HD
ATOM     11  H   UNL     1      49.341   4.779  17.648  0.00  0.00    +0.000 HD
ENDBRANCH   8   9
ENDBRANCH   7   8
ENDBRANCH   1   7
BRANCH   5  12
ATOM     12  C   UNL     1      45.577   6.806  12.563  0.00  0.00    +0.000 C 
BRANCH  12  13
ATOM     13  N   UNL     1      45.358   5.403  12.247  0.00  0.00    +0.000 N 
ATOM     14  C   UNL     1      45.063   4.432  13.166  0.00  0.00    +0.000 A 
ATOM     15  N   UNL     1      44.803   3.279  12.592  0.00  0.00    +0.000 NA
ATOM     16  C   UNL     1      44.948   3.506  11.243  0.00  0.00    +0.000 A 
ATOM     17  C   UNL     1      44.782   2.640  10.159  0.00  0.00    +0.000 A 
ATOM     18  N   UNL     1      44.976   3.084   8.887  0.00  0.00    +0.000 NA
ATOM     19  C   UNL     1      45.340   4.373   8.698  0.00  0.00    +0.000 A 
ATOM     20  C   UNL     1      45.527   5.311   9.706  0.00  0.00    +0.000 A 
ATOM     21  C   UNL     1      45.309   4.832  10.998  0.00  0.00    +0.000 A 
ENDBRANCH  12  13
ENDBRANCH   5  12
TORSDOF 5
ENDMDL
MODEL 9
REMARK VINA RESULT:    -5.692      3.783      5.523
REMARK INTER + INTRA:          -7.472
REMARK INTER:                  -6.939
REMARK INTRA:                  -0.533
REMARK UNBOUND:                -0.282
REMARK  Name = 
REMARK  5 active torsions:
REMARK  status: ('A' for Active; 'I' for Inactive)
REMARK    1  A    between atoms: N_1  and  C_2
REMARK    2  A    between atoms: C_2  and  C_3
REMARK    3  A    between atoms: C_3  and  C_4
REMARK    4  A    between atoms: C_8  and  C_9
REMARK    5  A    between atoms: C_9  and  N_10
REMARK                            x       y       z     vdW  Elec       q    Type
REMARK                         _______ _______ _______ _____ _____    ______ ____
ROOT
ATOM      1  C   UNL     1      47.688   4.762  16.500  0.00  0.00    +0.000 A 
ATOM      2  C   UNL     1      48.411   5.828  17.048  0.00  0.00    +0.000 A 
ATOM      3  C   UNL     1      48.842   6.878  16.239  0.00  0.00    +0.000 A 
ATOM      4  C   UNL     1      48.565   6.869  14.872  0.00  0.00    +0.000 A 
ATOM      5  C   UNL     1      47.846   5.810  14.301  0.00  0.00    +0.000 A 
ATOM      6  C   UNL     1      47.395   4.770  15.130  0.00  0.00    +0.000 A 
ENDROOT
BRANCH   1   7
ATOM      7  C   UNL     1      47.241   3.610  17.370  0.00  0.00    +0.000 C 
BRANCH   7   8
ATOM      8  C   UNL     1      48.409   2.947  18.106  0.00  0.00    +0.000 C 
BRANCH   8   9
ATOM      9  N   UNL     1      48.318   3.189  19.546  0.00  0.00    +0.000 NA
ATOM     10  H   UNL     1      48.083   4.169  19.708  0.00  0.00    +0.000 HD
ATOM     11  H   UNL     1      49.226   3.039  19.980  0.00  0.00    +0.000 HD
ENDBRANCH   8   9
ENDBRANCH   7   8
ENDBRANCH   1   7
BRANCH   5  12
ATOM     12  C   UNL     1      47.600   5.762  12.815  0.00  0.00    +0.000 C 
BRANCH  12  13
ATOM     13  N   UNL     1      46.199   5.991  12.498  0.00  0.00    +0.000 N 
ATOM     14  C   UNL     1      45.624   7.225  12.351  0.00  0.00    +0.000 A 
ATOM     15  N   UNL     1      44.375   7.138  11.953  0.00  0.00    +0.000 NA
ATOM     16  C   UNL     1      44.123   5.790  11.848  0.00  0.00    +0.000 A 
ATOM     17  C   UNL     1      42.963   5.116  11.453  0.00  0.00    +0.000 A 
ATOM     18  N   UNL     1      42.935   3.756  11.418  0.00  0.00    +0.000 NA
ATOM     19  C   UNL     1      44.047   3.075  11.779  0.00  0.00    +0.000 A 
ATOM     20  C   UNL     1      45.246   3.650  12.181  0.00  0.00    +0.000 A 
ATOM     21  C   UNL     1      45.250   5.044  12.197  0.00  0.00    +0.000 A 
ENDBRANCH  12  13
ENDBRANCH   5  12
TORSDOF 5
ENDMDL
