MODEL 1
REMARK VINA RESULT:    -8.869      0.000      0.000
REMARK INTER + INTRA:         -13.010
REMARK INTER:                 -11.979
REMARK INTRA:                  -1.030
REMARK UNBOUND:                -1.030
REMARK  Name = 
REMARK  6 active torsions:
REMARK  status: ('A' for Active; 'I' for Inactive)
REMARK    1  A    between atoms: C_2  and  C_4
REMARK    2  A    between atoms: C_7  and  N_8
REMARK    3  A    between atoms: N_8  and  C_9
REMARK    4  A    between atoms: C_9  and  C_10
REMARK    5  A    between atoms: C_10  and  C_13
REMARK    6  A    between atoms: C_17  and  N_18
REMARK                            x       y       z     vdW  Elec       q    Type
REMARK                         _______ _______ _______ _____ _____    ______ ____
ROOT
ATOM      1  C   UNL     1      43.554   5.322  12.239  0.00  0.00    +0.000 C 
ATOM      2  F   UNL     1      42.920   6.317  11.551  0.00  0.00    +0.000 F 
ATOM      3  F   UNL     1      42.867   5.202  13.417  0.00  0.00    +0.000 F 
ENDROOT
BRANCH   1   4
ATOM      4  C   UNL     1      45.024   5.622  12.456  0.00  0.00    +0.000 A 
ATOM      5  C   UNL     1      45.731   6.425  11.558  0.00  0.00    +0.000 A 
ATOM      6  C   UNL     1      47.054   6.760  11.822  0.00  0.00    +0.000 A 
ATOM      7  C   UNL     1      47.672   6.305  12.991  0.00  0.00    +0.000 A 
ATOM      8  C   UNL     1      46.998   5.505  13.923  0.00  0.00    +0.000 A 
ATOM      9  C   UNL     1      45.674   5.158  13.616  0.00  0.00    +0.000 A 
BRANCH   8  10
ATOM     10  N   UNL     1      47.586   5.151  15.117  0.00  0.00    +0.000 N 
ATOM     11  C   UNL     1      47.460   3.806  15.694  0.00  0.00    +0.000 C 
ATOM     12  C   UNL     1      47.230   3.940  17.210  0.00  0.00    +0.000 C 
ATOM     13  O   UNL     1      48.275   4.698  17.843  0.00  0.00    +0.000 OA
ATOM     14  C   UNL     1      48.349   6.020  17.276  0.00  0.00    +0.000 C 
ATOM     15  C   UNL     1      48.621   5.973  15.764  0.00  0.00    +0.000 C 
ENDBRANCH   8  10
ENDBRANCH   1   4
BRANCH   1  16
ATOM     16  C   UNL     1      43.408   3.990  11.457  0.00  0.00    +0.000 C 
BRANCH  16  17
ATOM     17  N   UNL     1      43.467   4.150   9.994  0.00  0.00    +0.000 N 
ATOM     18  H   UNL     1      42.569   4.034   9.523  0.00  0.00    +0.000 HD
BRANCH  17  22
ATOM     19  C   UNL     1      46.597   2.527   7.676  0.00  0.00    +0.000 A 
ATOM     20  C   UNL     1      46.362   3.902   7.646  0.00  0.00    +0.000 A 
ATOM     21  C   UNL     1      45.337   4.456   8.421  0.00  0.00    +0.000 A 
ATOM     22  C   UNL     1      44.549   3.662   9.264  0.00  0.00    +0.000 A 
ATOM     23  C   UNL     1      44.782   2.280   9.260  0.00  0.00    +0.000 A 
ATOM     24  C   UNL     1      45.791   1.712   8.471  0.00  0.00    +0.000 A 
BRANCH  19  26
ATOM     25  N   UNL     1      48.672   2.714   6.419  0.00  0.00    +0.000 N 
ATOM     26  C   UNL     1      47.664   1.901   6.853  0.00  0.00    +0.000 C 
ATOM     27  O   UNL     1      47.668   0.701   6.604  0.00  0.00    +0.000 OA
ATOM     28  H   UNL     1      49.449   2.255   5.963  0.00  0.00    +0.000 HD
ATOM     29  H   UNL     1      48.836   3.628   6.818  0.00  0.00    +0.000 HD
ENDBRANCH  19  26
ENDBRANCH  17  22
ENDBRANCH  16  17
ENDBRANCH   1  16
TORSDOF 6
ENDMDL
MODEL 2
REMARK VINA RESULT:    -8.801      0.814      1.309
REMARK INTER + INTRA:         -12.919
REMARK INTER:                 -11.854
REMARK INTRA:                  -1.065
REMARK UNBOUND:                -1.030
REMARK  Name = 
REMARK  6 active torsions:
REMARK  status: ('A' for Active; 'I' for Inactive)
REMARK    1  A    between atoms: C_2  and  C_4
REMARK    2  A    between atoms: C_7  and  N_8
REMARK    3  A    between atoms: N_8  and  C_9
REMARK    4  A    between atoms: C_9  and  C_10
REMARK    5  A    between atoms: C_10  and  C_13
REMARK    6  A    between atoms: C_17  and  N_18
REMARK                            x       y       z     vdW  Elec       q    Type
REMARK                         _______ _______ _______ _____ _____    ______ ____
ROOT
ATOM      1  C   UNL     1      44.029   4.805  12.408  0.00  0.00    +0.000 C 
ATOM      2  F   UNL     1      43.104   5.296  13.284  0.00  0.00    +0.000 F 
ATOM      3  F   UNL     1      43.894   3.444  12.465  0.00  0.00    +0.000 F 
ENDROOT
BRANCH   1   4
ATOM      4  C   UNL     1      45.435   5.260  12.742  0.00  0.00    +0.000 A 
ATOM      5  C   UNL     1      46.122   6.140  11.901  0.00  0.00    +0.000 A 
ATOM      6  C   UNL     1      47.376   6.615  12.271  0.00  0.00    +0.000 A 
ATOM      7  C   UNL     1      47.942   6.224  13.488  0.00  0.00    +0.000 A 
ATOM      8  C   UNL     1      47.285   5.351  14.366  0.00  0.00    +0.000 A 
ATOM      9  C   UNL     1      46.035   4.865  13.953  0.00  0.00    +0.000 A 
BRANCH   8  10
ATOM     10  N   UNL     1      47.810   5.057  15.604  0.00  0.00    +0.000 N 
ATOM     11  C   UNL     1      48.709   5.970  16.322  0.00  0.00    +0.000 C 
ATOM     12  C   UNL     1      49.843   5.147  16.958  0.00  0.00    +0.000 C 
ATOM     13  O   UNL     1      49.334   4.112  17.817  0.00  0.00    +0.000 OA
ATOM     14  C   UNL     1      48.485   3.217  17.075  0.00  0.00    +0.000 C 
ATOM     15  C   UNL     1      47.298   3.959  16.441  0.00  0.00    +0.000 C 
ENDBRANCH   8  10
ENDBRANCH   1   4
BRANCH   1  16
ATOM     16  C   UNL     1      43.665   5.266  10.971  0.00  0.00    +0.000 C 
BRANCH  16  17
ATOM     17  N   UNL     1      43.470   4.154  10.023  0.00  0.00    +0.000 N 
ATOM     18  H   UNL     1      42.827   3.433  10.351  0.00  0.00    +0.000 HD
BRANCH  17  22
ATOM     19  C   UNL     1      46.546   2.509   7.650  0.00  0.00    +0.000 A 
ATOM     20  C   UNL     1      46.322   3.886   7.624  0.00  0.00    +0.000 A 
ATOM     21  C   UNL     1      45.315   4.447   8.418  0.00  0.00    +0.000 A 
ATOM     22  C   UNL     1      44.535   3.659   9.274  0.00  0.00    +0.000 A 
ATOM     23  C   UNL     1      44.757   2.274   9.265  0.00  0.00    +0.000 A 
ATOM     24  C   UNL     1      45.748   1.700   8.458  0.00  0.00    +0.000 A 
BRANCH  19  26
ATOM     25  N   UNL     1      48.636   2.665   6.413  0.00  0.00    +0.000 N 
ATOM     26  C   UNL     1      47.593   1.875   6.808  0.00  0.00    +0.000 C 
ATOM     27  O   UNL     1      47.552   0.687   6.509  0.00  0.00    +0.000 OA
ATOM     28  H   UNL     1      49.397   2.194   5.943  0.00  0.00    +0.000 HD
ATOM     29  H   UNL     1      48.833   3.554   6.851  0.00  0.00    +0.000 HD
ENDBRANCH  19  26
ENDBRANCH  17  22
ENDBRANCH  16  17
ENDBRANCH   1  16
TORSDOF 6
ENDMDL
MODEL 3
REMARK VINA RESULT:    -8.475      2.565      3.688
REMARK INTER + INTRA:         -12.478
REMARK INTER:                 -11.742
REMARK INTRA:                  -0.736
REMARK UNBOUND:                -1.030
REMARK  Name = 
REMARK  6 active torsions:
REMARK  status: ('A' for Active; 'I' for Inactive)
REMARK    1  A    between atoms: C_2  and  C_4
REMARK    2  A    between atoms: C_7  and  N_8
REMARK    3  A    between atoms: N_8  and  C_9
REMARK    4  A    between atoms: C_9  and  C_10
REMARK    5  A    between atoms: C_10  and  C_13
REMARK    6  A    between atoms: C_17  and  N_18
REMARK                            x       y       z     vdW  Elec       q    Type
REMARK                         _______ _______ _______ _____ _____    ______ ____
ROOT
ATOM      1  C   UNL     1      43.489   4.318  12.568  0.00  0.00    +0.000 C 
ATOM      2  F   UNL     1      42.485   4.774  13.374  0.00  0.00    +0.000 F 
ATOM      3  F   UNL     1      43.560   2.972  12.807  0.00  0.00    +0.000 F 
ENDROOT
BRANCH   1   4
ATOM      4  C   UNL     1      44.804   5.023  12.835  0.00  0.00    +0.000 A 
ATOM      5  C   UNL     1      45.974   4.293  13.058  0.00  0.00    +0.000 A 
ATOM      6  C   UNL     1      47.186   4.958  13.213  0.00  0.00    +0.000 A 
ATOM      7  C   UNL     1      47.235   6.353  13.133  0.00  0.00    +0.000 A 
ATOM      8  C   UNL     1      46.087   7.123  12.902  0.00  0.00    +0.000 A 
ATOM      9  C   UNL     1      44.875   6.428  12.780  0.00  0.00    +0.000 A 
BRANCH   8  10
ATOM     10  N   UNL     1      46.167   8.486  12.724  0.00  0.00    +0.000 N 
ATOM     11  C   UNL     1      44.980   9.336  12.560  0.00  0.00    +0.000 C 
ATOM     12  C   UNL     1      45.261  10.368  11.454  0.00  0.00    +0.000 C 
ATOM     13  O   UNL     1      46.439  11.143  11.733  0.00  0.00    +0.000 OA
ATOM     14  C   UNL     1      47.588  10.283  11.854  0.00  0.00    +0.000 C 
ATOM     15  C   UNL     1      47.403   9.246  12.974  0.00  0.00    +0.000 C 
ENDBRANCH   8  10
ENDBRANCH   1   4
BRANCH   1  16
ATOM     16  C   UNL     1      43.085   4.524  11.084  0.00  0.00    +0.000 C 
BRANCH  16  17
ATOM     17  N   UNL     1      44.180   5.025  10.234  0.00  0.00    +0.000 N 
ATOM     18  H   UNL     1      44.006   5.942   9.824  0.00  0.00    +0.000 HD
BRANCH  17  22
ATOM     19  C   UNL     1      46.518   2.522   7.770  0.00  0.00    +0.000 A 
ATOM     20  C   UNL     1      45.685   1.952   8.733  0.00  0.00    +0.000 A 
ATOM     21  C   UNL     1      44.892   2.769   9.547  0.00  0.00    +0.000 A 
ATOM     22  C   UNL     1      44.888   4.163   9.399  0.00  0.00    +0.000 A 
ATOM     23  C   UNL     1      45.752   4.718   8.445  0.00  0.00    +0.000 A 
ATOM     24  C   UNL     1      46.566   3.910   7.640  0.00  0.00    +0.000 A 
BRANCH  19  26
ATOM     25  N   UNL     1      48.518   2.274   6.407  0.00  0.00    +0.000 N 
ATOM     26  C   UNL     1      47.387   1.687   6.900  0.00  0.00    +0.000 C 
ATOM     27  O   UNL     1      47.129   0.513   6.663  0.00  0.00    +0.000 OA
ATOM     28  H   UNL     1      49.158   1.663   5.917  0.00  0.00    +0.000 HD
ATOM     29  H   UNL     1      48.890   3.133   6.788  0.00  0.00    +0.000 HD
ENDBRANCH  19  26
ENDBRANCH  17  22
ENDBRANCH  16  17
ENDBRANCH   1  16
TORSDOF 6
ENDMDL
MODEL 4
REMARK VINA RESULT:    -8.291      2.127      3.145
REMARK INTER + INTRA:         -12.229
REMARK INTER:                 -11.327
REMARK INTRA:                  -0.902
REMARK UNBOUND:                -1.030
REMARK  Name = 
REMARK  6 active torsions:
REMARK  status: ('A' for Active; 'I' for Inactive)
REMARK    1  A    between atoms: C_2  and  C_4
REMARK    2  A    between atoms: C_7  and  N_8
REMARK    3  A    between atoms: N_8  and  C_9
REMARK    4  A    between atoms: C_9  and  C_10
REMARK    5  A    between atoms: C_10  and  C_13
REMARK    6  A    between atoms: C_17  and  N_18
REMARK                            x       y       z     vdW  Elec       q    Type
REMARK                         _______ _______ _______ _____ _____    ______ ____
ROOT
ATOM      1  C   UNL     1      43.639   5.608  12.199  0.00  0.00    +0.000 C 
ATOM      2  F   UNL     1      43.357   6.712  11.447  0.00  0.00    +0.000 F 
ATOM      3  F   UNL     1      42.682   5.584  13.178  0.00  0.00    +0.000 F 
ENDROOT
BRANCH   1   4
ATOM      4  C   UNL     1      45.044   5.644  12.766  0.00  0.00    +0.000 A 
ATOM      5  C   UNL     1      45.598   4.517  13.378  0.00  0.00    +0.000 A 
ATOM      6  C   UNL     1      46.919   4.543  13.812  0.00  0.00    +0.000 A 
ATOM      7  C   UNL     1      47.696   5.690  13.624  0.00  0.00    +0.000 A 
ATOM      8  C   UNL     1      47.184   6.839  13.005  0.00  0.00    +0.000 A 
ATOM      9  C   UNL     1      45.840   6.794  12.606  0.00  0.00    +0.000 A 
BRANCH   8  10
ATOM     10  N   UNL     1      47.990   7.922  12.735  0.00  0.00    +0.000 N 
ATOM     11  C   UNL     1      48.832   8.004  11.534  0.00  0.00    +0.000 C 
ATOM     12  C   UNL     1      50.201   8.585  11.930  0.00  0.00    +0.000 C 
ATOM     13  O   UNL     1      50.071   9.860  12.581  0.00  0.00    +0.000 OA
ATOM     14  C   UNL     1      49.269   9.737  13.771  0.00  0.00    +0.000 C 
ATOM     15  C   UNL     1      47.864   9.201  13.453  0.00  0.00    +0.000 C 
ENDBRANCH   8  10
ENDBRANCH   1   4
BRANCH   1  16
ATOM     16  C   UNL     1      43.467   4.338  11.325  0.00  0.00    +0.000 C 
BRANCH  16  17
ATOM     17  N   UNL     1      43.638   4.582   9.882  0.00  0.00    +0.000 N 
ATOM     18  H   UNL     1      42.769   4.779   9.385  0.00  0.00    +0.000 HD
BRANCH  17  22
ATOM     19  C   UNL     1      46.585   2.476   7.718  0.00  0.00    +0.000 A 
ATOM     20  C   UNL     1      45.695   1.772   8.530  0.00  0.00    +0.000 A 
ATOM     21  C   UNL     1      44.702   2.456   9.241  0.00  0.00    +0.000 A 
ATOM     22  C   UNL     1      44.555   3.845   9.136  0.00  0.00    +0.000 A 
ATOM     23  C   UNL     1      45.476   4.538   8.337  0.00  0.00    +0.000 A 
ATOM     24  C   UNL     1      46.486   3.865   7.638  0.00  0.00    +0.000 A 
BRANCH  19  26
ATOM     25  N   UNL     1      48.509   2.571   6.233  0.00  0.00    +0.000 N 
ATOM     26  C   UNL     1      47.663   1.786   6.963  0.00  0.00    +0.000 C 
ATOM     27  O   UNL     1      47.816   0.572   7.018  0.00  0.00    +0.000 OA
ATOM     28  H   UNL     1      49.306   2.103   5.822  0.00  0.00    +0.000 HD
ATOM     29  H   UNL     1      48.575   3.569   6.374  0.00  0.00    +0.000 HD
ENDBRANCH  19  26
ENDBRANCH  17  22
ENDBRANCH  16  17
ENDBRANCH   1  16
TORSDOF 6
ENDMDL
MODEL 5
REMARK VINA RESULT:    -7.884      1.855      2.432
REMARK INTER + INTRA:         -11.680
REMARK INTER:                 -10.827
REMARK INTRA:                  -0.852
REMARK UNBOUND:                -1.030
REMARK  Name = 
REMARK  6 active torsions:
REMARK  status: ('A' for Active; 'I' for Inactive)
REMARK    1  A    between atoms: C_2  and  C_4
REMARK    2  A    between atoms: C_7  and  N_8
REMARK    3  A    between atoms: N_8  and  C_9
REMARK    4  A    between atoms: C_9  and  C_10
REMARK    5  A    between atoms: C_10  and  C_13
REMARK    6  A    between atoms: C_17  and  N_18
REMARK                            x       y       z     vdW  Elec       q    Type
REMARK                         _______ _______ _______ _____ _____    ______ ____
ROOT
ATOM      1  C   UNL     1      44.647   5.076  12.261  0.00  0.00    +0.000 C 
ATOM      2  F   UNL     1      43.823   4.857  13.327  0.00  0.00    +0.000 F 
ATOM      3  F   UNL     1      45.544   4.042  12.279  0.00  0.00    +0.000 F 
ENDROOT
BRANCH   1   4
ATOM      4  C   UNL     1      45.326   6.430  12.328  0.00  0.00    +0.000 A 
ATOM      5  C   UNL     1      44.780   7.537  11.673  0.00  0.00    +0.000 A 
ATOM      6  C   UNL     1      45.369   8.788  11.821  0.00  0.00    +0.000 A 
ATOM      7  C   UNL     1      46.496   8.941  12.633  0.00  0.00    +0.000 A 
ATOM      8  C   UNL     1      47.070   7.859  13.316  0.00  0.00    +0.000 A 
ATOM      9  C   UNL     1      46.473   6.604  13.125  0.00  0.00    +0.000 A 
BRANCH   8  10
ATOM     10  N   UNL     1      48.117   8.044  14.192  0.00  0.00    +0.000 N 
ATOM     11  C   UNL     1      49.328   7.212  14.167  0.00  0.00    +0.000 C 
ATOM     12  C   UNL     1      49.728   6.879  15.615  0.00  0.00    +0.000 C 
ATOM     13  O   UNL     1      49.910   8.067  16.405  0.00  0.00    +0.000 OA
ATOM     14  C   UNL     1      48.696   8.840  16.435  0.00  0.00    +0.000 C 
ATOM     15  C   UNL     1      48.251   9.251  15.023  0.00  0.00    +0.000 C 
ENDBRANCH   8  10
ENDBRANCH   1   4
BRANCH   1  16
ATOM     16  C   UNL     1      43.823   4.976  10.950  0.00  0.00    +0.000 C 
BRANCH  16  17
ATOM     17  N   UNL     1      43.767   3.616  10.385  0.00  0.00    +0.000 N 
ATOM     18  H   UNL     1      43.578   2.886  11.071  0.00  0.00    +0.000 HD
BRANCH  17  22
ATOM     19  C   UNL     1      46.591   2.569   7.429  0.00  0.00    +0.000 A 
ATOM     20  C   UNL     1      46.004   1.567   8.203  0.00  0.00    +0.000 A 
ATOM     21  C   UNL     1      45.054   1.899   9.177  0.00  0.00    +0.000 A 
ATOM     22  C   UNL     1      44.647   3.224   9.378  0.00  0.00    +0.000 A 
ATOM     23  C   UNL     1      45.268   4.219   8.610  0.00  0.00    +0.000 A 
ATOM     24  C   UNL     1      46.235   3.901   7.648  0.00  0.00    +0.000 A 
BRANCH  19  26
ATOM     25  N   UNL     1      47.716   3.119   5.344  0.00  0.00    +0.000 N 
ATOM     26  C   UNL     1      47.615   2.258   6.399  0.00  0.00    +0.000 C 
ATOM     27  O   UNL     1      48.366   1.295   6.504  0.00  0.00    +0.000 OA
ATOM     28  H   UNL     1      48.493   2.963   4.715  0.00  0.00    +0.000 HD
ATOM     29  H   UNL     1      47.307   4.043   5.361  0.00  0.00    +0.000 HD
ENDBRANCH  19  26
ENDBRANCH  17  22
ENDBRANCH  16  17
ENDBRANCH   1  16
TORSDOF 6
ENDMDL
MODEL 6
REMARK VINA RESULT:    -6.821      3.422      7.222
REMARK INTER + INTRA:         -10.244
REMARK INTER:                  -9.109
REMARK INTRA:                  -1.135
REMARK UNBOUND:                -1.030
REMARK  Name = 
REMARK  6 active torsions:
REMARK  status: ('A' for Active; 'I' for Inactive)
REMARK    1  A    between atoms: C_2  and  C_4
REMARK    2  A    between atoms: C_7  and  N_8
REMARK    3  A    between atoms: N_8  and  C_9
REMARK    4  A    between atoms: C_9  and  C_10
REMARK    5  A    between atoms: C_10  and  C_13
REMARK    6  A    between atoms: C_17  and  N_18
REMARK                            x       y       z     vdW  Elec       q    Type
REMARK                         _______ _______ _______ _____ _____    ______ ____
ROOT
ATOM      1  C   UNL     1      46.506   4.479  13.704  0.00  0.00    +0.000 C 
ATOM      2  F   UNL     1      47.441   3.498  13.873  0.00  0.00    +0.000 F 
ATOM      3  F   UNL     1      46.007   4.721  14.956  0.00  0.00    +0.000 F 
ENDROOT
BRANCH   1   4
ATOM      4  C   UNL     1      45.426   4.080  12.719  0.00  0.00    +0.000 A 
ATOM      5  C   UNL     1      44.076   4.286  13.014  0.00  0.00    +0.000 A 
ATOM      6  C   UNL     1      43.106   3.995  12.061  0.00  0.00    +0.000 A 
ATOM      7  C   UNL     1      43.482   3.511  10.804  0.00  0.00    +0.000 A 
ATOM      8  C   UNL     1      44.825   3.299  10.462  0.00  0.00    +0.000 A 
ATOM      9  C   UNL     1      45.779   3.572  11.454  0.00  0.00    +0.000 A 
BRANCH   8  10
ATOM     10  N   UNL     1      45.184   2.920   9.188  0.00  0.00    +0.000 N 
ATOM     11  C   UNL     1      45.279   1.513   8.777  0.00  0.00    +0.000 C 
ATOM     12  C   UNL     1      46.537   1.337   7.908  0.00  0.00    +0.000 C 
ATOM     13  O   UNL     1      46.534   2.226   6.778  0.00  0.00    +0.000 OA
ATOM     14  C   UNL     1      46.474   3.595   7.218  0.00  0.00    +0.000 C 
ATOM     15  C   UNL     1      45.217   3.865   8.060  0.00  0.00    +0.000 C 
ENDBRANCH   8  10
ENDBRANCH   1   4
BRANCH   1  16
ATOM     16  C   UNL     1      47.208   5.771  13.207  0.00  0.00    +0.000 C 
BRANCH  16  17
ATOM     17  N   UNL     1      46.585   7.012  13.699  0.00  0.00    +0.000 N 
ATOM     18  H   UNL     1      46.088   6.909  14.584  0.00  0.00    +0.000 HD
BRANCH  17  22
ATOM     19  C   UNL     1      44.546   9.657  11.120  0.00  0.00    +0.000 A 
ATOM     20  C   UNL     1      45.549  10.150  11.955  0.00  0.00    +0.000 A 
ATOM     21  C   UNL     1      46.244   9.281  12.804  0.00  0.00    +0.000 A 
ATOM     22  C   UNL     1      45.979   7.906  12.818  0.00  0.00    +0.000 A 
ATOM     23  C   UNL     1      44.950   7.434  11.991  0.00  0.00    +0.000 A 
ATOM     24  C   UNL     1      44.233   8.298  11.153  0.00  0.00    +0.000 A 
BRANCH  19  26
ATOM     25  N   UNL     1      42.430  10.328  10.124  0.00  0.00    +0.000 N 
ATOM     26  C   UNL     1      43.774  10.551  10.218  0.00  0.00    +0.000 C 
ATOM     27  O   UNL     1      44.306  11.474   9.612  0.00  0.00    +0.000 OA
ATOM     28  H   UNL     1      41.901  11.014   9.602  0.00  0.00    +0.000 HD
ATOM     29  H   UNL     1      41.929   9.762  10.795  0.00  0.00    +0.000 HD
ENDBRANCH  19  26
ENDBRANCH  17  22
ENDBRANCH  16  17
ENDBRANCH   1  16
TORSDOF 6
ENDMDL
MODEL 7
REMARK VINA RESULT:    -6.709      1.962      7.986
REMARK INTER + INTRA:         -10.093
REMARK INTER:                  -9.478
REMARK INTRA:                  -0.615
REMARK UNBOUND:                -1.030
REMARK  Name = 
REMARK  6 active torsions:
REMARK  status: ('A' for Active; 'I' for Inactive)
REMARK    1  A    between atoms: C_2  and  C_4
REMARK    2  A    between atoms: C_7  and  N_8
REMARK    3  A    between atoms: N_8  and  C_9
REMARK    4  A    between atoms: C_9  and  C_10
REMARK    5  A    between atoms: C_10  and  C_13
REMARK    6  A    between atoms: C_17  and  N_18
REMARK                            x       y       z     vdW  Elec       q    Type
REMARK                         _______ _______ _______ _____ _____    ______ ____
ROOT
ATOM      1  C   UNL     1      45.940   7.069  12.552  0.00  0.00    +0.000 C 
ATOM      2  F   UNL     1      45.232   7.955  13.313  0.00  0.00    +0.000 F 
ATOM      3  F   UNL     1      46.451   7.809  11.519  0.00  0.00    +0.000 F 
ENDROOT
BRANCH   1   4
ATOM      4  C   UNL     1      45.085   5.916  12.068  0.00  0.00    +0.000 A 
ATOM      5  C   UNL     1      43.845   5.648  12.655  0.00  0.00    +0.000 A 
ATOM      6  C   UNL     1      43.037   4.641  12.139  0.00  0.00    +0.000 A 
ATOM      7  C   UNL     1      43.458   3.907  11.025  0.00  0.00    +0.000 A 
ATOM      8  C   UNL     1      44.689   4.149  10.400  0.00  0.00    +0.000 A 
ATOM      9  C   UNL     1      45.496   5.149  10.961  0.00  0.00    +0.000 A 
BRANCH   8  10
ATOM     10  N   UNL     1      45.043   3.488   9.245  0.00  0.00    +0.000 N 
ATOM     11  C   UNL     1      44.800   2.052   9.046  0.00  0.00    +0.000 C 
ATOM     12  C   UNL     1      46.037   1.431   8.373  0.00  0.00    +0.000 C 
ATOM     13  O   UNL     1      46.363   2.095   7.140  0.00  0.00    +0.000 OA
ATOM     14  C   UNL     1      46.626   3.490   7.375  0.00  0.00    +0.000 C 
ATOM     15  C   UNL     1      45.417   4.196   8.010  0.00  0.00    +0.000 C 
ENDBRANCH   8  10
ENDBRANCH   1   4
BRANCH   1  16
ATOM     16  C   UNL     1      47.128   6.518  13.385  0.00  0.00    +0.000 C 
BRANCH  16  17
ATOM     17  N   UNL     1      46.727   5.556  14.426  0.00  0.00    +0.000 N 
ATOM     18  H   UNL     1      45.776   5.687  14.773  0.00  0.00    +0.000 HD
BRANCH  17  22
ATOM     19  C   UNL     1      49.392   4.494  17.520  0.00  0.00    +0.000 A 
ATOM     20  C   UNL     1      48.446   3.567  17.081  0.00  0.00    +0.000 A 
ATOM     21  C   UNL     1      47.566   3.901  16.045  0.00  0.00    +0.000 A 
ATOM     22  C   UNL     1      47.629   5.146  15.406  0.00  0.00    +0.000 A 
ATOM     23  C   UNL     1      48.568   6.073  15.879  0.00  0.00    +0.000 A 
ATOM     24  C   UNL     1      49.439   5.757  16.930  0.00  0.00    +0.000 A 
BRANCH  19  26
ATOM     25  N   UNL     1      49.906   4.455  19.898  0.00  0.00    +0.000 N 
ATOM     26  C   UNL     1      50.331   4.183  18.629  0.00  0.00    +0.000 C 
ATOM     27  O   UNL     1      51.425   3.668  18.425  0.00  0.00    +0.000 OA
ATOM     28  H   UNL     1      50.503   4.130  20.646  0.00  0.00    +0.000 HD
ATOM     29  H   UNL     1      48.934   4.627  20.115  0.00  0.00    +0.000 HD
ENDBRANCH  19  26
ENDBRANCH  17  22
ENDBRANCH  16  17
ENDBRANCH   1  16
TORSDOF 6
ENDMDL
MODEL 8
REMARK VINA RESULT:    -6.674      3.203      4.602
REMARK INTER + INTRA:         -10.045
REMARK INTER:                  -8.836
REMARK INTRA:                  -1.210
REMARK UNBOUND:                -1.030
REMARK  Name = 
REMARK  6 active torsions:
REMARK  status: ('A' for Active; 'I' for Inactive)
REMARK    1  A    between atoms: C_2  and  C_4
REMARK    2  A    between atoms: C_7  and  N_8
REMARK    3  A    between atoms: N_8  and  C_9
REMARK    4  A    between atoms: C_9  and  C_10
REMARK    5  A    between atoms: C_10  and  C_13
REMARK    6  A    between atoms: C_17  and  N_18
REMARK                            x       y       z     vdW  Elec       q    Type
REMARK                         _______ _______ _______ _____ _____    ______ ____
ROOT
ATOM      1  C   UNL     1      48.076   8.111  12.428  0.00  0.00    +0.000 C 
ATOM      2  F   UNL     1      48.176   6.908  11.792  0.00  0.00    +0.000 F 
ATOM      3  F   UNL     1      48.918   8.951  11.749  0.00  0.00    +0.000 F 
ENDROOT
BRANCH   1   4
ATOM      4  C   UNL     1      48.424   8.013  13.900  0.00  0.00    +0.000 A 
ATOM      5  C   UNL     1      48.586   9.164  14.676  0.00  0.00    +0.000 A 
ATOM      6  C   UNL     1      48.817   9.051  16.042  0.00  0.00    +0.000 A 
ATOM      7  C   UNL     1      48.873   7.789  16.642  0.00  0.00    +0.000 A 
ATOM      8  C   UNL     1      48.706   6.609  15.903  0.00  0.00    +0.000 A 
ATOM      9  C   UNL     1      48.505   6.753  14.522  0.00  0.00    +0.000 A 
BRANCH   8  10
ATOM     10  N   UNL     1      48.663   5.380  16.523  0.00  0.00    +0.000 N 
ATOM     11  C   UNL     1      47.710   4.330  16.137  0.00  0.00    +0.000 C 
ATOM     12  C   UNL     1      47.158   3.671  17.413  0.00  0.00    +0.000 C 
ATOM     13  O   UNL     1      48.211   3.158  18.247  0.00  0.00    +0.000 OA
ATOM     14  C   UNL     1      49.106   4.217  18.633  0.00  0.00    +0.000 C 
ATOM     15  C   UNL     1      49.736   4.902  17.409  0.00  0.00    +0.000 C 
ENDBRANCH   8  10
ENDBRANCH   1   4
BRANCH   1  16
ATOM     16  C   UNL     1      46.629   8.651  12.274  0.00  0.00    +0.000 C 
BRANCH  16  17
ATOM     17  N   UNL     1      45.633   7.915  13.073  0.00  0.00    +0.000 N 
ATOM     18  H   UNL     1      45.769   7.987  14.082  0.00  0.00    +0.000 HD
BRANCH  17  22
ATOM     19  C   UNL     1      44.334   4.170  11.627  0.00  0.00    +0.000 A 
ATOM     20  C   UNL     1      44.948   4.248  12.877  0.00  0.00    +0.000 A 
ATOM     21  C   UNL     1      45.370   5.485  13.376  0.00  0.00    +0.000 A 
ATOM     22  C   UNL     1      45.162   6.671  12.659  0.00  0.00    +0.000 A 
ATOM     23  C   UNL     1      44.568   6.570  11.394  0.00  0.00    +0.000 A 
ATOM     24  C   UNL     1      44.162   5.333  10.875  0.00  0.00    +0.000 A 
BRANCH  19  26
ATOM     25  N   UNL     1      44.640   2.350  10.042  0.00  0.00    +0.000 N 
ATOM     26  C   UNL     1      43.889   2.873  11.056  0.00  0.00    +0.000 C 
ATOM     27  O   UNL     1      42.916   2.272  11.497  0.00  0.00    +0.000 OA
ATOM     28  H   UNL     1      44.396   1.415   9.745  0.00  0.00    +0.000 HD
ATOM     29  H   UNL     1      45.574   2.678   9.839  0.00  0.00    +0.000 HD
ENDBRANCH  19  26
ENDBRANCH  17  22
ENDBRANCH  16  17
ENDBRANCH   1  16
TORSDOF 6
ENDMDL
MODEL 9
REMARK VINA RESULT:    -6.573      3.259      7.642
REMARK INTER + INTRA:          -9.908
REMARK INTER:                  -8.837
REMARK INTRA:                  -1.072
REMARK UNBOUND:                -1.030
REMARK  Name = 
REMARK  6 active torsions:
REMARK  status: ('A' for Active; 'I' for Inactive)
REMARK    1  A    between atoms: C_2  and  C_4
REMARK    2  A    between atoms: C_7  and  N_8
REMARK    3  A    between atoms: N_8  and  C_9
REMARK    4  A    between atoms: C_9  and  C_10
REMARK    5  A    between atoms: C_10  and  C_13
REMARK    6  A    between atoms: C_17  and  N_18
REMARK                            x       y       z     vdW  Elec       q    Type
REMARK                         _______ _______ _______ _____ _____    ______ ____
ROOT
ATOM      1  C   UNL     1      49.143   8.187  12.093  0.00  0.00    +0.000 C 
ATOM      2  F   UNL     1      49.441   9.510  12.254  0.00  0.00    +0.000 F 
ATOM      3  F   UNL     1      49.751   7.819  10.923  0.00  0.00    +0.000 F 
ENDROOT
BRANCH   1   4
ATOM      4  C   UNL     1      47.649   7.934  12.072  0.00  0.00    +0.000 A 
ATOM      5  C   UNL     1      46.743   8.975  12.293  0.00  0.00    +0.000 A 
ATOM      6  C   UNL     1      45.377   8.741  12.181  0.00  0.00    +0.000 A 
ATOM      7  C   UNL     1      44.911   7.469  11.834  0.00  0.00    +0.000 A 
ATOM      8  C   UNL     1      45.784   6.399  11.594  0.00  0.00    +0.000 A 
ATOM      9  C   UNL     1      47.155   6.657  11.744  0.00  0.00    +0.000 A 
BRANCH   8  10
ATOM     10  N   UNL     1      45.315   5.181  11.155  0.00  0.00    +0.000 N 
ATOM     11  C   UNL     1      45.409   4.754   9.752  0.00  0.00    +0.000 C 
ATOM     12  C   UNL     1      44.088   4.072   9.355  0.00  0.00    +0.000 C 
ATOM     13  O   UNL     1      43.771   2.974  10.228  0.00  0.00    +0.000 OA
ATOM     14  C   UNL     1      43.654   3.433  11.588  0.00  0.00    +0.000 C 
ATOM     15  C   UNL     1      44.954   4.092  12.077  0.00  0.00    +0.000 C 
ENDBRANCH   8  10
ENDBRANCH   1   4
BRANCH   1  16
ATOM     16  C   UNL     1      49.787   7.376  13.248  0.00  0.00    +0.000 C 
BRANCH  16  17
ATOM     17  N   UNL     1      49.242   7.700  14.578  0.00  0.00    +0.000 N 
ATOM     18  H   UNL     1      49.704   8.483  15.040  0.00  0.00    +0.000 HD
BRANCH  17  22
ATOM     19  C   UNL     1      48.077   4.490  17.058  0.00  0.00    +0.000 A 
ATOM     20  C   UNL     1      49.069   5.369  17.494  0.00  0.00    +0.000 A 
ATOM     21  C   UNL     1      49.454   6.447  16.688  0.00  0.00    +0.000 A 
ATOM     22  C   UNL     1      48.842   6.691  15.452  0.00  0.00    +0.000 A 
ATOM     23  C   UNL     1      47.867   5.781  15.019  0.00  0.00    +0.000 A 
ATOM     24  C   UNL     1      47.489   4.687  15.808  0.00  0.00    +0.000 A 
BRANCH  19  26
ATOM     25  N   UNL     1      48.279   3.151  19.079  0.00  0.00    +0.000 N 
ATOM     26  C   UNL     1      47.654   3.325  17.877  0.00  0.00    +0.000 C 
ATOM     27  O   UNL     1      46.758   2.571  17.515  0.00  0.00    +0.000 OA
ATOM     28  H   UNL     1      47.901   2.428  19.676  0.00  0.00    +0.000 HD
ATOM     29  H   UNL     1      48.819   3.885  19.516  0.00  0.00    +0.000 HD
ENDBRANCH  19  26
ENDBRANCH  17  22
ENDBRANCH  16  17
ENDBRANCH   1  16
TORSDOF 6
ENDMDL
