MODEL 1
REMARK VINA RESULT:    -8.784      0.000      0.000
REMARK INTER + INTRA:         -11.356
REMARK INTER:                 -10.838
REMARK INTRA:                  -0.518
REMARK UNBOUND:                -0.518
REMARK  Name = 
REMARK  4 active torsions:
REMARK  status: ('A' for Active; 'I' for Inactive)
REMARK    1  A    between atoms: C_2  and  C_4
REMARK    2  A    between atoms: N_8  and  C_9
REMARK    3  A    between atoms: C_9  and  C_10
REMARK    4  A    between atoms: C_14  and  N_15
REMARK                            x       y       z     vdW  Elec       q    Type
REMARK                         _______ _______ _______ _____ _____    ______ ____
ROOT
ATOM      1  C   UNL     1      46.384   2.275   7.727  0.00  0.00    +0.000 A 
ATOM      2  C   UNL     1      45.541   1.842   8.719  0.00  0.00    +0.000 A 
ATOM      3  N   UNL     1      44.671   2.649   9.361  0.00  0.00    +0.000 NA
ATOM      4  C   UNL     1      44.652   3.942   9.003  0.00  0.00    +0.000 A 
ATOM      5  N   UNL     1      43.759   4.809   9.591  0.00  0.00    +0.000 N 
ATOM      6  N   UNL     1      45.442   4.463   8.056  0.00  0.00    +0.000 NA
ATOM      7  C   UNL     1      46.302   3.618   7.439  0.00  0.00    +0.000 A 
ATOM      8  H   UNL     1      44.049   5.758   9.387  0.00  0.00    +0.000 HD
ENDROOT
BRANCH   1  10
ATOM      9  N   UNL     1      48.489   1.984   6.548  0.00  0.00    +0.000 N 
ATOM     10  C   UNL     1      47.347   1.410   7.036  0.00  0.00    +0.000 C 
ATOM     11  O   UNL     1      47.137   0.211   6.913  0.00  0.00    +0.000 OA
ATOM     12  H   UNL     1      49.167   1.349   6.143  0.00  0.00    +0.000 HD
ATOM     13  H   UNL     1      48.824   2.894   6.833  0.00  0.00    +0.000 HD
ENDBRANCH   1  10
BRANCH   5  14
ATOM     14  C   UNL     1      43.401   4.540  10.969  0.00  0.00    +0.000 C 
BRANCH  14  15
ATOM     15  C   UNL     1      44.580   4.787  11.870  0.00  0.00    +0.000 A 
ATOM     16  C   UNL     1      44.961   3.856  12.825  0.00  0.00    +0.000 A 
ATOM     17  N   UNL     1      45.964   4.052  13.706  0.00  0.00    +0.000 NA
ATOM     18  C   UNL     1      46.606   5.249  13.637  0.00  0.00    +0.000 A 
ATOM     19  C   UNL     1      46.314   6.282  12.745  0.00  0.00    +0.000 A 
ATOM     20  C   UNL     1      45.264   6.011  11.866  0.00  0.00    +0.000 A 
BRANCH  19  21
ATOM     21  N   UNL     1      46.934   7.511  12.739  0.00  0.00    +0.000 N 
ATOM     22  C   UNL     1      46.240   8.752  13.096  0.00  0.00    +0.000 C 
ATOM     23  C   UNL     1      46.722   9.861  12.142  0.00  0.00    +0.000 C 
ATOM     24  O   UNL     1      48.151  10.023  12.197  0.00  0.00    +0.000 OA
ATOM     25  C   UNL     1      48.808   8.799  11.819  0.00  0.00    +0.000 C 
ATOM     26  C   UNL     1      48.403   7.632  12.734  0.00  0.00    +0.000 C 
ENDBRANCH  19  21
ENDBRANCH  14  15
ENDBRANCH   5  14
TORSDOF 4
ENDMDL
MODEL 2
REMARK VINA RESULT:    -8.783      1.939      2.945
REMARK INTER + INTRA:         -11.355
REMARK INTER:                 -10.749
REMARK INTRA:                  -0.607
REMARK UNBOUND:                -0.518
REMARK  Name = 
REMARK  4 active torsions:
REMARK  status: ('A' for Active; 'I' for Inactive)
REMARK    1  A    between atoms: C_2  and  C_4
REMARK    2  A    between atoms: N_8  and  C_9
REMARK    3  A    between atoms: C_9  and  C_10
REMARK    4  A    between atoms: C_14  and  N_15
REMARK                            x       y       z     vdW  Elec       q    Type
REMARK                         _______ _______ _______ _____ _____    ______ ____
ROOT
ATOM      1  C   UNL     1      46.380   2.232   7.677  0.00  0.00    +0.000 A 
ATOM      2  C   UNL     1      45.651   1.841   8.772  0.00  0.00    +0.000 A 
ATOM      3  N   UNL     1      44.775   2.646   9.409  0.00  0.00    +0.000 NA
ATOM      4  C   UNL     1      44.631   3.893   8.937  0.00  0.00    +0.000 A 
ATOM      5  N   UNL     1      43.723   4.751   9.517  0.00  0.00    +0.000 N 
ATOM      6  N   UNL     1      45.304   4.373   7.883  0.00  0.00    +0.000 NA
ATOM      7  C   UNL     1      46.174   3.532   7.276  0.00  0.00    +0.000 A 
ATOM      8  H   UNL     1      43.924   5.693   9.204  0.00  0.00    +0.000 HD
ENDROOT
BRANCH   1  10
ATOM      9  N   UNL     1      48.491   1.950   6.508  0.00  0.00    +0.000 N 
ATOM     10  C   UNL     1      47.349   1.372   6.989  0.00  0.00    +0.000 C 
ATOM     11  O   UNL     1      47.143   0.172   6.863  0.00  0.00    +0.000 OA
ATOM     12  H   UNL     1      49.173   1.319   6.105  0.00  0.00    +0.000 HD
ATOM     13  H   UNL     1      48.822   2.861   6.795  0.00  0.00    +0.000 HD
ENDBRANCH   1  10
BRANCH   5  14
ATOM     14  C   UNL     1      43.494   4.592  10.939  0.00  0.00    +0.000 C 
BRANCH  14  15
ATOM     15  C   UNL     1      44.374   5.534  11.715  0.00  0.00    +0.000 A 
ATOM     16  C   UNL     1      44.386   6.893  11.442  0.00  0.00    +0.000 A 
ATOM     17  N   UNL     1      45.203   7.775  12.056  0.00  0.00    +0.000 NA
ATOM     18  C   UNL     1      46.064   7.264  12.977  0.00  0.00    +0.000 A 
ATOM     19  C   UNL     1      46.175   5.919  13.333  0.00  0.00    +0.000 A 
ATOM     20  C   UNL     1      45.301   5.065  12.656  0.00  0.00    +0.000 A 
BRANCH  19  21
ATOM     21  N   UNL     1      47.100   5.417  14.219  0.00  0.00    +0.000 N 
ATOM     22  C   UNL     1      47.158   3.999  14.588  0.00  0.00    +0.000 C 
ATOM     23  C   UNL     1      47.469   3.909  16.094  0.00  0.00    +0.000 C 
ATOM     24  O   UNL     1      48.694   4.589  16.424  0.00  0.00    +0.000 OA
ATOM     25  C   UNL     1      48.602   5.982  16.075  0.00  0.00    +0.000 C 
ATOM     26  C   UNL     1      48.313   6.173  14.577  0.00  0.00    +0.000 C 
ENDBRANCH  19  21
ENDBRANCH  14  15
ENDBRANCH   5  14
TORSDOF 4
ENDMDL
MODEL 3
REMARK VINA RESULT:    -7.752      1.966      3.009
REMARK INTER + INTRA:         -10.083
REMARK INTER:                  -9.717
REMARK INTRA:                  -0.365
REMARK UNBOUND:                -0.518
REMARK  Name = 
REMARK  4 active torsions:
REMARK  status: ('A' for Active; 'I' for Inactive)
REMARK    1  A    between atoms: C_2  and  C_4
REMARK    2  A    between atoms: N_8  and  C_9
REMARK    3  A    between atoms: C_9  and  C_10
REMARK    4  A    between atoms: C_14  and  N_15
REMARK                            x       y       z     vdW  Elec       q    Type
REMARK                         _______ _______ _______ _____ _____    ______ ____
ROOT
ATOM      1  C   UNL     1      46.457   2.677   7.502  0.00  0.00    +0.000 A 
ATOM      2  C   UNL     1      46.316   3.972   7.933  0.00  0.00    +0.000 A 
ATOM      3  N   UNL     1      45.522   4.330   8.964  0.00  0.00    +0.000 NA
ATOM      4  C   UNL     1      44.835   3.356   9.580  0.00  0.00    +0.000 A 
ATOM      5  N   UNL     1      44.040   3.650  10.664  0.00  0.00    +0.000 N 
ATOM      6  N   UNL     1      44.897   2.066   9.227  0.00  0.00    +0.000 NA
ATOM      7  C   UNL     1      45.704   1.751   8.187  0.00  0.00    +0.000 A 
ATOM      8  H   UNL     1      43.425   2.864  10.836  0.00  0.00    +0.000 HD
ENDROOT
BRANCH   1  10
ATOM      9  N   UNL     1      47.194   2.989   5.208  0.00  0.00    +0.000 N 
ATOM     10  C   UNL     1      47.303   2.278   6.371  0.00  0.00    +0.000 C 
ATOM     11  O   UNL     1      48.089   1.346   6.475  0.00  0.00    +0.000 OA
ATOM     12  H   UNL     1      47.843   2.738   4.472  0.00  0.00    +0.000 HD
ATOM     13  H   UNL     1      46.760   3.900   5.146  0.00  0.00    +0.000 HD
ENDBRANCH   1  10
BRANCH   5  14
ATOM     14  C   UNL     1      43.412   4.957  10.676  0.00  0.00    +0.000 C 
BRANCH  14  15
ATOM     15  C   UNL     1      44.251   5.928  11.462  0.00  0.00    +0.000 A 
ATOM     16  C   UNL     1      44.200   7.290  11.207  0.00  0.00    +0.000 A 
ATOM     17  N   UNL     1      44.978   8.200  11.830  0.00  0.00    +0.000 NA
ATOM     18  C   UNL     1      45.865   7.717  12.741  0.00  0.00    +0.000 A 
ATOM     19  C   UNL     1      46.040   6.374  13.078  0.00  0.00    +0.000 A 
ATOM     20  C   UNL     1      45.203   5.490  12.393  0.00  0.00    +0.000 A 
BRANCH  19  21
ATOM     21  N   UNL     1      46.991   5.903  13.954  0.00  0.00    +0.000 N 
ATOM     22  C   UNL     1      46.975   4.536  14.484  0.00  0.00    +0.000 C 
ATOM     23  C   UNL     1      47.392   4.593  15.966  0.00  0.00    +0.000 C 
ATOM     24  O   UNL     1      48.683   5.206  16.130  0.00  0.00    +0.000 OA
ATOM     25  C   UNL     1      48.665   6.554  15.625  0.00  0.00    +0.000 C 
ATOM     26  C   UNL     1      48.278   6.596  14.138  0.00  0.00    +0.000 C 
ENDBRANCH  19  21
ENDBRANCH  14  15
ENDBRANCH   5  14
TORSDOF 4
ENDMDL
MODEL 4
REMARK VINA RESULT:    -7.241      3.547      7.813
REMARK INTER + INTRA:          -9.453
REMARK INTER:                  -9.071
REMARK INTRA:                  -0.382
REMARK UNBOUND:                -0.518
REMARK  Name = 
REMARK  4 active torsions:
REMARK  status: ('A' for Active; 'I' for Inactive)
REMARK    1  A    between atoms: C_2  and  C_4
REMARK    2  A    between atoms: N_8  and  C_9
REMARK    3  A    between atoms: C_9  and  C_10
REMARK    4  A    between atoms: C_14  and  N_15
REMARK                            x       y       z     vdW  Elec       q    Type
REMARK                         _______ _______ _______ _____ _____    ______ ____
ROOT
ATOM      1  C   UNL     1      49.517   3.993  17.361  0.00  0.00    +0.000 A 
ATOM      2  C   UNL     1      49.227   5.188  16.752  0.00  0.00    +0.000 A 
ATOM      3  N   UNL     1      48.172   5.367  15.930  0.00  0.00    +0.000 NA
ATOM      4  C   UNL     1      47.383   4.306  15.701  0.00  0.00    +0.000 A 
ATOM      5  N   UNL     1      46.268   4.433  14.905  0.00  0.00    +0.000 N 
ATOM      6  N   UNL     1      47.588   3.097  16.239  0.00  0.00    +0.000 NA
ATOM      7  C   UNL     1      48.660   2.961  17.056  0.00  0.00    +0.000 A 
ATOM      8  H   UNL     1      45.946   3.507  14.650  0.00  0.00    +0.000 HD
ENDROOT
BRANCH   1  10
ATOM      9  N   UNL     1      51.443   2.672  18.033  0.00  0.00    +0.000 N 
ATOM     10  C   UNL     1      50.672   3.782  18.242  0.00  0.00    +0.000 C 
ATOM     11  O   UNL     1      50.940   4.584  19.126  0.00  0.00    +0.000 OA
ATOM     12  H   UNL     1      52.274   2.594  18.607  0.00  0.00    +0.000 HD
ATOM     13  H   UNL     1      51.418   2.125  17.183  0.00  0.00    +0.000 HD
ENDBRANCH   1  10
BRANCH   5  14
ATOM     14  C   UNL     1      46.345   5.395  13.824  0.00  0.00    +0.000 C 
BRANCH  14  15
ATOM     15  C   UNL     1      45.295   5.098  12.788  0.00  0.00    +0.000 A 
ATOM     16  C   UNL     1      43.948   5.281  13.059  0.00  0.00    +0.000 A 
ATOM     17  N   UNL     1      42.959   4.967  12.196  0.00  0.00    +0.000 NA
ATOM     18  C   UNL     1      43.340   4.425  11.009  0.00  0.00    +0.000 A 
ATOM     19  C   UNL     1      44.653   4.164  10.614  0.00  0.00    +0.000 A 
ATOM     20  C   UNL     1      45.623   4.512  11.558  0.00  0.00    +0.000 A 
BRANCH  19  21
ATOM     21  N   UNL     1      45.011   3.553   9.435  0.00  0.00    +0.000 N 
ATOM     22  C   UNL     1      44.745   2.137   9.162  0.00  0.00    +0.000 C 
ATOM     23  C   UNL     1      45.962   1.556   8.419  0.00  0.00    +0.000 C 
ATOM     24  O   UNL     1      46.240   2.282   7.207  0.00  0.00    +0.000 OA
ATOM     25  C   UNL     1      46.521   3.662   7.504  0.00  0.00    +0.000 C 
ATOM     26  C   UNL     1      45.347   4.336   8.232  0.00  0.00    +0.000 C 
ENDBRANCH  19  21
ENDBRANCH  14  15
ENDBRANCH   5  14
TORSDOF 4
ENDMDL
MODEL 5
REMARK VINA RESULT:    -7.039      2.115      2.644
REMARK INTER + INTRA:          -9.203
REMARK INTER:                  -9.051
REMARK INTRA:                  -0.152
REMARK UNBOUND:                -0.518
REMARK  Name = 
REMARK  4 active torsions:
REMARK  status: ('A' for Active; 'I' for Inactive)
REMARK    1  A    between atoms: C_2  and  C_4
REMARK    2  A    between atoms: N_8  and  C_9
REMARK    3  A    between atoms: C_9  and  C_10
REMARK    4  A    between atoms: C_14  and  N_15
REMARK                            x       y       z     vdW  Elec       q    Type
REMARK                         _______ _______ _______ _____ _____    ______ ____
ROOT
ATOM      1  C   UNL     1      46.536   2.750   7.350  0.00  0.00    +0.000 A 
ATOM      2  C   UNL     1      46.202   3.937   7.953  0.00  0.00    +0.000 A 
ATOM      3  N   UNL     1      45.482   4.016   9.091  0.00  0.00    +0.000 NA
ATOM      4  C   UNL     1      45.073   2.863   9.642  0.00  0.00    +0.000 A 
ATOM      5  N   UNL     1      44.370   2.873  10.825  0.00  0.00    +0.000 N 
ATOM      6  N   UNL     1      45.337   1.656   9.125  0.00  0.00    +0.000 NA
ATOM      7  C   UNL     1      46.061   1.623   7.981  0.00  0.00    +0.000 A 
ATOM      8  H   UNL     1      43.942   1.964  10.955  0.00  0.00    +0.000 HD
ENDROOT
BRANCH   1  10
ATOM      9  N   UNL     1      48.625   2.319   6.186  0.00  0.00    +0.000 N 
ATOM     10  C   UNL     1      47.301   2.653   6.102  0.00  0.00    +0.000 C 
ATOM     11  O   UNL     1      46.765   2.853   5.020  0.00  0.00    +0.000 OA
ATOM     12  H   UNL     1      49.107   2.186   5.305  0.00  0.00    +0.000 HD
ATOM     13  H   UNL     1      49.048   1.907   7.007  0.00  0.00    +0.000 HD
ENDBRANCH   1  10
BRANCH   5  14
ATOM     14  C   UNL     1      43.511   4.016  11.063  0.00  0.00    +0.000 C 
BRANCH  14  15
ATOM     15  C   UNL     1      44.314   5.164  11.612  0.00  0.00    +0.000 A 
ATOM     16  C   UNL     1      45.292   4.961  12.573  0.00  0.00    +0.000 A 
ATOM     17  N   UNL     1      45.995   5.957  13.151  0.00  0.00    +0.000 NA
ATOM     18  C   UNL     1      45.687   7.222  12.759  0.00  0.00    +0.000 A 
ATOM     19  C   UNL     1      44.714   7.574  11.823  0.00  0.00    +0.000 A 
ATOM     20  C   UNL     1      44.025   6.492  11.268  0.00  0.00    +0.000 A 
BRANCH  19  21
ATOM     21  N   UNL     1      44.374   8.865  11.492  0.00  0.00    +0.000 N 
ATOM     22  C   UNL     1      43.251   9.189  10.607  0.00  0.00    +0.000 C 
ATOM     23  C   UNL     1      43.678  10.360   9.701  0.00  0.00    +0.000 C 
ATOM     24  O   UNL     1      44.087  11.504  10.472  0.00  0.00    +0.000 OA
ATOM     25  C   UNL     1      45.205  11.167  11.313  0.00  0.00    +0.000 C 
ATOM     26  C   UNL     1      44.865  10.015  12.273  0.00  0.00    +0.000 C 
ENDBRANCH  19  21
ENDBRANCH  14  15
ENDBRANCH   5  14
TORSDOF 4
ENDMDL
MODEL 6
REMARK VINA RESULT:    -6.915      4.636      7.896
REMARK INTER + INTRA:          -9.051
REMARK INTER:                  -8.517
REMARK INTRA:                  -0.534
REMARK UNBOUND:                -0.518
REMARK  Name = 
REMARK  4 active torsions:
REMARK  status: ('A' for Active; 'I' for Inactive)
REMARK    1  A    between atoms: C_2  and  C_4
REMARK    2  A    between atoms: N_8  and  C_9
REMARK    3  A    between atoms: C_9  and  C_10
REMARK    4  A    between atoms: C_14  and  N_15
REMARK                            x       y       z     vdW  Elec       q    Type
REMARK                         _______ _______ _______ _____ _____    ______ ____
ROOT
ATOM      1  C   UNL     1      50.898   2.509  17.372  0.00  0.00    +0.000 A 
ATOM      2  C   UNL     1      51.069   3.870  17.378  0.00  0.00    +0.000 A 
ATOM      3  N   UNL     1      50.110   4.742  17.002  0.00  0.00    +0.000 NA
ATOM      4  C   UNL     1      48.938   4.230  16.597  0.00  0.00    +0.000 A 
ATOM      5  N   UNL     1      47.905   5.067  16.240  0.00  0.00    +0.000 N 
ATOM      6  N   UNL     1      48.677   2.918  16.545  0.00  0.00    +0.000 NA
ATOM      7  C   UNL     1      49.669   2.079  16.928  0.00  0.00    +0.000 A 
ATOM      8  H   UNL     1      47.210   4.527  15.739  0.00  0.00    +0.000 HD
ENDROOT
BRANCH   1  10
ATOM      9  N   UNL     1      51.549   0.295  18.131  0.00  0.00    +0.000 N 
ATOM     10  C   UNL     1      51.940   1.551  17.759  0.00  0.00    +0.000 C 
ATOM     11  O   UNL     1      53.122   1.867  17.736  0.00  0.00    +0.000 OA
ATOM     12  H   UNL     1      52.295  -0.365  18.320  0.00  0.00    +0.000 HD
ATOM     13  H   UNL     1      50.635  -0.090  17.933  0.00  0.00    +0.000 HD
ENDBRANCH   1  10
BRANCH   5  14
ATOM     14  C   UNL     1      48.271   6.336  15.642  0.00  0.00    +0.000 C 
BRANCH  14  15
ATOM     15  C   UNL     1      47.844   6.372  14.200  0.00  0.00    +0.000 A 
ATOM     16  C   UNL     1      48.475   7.202  13.286  0.00  0.00    +0.000 A 
ATOM     17  N   UNL     1      48.092   7.329  11.998  0.00  0.00    +0.000 NA
ATOM     18  C   UNL     1      47.012   6.598  11.612  0.00  0.00    +0.000 A 
ATOM     19  C   UNL     1      46.271   5.742  12.428  0.00  0.00    +0.000 A 
ATOM     20  C   UNL     1      46.722   5.664  13.748  0.00  0.00    +0.000 A 
BRANCH  19  21
ATOM     21  N   UNL     1      45.140   5.065  12.032  0.00  0.00    +0.000 N 
ATOM     22  C   UNL     1      44.125   4.593  12.978  0.00  0.00    +0.000 C 
ATOM     23  C   UNL     1      43.645   3.206  12.512  0.00  0.00    +0.000 C 
ATOM     24  O   UNL     1      43.132   3.247  11.168  0.00  0.00    +0.000 OA
ATOM     25  C   UNL     1      44.155   3.689  10.256  0.00  0.00    +0.000 C 
ATOM     26  C   UNL     1      44.683   5.083  10.631  0.00  0.00    +0.000 C 
ENDBRANCH  19  21
ENDBRANCH  14  15
ENDBRANCH   5  14
TORSDOF 4
ENDMDL
MODEL 7
REMARK VINA RESULT:    -6.231      4.200      8.473
REMARK INTER + INTRA:          -8.206
REMARK INTER:                  -7.602
REMARK INTRA:                  -0.605
REMARK UNBOUND:                -0.518
REMARK  Name = 
REMARK  4 active torsions:
REMARK  status: ('A' for Active; 'I' for Inactive)
REMARK    1  A    between atoms: C_2  and  C_4
REMARK    2  A    between atoms: N_8  and  C_9
REMARK    3  A    between atoms: C_9  and  C_10
REMARK    4  A    between atoms: C_14  and  N_15
REMARK                            x       y       z     vdW  Elec       q    Type
REMARK                         _______ _______ _______ _____ _____    ______ ____
ROOT
ATOM      1  C   UNL     1      48.868   5.305  18.575  0.00  0.00    +0.000 A 
ATOM      2  C   UNL     1      49.356   4.823  17.386  0.00  0.00    +0.000 A 
ATOM      3  N   UNL     1      49.510   5.583  16.282  0.00  0.00    +0.000 NA
ATOM      4  C   UNL     1      49.152   6.873  16.368  0.00  0.00    +0.000 A 
ATOM      5  N   UNL     1      49.323   7.711  15.290  0.00  0.00    +0.000 N 
ATOM      6  N   UNL     1      48.657   7.435  17.478  0.00  0.00    +0.000 NA
ATOM      7  C   UNL     1      48.517   6.636  18.562  0.00  0.00    +0.000 A 
ATOM      8  H   UNL     1      48.785   8.555  15.448  0.00  0.00    +0.000 HD
ENDROOT
BRANCH   1  10
ATOM      9  N   UNL     1      48.343   3.169  19.606  0.00  0.00    +0.000 N 
ATOM     10  C   UNL     1      48.678   4.484  19.776  0.00  0.00    +0.000 C 
ATOM     11  O   UNL     1      48.829   4.962  20.892  0.00  0.00    +0.000 OA
ATOM     12  H   UNL     1      48.292   2.611  20.451  0.00  0.00    +0.000 HD
ATOM     13  H   UNL     1      48.449   2.672  18.733  0.00  0.00    +0.000 HD
ENDBRANCH   1  10
BRANCH   5  14
ATOM     14  C   UNL     1      49.193   7.116  13.975  0.00  0.00    +0.000 C 
BRANCH  14  15
ATOM     15  C   UNL     1      47.795   7.312  13.452  0.00  0.00    +0.000 A 
ATOM     16  C   UNL     1      47.223   8.573  13.391  0.00  0.00    +0.000 A 
ATOM     17  N   UNL     1      45.953   8.803  12.998  0.00  0.00    +0.000 NA
ATOM     18  C   UNL     1      45.214   7.710  12.667  0.00  0.00    +0.000 A 
ATOM     19  C   UNL     1      45.653   6.386  12.704  0.00  0.00    +0.000 A 
ATOM     20  C   UNL     1      46.975   6.224  13.122  0.00  0.00    +0.000 A 
BRANCH  19  21
ATOM     21  N   UNL     1      44.866   5.291  12.429  0.00  0.00    +0.000 N 
ATOM     22  C   UNL     1      45.413   3.941  12.262  0.00  0.00    +0.000 C 
ATOM     23  C   UNL     1      44.651   3.255  11.113  0.00  0.00    +0.000 C 
ATOM     24  O   UNL     1      43.234   3.221  11.362  0.00  0.00    +0.000 OA
ATOM     25  C   UNL     1      42.718   4.558  11.497  0.00  0.00    +0.000 C 
ATOM     26  C   UNL     1      43.407   5.319  12.641  0.00  0.00    +0.000 C 
ENDBRANCH  19  21
ENDBRANCH  14  15
ENDBRANCH   5  14
TORSDOF 4
ENDMDL
MODEL 8
REMARK VINA RESULT:    -6.213      4.165      8.175
REMARK INTER + INTRA:          -8.184
REMARK INTER:                  -7.769
REMARK INTRA:                  -0.415
REMARK UNBOUND:                -0.518
REMARK  Name = 
REMARK  4 active torsions:
REMARK  status: ('A' for Active; 'I' for Inactive)
REMARK    1  A    between atoms: C_2  and  C_4
REMARK    2  A    between atoms: N_8  and  C_9
REMARK    3  A    between atoms: C_9  and  C_10
REMARK    4  A    between atoms: C_14  and  N_15
REMARK                            x       y       z     vdW  Elec       q    Type
REMARK                         _______ _______ _______ _____ _____    ______ ____
ROOT
ATOM      1  C   UNL     1      50.539   4.668  17.755  0.00  0.00    +0.000 A 
ATOM      2  C   UNL     1      50.632   5.887  17.131  0.00  0.00    +0.000 A 
ATOM      3  N   UNL     1      49.710   6.348  16.261  0.00  0.00    +0.000 NA
ATOM      4  C   UNL     1      48.660   5.555  15.998  0.00  0.00    +0.000 A 
ATOM      5  N   UNL     1      47.664   5.985  15.151  0.00  0.00    +0.000 N 
ATOM      6  N   UNL     1      48.485   4.346  16.546  0.00  0.00    +0.000 NA
ATOM      7  C   UNL     1      49.436   3.921  17.412  0.00  0.00    +0.000 A 
ATOM      8  H   UNL     1      47.101   5.187  14.882  0.00  0.00    +0.000 HD
ENDROOT
BRANCH   1  10
ATOM      9  N   UNL     1      51.997   2.870  18.496  0.00  0.00    +0.000 N 
ATOM     10  C   UNL     1      51.545   4.147  18.688  0.00  0.00    +0.000 C 
ATOM     11  O   UNL     1      51.973   4.841  19.600  0.00  0.00    +0.000 OA
ATOM     12  H   UNL     1      52.744   2.567  19.110  0.00  0.00    +0.000 HD
ATOM     13  H   UNL     1      51.871   2.354  17.636  0.00  0.00    +0.000 HD
ENDBRANCH   1  10
BRANCH   5  14
ATOM     14  C   UNL     1      48.062   6.870  14.074  0.00  0.00    +0.000 C 
BRANCH  14  15
ATOM     15  C   UNL     1      46.940   7.016  13.081  0.00  0.00    +0.000 A 
ATOM     16  C   UNL     1      46.454   8.264  12.727  0.00  0.00    +0.000 A 
ATOM     17  N   UNL     1      45.406   8.455  11.897  0.00  0.00    +0.000 NA
ATOM     18  C   UNL     1      44.806   7.335  11.413  0.00  0.00    +0.000 A 
ATOM     19  C   UNL     1      45.174   6.020  11.702  0.00  0.00    +0.000 A 
ATOM     20  C   UNL     1      46.263   5.900  12.569  0.00  0.00    +0.000 A 
BRANCH  19  21
ATOM     21  N   UNL     1      44.509   4.903  11.253  0.00  0.00    +0.000 N 
ATOM     22  C   UNL     1      43.298   4.386  11.900  0.00  0.00    +0.000 C 
ATOM     23  C   UNL     1      43.376   2.848  11.900  0.00  0.00    +0.000 C 
ATOM     24  O   UNL     1      43.526   2.324  10.568  0.00  0.00    +0.000 OA
ATOM     25  C   UNL     1      44.732   2.826   9.966  0.00  0.00    +0.000 C 
ATOM     26  C   UNL     1      44.736   4.362   9.901  0.00  0.00    +0.000 C 
ENDBRANCH  19  21
ENDBRANCH  14  15
ENDBRANCH   5  14
TORSDOF 4
ENDMDL
MODEL 9
REMARK VINA RESULT:    -5.811      5.335      6.904
REMARK INTER + INTRA:          -7.689
REMARK INTER:                  -7.291
REMARK INTRA:                  -0.398
REMARK UNBOUND:                -0.518
REMARK  Name = 
REMARK  4 active torsions:
REMARK  status: ('A' for Active; 'I' for Inactive)
REMARK    1  A    between atoms: C_2  and  C_4
REMARK    2  A    between atoms: N_8  and  C_9
REMARK    3  A    between atoms: C_9  and  C_10
REMARK    4  A    between atoms: C_14  and  N_15
REMARK                            x       y       z     vdW  Elec       q    Type
REMARK                         _______ _______ _______ _____ _____    ______ ____
ROOT
ATOM      1  C   UNL     1      45.043   3.982  11.212  0.00  0.00    +0.000 A 
ATOM      2  C   UNL     1      45.326   2.991  12.117  0.00  0.00    +0.000 A 
ATOM      3  N   UNL     1      45.907   3.219  13.313  0.00  0.00    +0.000 NA
ATOM      4  C   UNL     1      46.226   4.488  13.610  0.00  0.00    +0.000 A 
ATOM      5  N   UNL     1      46.783   4.793  14.831  0.00  0.00    +0.000 N 
ATOM      6  N   UNL     1      46.001   5.523  12.791  0.00  0.00    +0.000 NA
ATOM      7  C   UNL     1      45.418   5.248  11.599  0.00  0.00    +0.000 A 
ATOM      8  H   UNL     1      47.175   5.726  14.783  0.00  0.00    +0.000 HD
ENDROOT
BRANCH   1  10
ATOM      9  N   UNL     1      43.806   4.793   9.284  0.00  0.00    +0.000 N 
ATOM     10  C   UNL     1      44.429   3.744   9.901  0.00  0.00    +0.000 C 
ATOM     11  O   UNL     1      44.487   2.641   9.373  0.00  0.00    +0.000 OA
ATOM     12  H   UNL     1      43.458   4.616   8.349  0.00  0.00    +0.000 HD
ATOM     13  H   UNL     1      43.942   5.759   9.548  0.00  0.00    +0.000 HD
ENDBRANCH   1  10
BRANCH   5  14
ATOM     14  C   UNL     1      47.630   3.782  15.432  0.00  0.00    +0.000 C 
BRANCH  14  15
ATOM     15  C   UNL     1      48.045   4.206  16.814  0.00  0.00    +0.000 A 
ATOM     16  C   UNL     1      47.160   4.854  17.662  0.00  0.00    +0.000 A 
ATOM     17  N   UNL     1      47.494   5.319  18.884  0.00  0.00    +0.000 NA
ATOM     18  C   UNL     1      48.787   5.141  19.267  0.00  0.00    +0.000 A 
ATOM     19  C   UNL     1      49.786   4.528  18.509  0.00  0.00    +0.000 A 
ATOM     20  C   UNL     1      49.369   4.075  17.256  0.00  0.00    +0.000 A 
BRANCH  19  21
ATOM     21  N   UNL     1      51.104   4.419  18.892  0.00  0.00    +0.000 N 
ATOM     22  C   UNL     1      52.144   3.880  18.010  0.00  0.00    +0.000 C 
ATOM     23  C   UNL     1      53.091   3.014  18.863  0.00  0.00    +0.000 C 
ATOM     24  O   UNL     1      53.660   3.764  19.951  0.00  0.00    +0.000 OA
ATOM     25  C   UNL     1      52.621   4.262  20.813  0.00  0.00    +0.000 C 
ATOM     26  C   UNL     1      51.633   5.160  20.051  0.00  0.00    +0.000 C 
ENDBRANCH  19  21
ENDBRANCH  14  15
ENDBRANCH   5  14
TORSDOF 4
ENDMDL
