MODEL 1
REMARK VINA RESULT:    -7.969      0.000      0.000
REMARK INTER + INTRA:         -11.714
REMARK INTER:                 -10.764
REMARK INTRA:                  -0.950
REMARK UNBOUND:                -0.950
REMARK  Name = 
REMARK  6 active torsions:
REMARK  status: ('A' for Active; 'I' for Inactive)
REMARK    1  A    between atoms: C_2  and  C_20
REMARK    2  A    between atoms: N_3  and  C_4
REMARK    3  A    between atoms: C_4  and  C_5
REMARK    4  A    between atoms: C_8  and  C_9
REMARK    5  A    between atoms: C_9  and  N_10
REMARK    6  A    between atoms: C_11  and  C_13
REMARK                            x       y       z     vdW  Elec       q    Type
REMARK                         _______ _______ _______ _____ _____    ______ ____
ROOT
ATOM      1  C   UNL     1      47.498   8.447  13.790  0.00  0.00    +0.000 C 
ENDROOT
BRANCH   1   2
ATOM      2  C   UNL     1      46.520   7.669  12.945  0.00  0.00    +0.000 A 
ATOM      3  C   UNL     1      46.628   6.277  12.822  0.00  0.00    +0.000 A 
ATOM      4  C   UNL     1      45.680   5.545  12.095  0.00  0.00    +0.000 A 
ATOM      5  C   UNL     1      44.614   6.190  11.454  0.00  0.00    +0.000 A 
ATOM      6  C   UNL     1      44.522   7.586  11.555  0.00  0.00    +0.000 A 
ATOM      7  C   UNL     1      45.469   8.317  12.283  0.00  0.00    +0.000 A 
BRANCH   5   8
ATOM      8  C   UNL     1      43.588   5.408  10.671  0.00  0.00    +0.000 C 
BRANCH   8   9
ATOM      9  N   UNL     1      44.156   4.723   9.534  0.00  0.00    +0.000 N 
ATOM     10  C   UNL     1      44.279   3.346   9.506  0.00  0.00    +0.000 C 
ATOM     11  O   UNL     1      43.865   2.619  10.404  0.00  0.00    +0.000 OA
ATOM     12  H   UNL     1      44.597   5.249   8.786  0.00  0.00    +0.000 HD
BRANCH  10  13
ATOM     13  C   UNL     1      44.898   2.809   8.202  0.00  0.00    +0.000 C 
ATOM     14  C   UNL     1      45.935   1.717   8.430  0.00  0.00    +0.000 C 
ATOM     15  C   UNL     1      46.862   1.896   7.253  0.00  0.00    +0.000 C 
ATOM     16  C   UNL     1      46.856   3.396   7.080  0.00  0.00    +0.000 C 
ATOM     17  O   UNL     1      45.541   3.845   7.437  0.00  0.00    +0.000 OA
ENDBRANCH  10  13
ENDBRANCH   8   9
ENDBRANCH   5   8
ENDBRANCH   1   2
BRANCH   1  20
ATOM     18  O   UNL     1      49.806   6.975  14.113  0.00  0.00    +0.000 OA
ATOM     19  C   UNL     1      49.074   7.116  15.090  0.00  0.00    +0.000 C 
ATOM     20  N   UNL     1      47.863   7.761  15.003  0.00  0.00    +0.000 N 
ATOM     21  H   UNL     1      47.381   8.035  15.855  0.00  0.00    +0.000 HD
BRANCH  19  22
ATOM     22  C   UNL     1      49.451   6.574  16.402  0.00  0.00    +0.000 A 
ATOM     23  C   UNL     1      50.460   7.184  17.138  0.00  0.00    +0.000 A 
ATOM     24  S   UNL     1      50.749   6.440  18.647  0.00  0.00    +0.000 S 
ATOM     25  C   UNL     1      49.507   5.306  18.388  0.00  0.00    +0.000 A 
ATOM     26  N   UNL     1      49.186   4.388  19.339  0.00  0.00    +0.000 NA
ATOM     27  C   UNL     1      48.198   3.620  19.026  0.00  0.00    +0.000 A 
ATOM     28  N   UNL     1      47.510   3.675  17.840  0.00  0.00    +0.000 N 
ATOM     29  C   UNL     1      47.830   4.551  16.831  0.00  0.00    +0.000 A 
ATOM     30  O   UNL     1      47.245   4.523  15.758  0.00  0.00    +0.000 OA
ATOM     31  C   UNL     1      48.907   5.468  17.151  0.00  0.00    +0.000 A 
ATOM     32  H   UNL     1      46.761   3.027  17.646  0.00  0.00    +0.000 HD
ENDBRANCH  19  22
ENDBRANCH   1  20
TORSDOF 6
ENDMDL
MODEL 2
REMARK VINA RESULT:    -7.714      2.057      3.604
REMARK INTER + INTRA:         -11.370
REMARK INTER:                 -10.252
REMARK INTRA:                  -1.119
REMARK UNBOUND:                -0.950
REMARK  Name = 
REMARK  6 active torsions:
REMARK  status: ('A' for Active; 'I' for Inactive)
REMARK    1  A    between atoms: C_2  and  C_20
REMARK    2  A    between atoms: N_3  and  C_4
REMARK    3  A    between atoms: C_4  and  C_5
REMARK    4  A    between atoms: C_8  and  C_9
REMARK    5  A    between atoms: C_9  and  N_10
REMARK    6  A    between atoms: C_11  and  C_13
REMARK                            x       y       z     vdW  Elec       q    Type
REMARK                         _______ _______ _______ _____ _____    ______ ____
ROOT
ATOM      1  C   UNL     1      47.128   4.463  15.200  0.00  0.00    +0.000 C 
ENDROOT
BRANCH   1   2
ATOM      2  C   UNL     1      46.368   4.498  13.897  0.00  0.00    +0.000 A 
ATOM      3  C   UNL     1      46.049   3.312  13.222  0.00  0.00    +0.000 A 
ATOM      4  C   UNL     1      45.283   3.339  12.048  0.00  0.00    +0.000 A 
ATOM      5  C   UNL     1      44.838   4.553  11.510  0.00  0.00    +0.000 A 
ATOM      6  C   UNL     1      45.181   5.741  12.172  0.00  0.00    +0.000 A 
ATOM      7  C   UNL     1      45.946   5.715  13.345  0.00  0.00    +0.000 A 
BRANCH   5   8
ATOM      8  C   UNL     1      44.012   4.589  10.248  0.00  0.00    +0.000 C 
BRANCH   8   9
ATOM      9  N   UNL     1      44.512   3.699   9.227  0.00  0.00    +0.000 N 
ATOM     10  C   UNL     1      45.515   4.085   8.359  0.00  0.00    +0.000 C 
ATOM     11  O   UNL     1      46.084   5.171   8.433  0.00  0.00    +0.000 OA
ATOM     12  H   UNL     1      44.044   2.817   9.043  0.00  0.00    +0.000 HD
BRANCH  10  13
ATOM     13  C   UNL     1      45.914   2.991   7.351  0.00  0.00    +0.000 C 
ATOM     14  C   UNL     1      46.267   1.662   8.009  0.00  0.00    +0.000 C 
ATOM     15  C   UNL     1      47.268   1.077   7.044  0.00  0.00    +0.000 C 
ATOM     16  C   UNL     1      48.004   2.310   6.575  0.00  0.00    +0.000 C 
ATOM     17  O   UNL     1      47.044   3.375   6.548  0.00  0.00    +0.000 OA
ENDBRANCH  10  13
ENDBRANCH   8   9
ENDBRANCH   5   8
ENDBRANCH   1   2
BRANCH   1  20
ATOM     18  O   UNL     1      49.357   4.748  16.797  0.00  0.00    +0.000 OA
ATOM     19  C   UNL     1      48.896   5.758  16.271  0.00  0.00    +0.000 C 
ATOM     20  N   UNL     1      47.739   5.727  15.528  0.00  0.00    +0.000 N 
ATOM     21  H   UNL     1      47.497   6.525  14.947  0.00  0.00    +0.000 HD
BRANCH  19  22
ATOM     22  C   UNL     1      49.551   7.062  16.434  0.00  0.00    +0.000 A 
ATOM     23  C   UNL     1      49.786   7.563  17.709  0.00  0.00    +0.000 A 
ATOM     24  S   UNL     1      50.579   9.075  17.713  0.00  0.00    +0.000 S 
ATOM     25  C   UNL     1      50.675   9.091  16.014  0.00  0.00    +0.000 A 
ATOM     26  N   UNL     1      51.299  10.106  15.357  0.00  0.00    +0.000 NA
ATOM     27  C   UNL     1      51.333   9.968  14.075  0.00  0.00    +0.000 A 
ATOM     28  N   UNL     1      50.787   8.914  13.387  0.00  0.00    +0.000 N 
ATOM     29  C   UNL     1      50.105   7.892  14.003  0.00  0.00    +0.000 A 
ATOM     30  O   UNL     1      49.565   7.008  13.354  0.00  0.00    +0.000 OA
ATOM     31  C   UNL     1      50.075   7.978  15.450  0.00  0.00    +0.000 A 
ATOM     32  H   UNL     1      50.826   8.878  12.379  0.00  0.00    +0.000 HD
ENDBRANCH  19  22
ENDBRANCH   1  20
TORSDOF 6
ENDMDL
MODEL 3
REMARK VINA RESULT:    -7.519      2.299      2.882
REMARK INTER + INTRA:         -11.107
REMARK INTER:                 -10.140
REMARK INTRA:                  -0.966
REMARK UNBOUND:                -0.950
REMARK  Name = 
REMARK  6 active torsions:
REMARK  status: ('A' for Active; 'I' for Inactive)
REMARK    1  A    between atoms: C_2  and  C_20
REMARK    2  A    between atoms: N_3  and  C_4
REMARK    3  A    between atoms: C_4  and  C_5
REMARK    4  A    between atoms: C_8  and  C_9
REMARK    5  A    between atoms: C_9  and  N_10
REMARK    6  A    between atoms: C_11  and  C_13
REMARK                            x       y       z     vdW  Elec       q    Type
REMARK                         _______ _______ _______ _____ _____    ______ ____
ROOT
ATOM      1  C   UNL     1      48.636   6.378  14.515  0.00  0.00    +0.000 C 
ENDROOT
BRANCH   1   2
ATOM      2  C   UNL     1      47.493   6.196  13.548  0.00  0.00    +0.000 A 
ATOM      3  C   UNL     1      47.396   6.989  12.396  0.00  0.00    +0.000 A 
ATOM      4  C   UNL     1      46.374   6.775  11.462  0.00  0.00    +0.000 A 
ATOM      5  C   UNL     1      45.411   5.778  11.668  0.00  0.00    +0.000 A 
ATOM      6  C   UNL     1      45.494   5.004  12.834  0.00  0.00    +0.000 A 
ATOM      7  C   UNL     1      46.516   5.217  13.768  0.00  0.00    +0.000 A 
BRANCH   5   8
ATOM      8  C   UNL     1      44.309   5.541  10.665  0.00  0.00    +0.000 C 
BRANCH   8   9
ATOM      9  N   UNL     1      44.752   4.788   9.516  0.00  0.00    +0.000 N 
ATOM     10  C   UNL     1      44.510   3.432   9.402  0.00  0.00    +0.000 C 
ATOM     11  O   UNL     1      43.860   2.797  10.227  0.00  0.00    +0.000 OA
ATOM     12  H   UNL     1      45.365   5.216   8.828  0.00  0.00    +0.000 HD
BRANCH  10  13
ATOM     13  C   UNL     1      45.053   2.816   8.099  0.00  0.00    +0.000 C 
ATOM     14  C   UNL     1      46.028   1.670   8.332  0.00  0.00    +0.000 C 
ATOM     15  C   UNL     1      46.925   1.753   7.122  0.00  0.00    +0.000 C 
ATOM     16  C   UNL     1      47.004   3.245   6.897  0.00  0.00    +0.000 C 
ATOM     17  O   UNL     1      45.731   3.785   7.279  0.00  0.00    +0.000 OA
ENDBRANCH  10  13
ENDBRANCH   8   9
ENDBRANCH   5   8
ENDBRANCH   1   2
BRANCH   1  20
ATOM     18  O   UNL     1      50.151   5.542  16.661  0.00  0.00    +0.000 OA
ATOM     19  C   UNL     1      49.066   6.067  16.896  0.00  0.00    +0.000 C 
ATOM     20  N   UNL     1      48.206   6.437  15.889  0.00  0.00    +0.000 N 
ATOM     21  H   UNL     1      47.418   7.043  16.104  0.00  0.00    +0.000 HD
BRANCH  19  22
ATOM     22  C   UNL     1      48.622   6.301  18.276  0.00  0.00    +0.000 A 
ATOM     23  C   UNL     1      48.690   5.273  19.209  0.00  0.00    +0.000 A 
ATOM     24  S   UNL     1      48.160   5.727  20.766  0.00  0.00    +0.000 S 
ATOM     25  C   UNL     1      47.863   7.324  20.259  0.00  0.00    +0.000 A 
ATOM     26  N   UNL     1      47.434   8.270  21.137  0.00  0.00    +0.000 NA
ATOM     27  C   UNL     1      47.290   9.446  20.626  0.00  0.00    +0.000 A 
ATOM     28  N   UNL     1      47.523   9.760  19.311  0.00  0.00    +0.000 N 
ATOM     29  C   UNL     1      47.910   8.828  18.377  0.00  0.00    +0.000 A 
ATOM     30  O   UNL     1      48.036   9.127  17.199  0.00  0.00    +0.000 OA
ATOM     31  C   UNL     1      48.127   7.498  18.911  0.00  0.00    +0.000 A 
ATOM     32  H   UNL     1      47.368  10.696  18.967  0.00  0.00    +0.000 HD
ENDBRANCH  19  22
ENDBRANCH   1  20
TORSDOF 6
ENDMDL
MODEL 4
REMARK VINA RESULT:    -7.475      2.376      3.246
REMARK INTER + INTRA:         -11.048
REMARK INTER:                 -10.203
REMARK INTRA:                  -0.845
REMARK UNBOUND:                -0.950
REMARK  Name = 
REMARK  6 active torsions:
REMARK  status: ('A' for Active; 'I' for Inactive)
REMARK    1  A    between atoms: C_2  and  C_20
REMARK    2  A    between atoms: N_3  and  C_4
REMARK    3  A    between atoms: C_4  and  C_5
REMARK    4  A    between atoms: C_8  and  C_9
REMARK    5  A    between atoms: C_9  and  N_10
REMARK    6  A    between atoms: C_11  and  C_13
REMARK                            x       y       z     vdW  Elec       q    Type
REMARK                         _______ _______ _______ _____ _____    ______ ____
ROOT
ATOM      1  C   UNL     1      47.222   4.518  15.170  0.00  0.00    +0.000 C 
ENDROOT
BRANCH   1   2
ATOM      2  C   UNL     1      46.436   4.539  13.882  0.00  0.00    +0.000 A 
ATOM      3  C   UNL     1      46.099   3.346  13.229  0.00  0.00    +0.000 A 
ATOM      4  C   UNL     1      45.310   3.360  12.070  0.00  0.00    +0.000 A 
ATOM      5  C   UNL     1      44.858   4.569  11.526  0.00  0.00    +0.000 A 
ATOM      6  C   UNL     1      45.218   5.764  12.166  0.00  0.00    +0.000 A 
ATOM      7  C   UNL     1      46.006   5.750  13.324  0.00  0.00    +0.000 A 
BRANCH   5   8
ATOM      8  C   UNL     1      44.006   4.592  10.281  0.00  0.00    +0.000 C 
BRANCH   8   9
ATOM      9  N   UNL     1      44.503   3.715   9.247  0.00  0.00    +0.000 N 
ATOM     10  C   UNL     1      45.513   4.106   8.390  0.00  0.00    +0.000 C 
ATOM     11  O   UNL     1      46.090   5.186   8.483  0.00  0.00    +0.000 OA
ATOM     12  H   UNL     1      44.029   2.839   9.047  0.00  0.00    +0.000 HD
BRANCH  10  13
ATOM     13  C   UNL     1      45.907   3.025   7.366  0.00  0.00    +0.000 C 
ATOM     14  C   UNL     1      46.255   1.686   8.004  0.00  0.00    +0.000 C 
ATOM     15  C   UNL     1      47.253   1.111   7.030  0.00  0.00    +0.000 C 
ATOM     16  C   UNL     1      47.994   2.347   6.579  0.00  0.00    +0.000 C 
ATOM     17  O   UNL     1      47.038   3.417   6.568  0.00  0.00    +0.000 OA
ENDBRANCH  10  13
ENDBRANCH   8   9
ENDBRANCH   5   8
ENDBRANCH   1   2
BRANCH   1  20
ATOM     18  O   UNL     1      49.408   4.985  16.783  0.00  0.00    +0.000 OA
ATOM     19  C   UNL     1      48.818   5.959  16.320  0.00  0.00    +0.000 C 
ATOM     20  N   UNL     1      47.669   5.826  15.577  0.00  0.00    +0.000 N 
ATOM     21  H   UNL     1      47.323   6.621  15.047  0.00  0.00    +0.000 HD
BRANCH  19  22
ATOM     22  C   UNL     1      49.303   7.323  16.566  0.00  0.00    +0.000 A 
ATOM     23  C   UNL     1      50.237   7.890  15.708  0.00  0.00    +0.000 A 
ATOM     24  S   UNL     1      50.668   9.488  16.127  0.00  0.00    +0.000 S 
ATOM     25  C   UNL     1      49.587   9.493  17.441  0.00  0.00    +0.000 A 
ATOM     26  N   UNL     1      49.423  10.604  18.209  0.00  0.00    +0.000 NA
ATOM     27  C   UNL     1      48.543  10.479  19.144  0.00  0.00    +0.000 A 
ATOM     28  N   UNL     1      47.821   9.339  19.391  0.00  0.00    +0.000 N 
ATOM     29  C   UNL     1      47.988   8.178  18.675  0.00  0.00    +0.000 A 
ATOM     30  O   UNL     1      47.384   7.158  18.970  0.00  0.00    +0.000 OA
ATOM     31  C   UNL     1      48.937   8.279  17.583  0.00  0.00    +0.000 A 
ATOM     32  H   UNL     1      47.163   9.298  20.156  0.00  0.00    +0.000 HD
ENDBRANCH  19  22
ENDBRANCH   1  20
TORSDOF 6
ENDMDL
MODEL 5
REMARK VINA RESULT:    -7.469      4.594      9.546
REMARK INTER + INTRA:         -11.039
REMARK INTER:                 -10.150
REMARK INTRA:                  -0.890
REMARK UNBOUND:                -0.950
REMARK  Name = 
REMARK  6 active torsions:
REMARK  status: ('A' for Active; 'I' for Inactive)
REMARK    1  A    between atoms: C_2  and  C_20
REMARK    2  A    between atoms: N_3  and  C_4
REMARK    3  A    between atoms: C_4  and  C_5
REMARK    4  A    between atoms: C_8  and  C_9
REMARK    5  A    between atoms: C_9  and  N_10
REMARK    6  A    between atoms: C_11  and  C_13
REMARK                            x       y       z     vdW  Elec       q    Type
REMARK                         _______ _______ _______ _____ _____    ______ ____
ROOT
ATOM      1  C   UNL     1      47.218   3.460  16.636  0.00  0.00    +0.000 C 
ENDROOT
BRANCH   1   2
ATOM      2  C   UNL     1      48.671   3.582  17.025  0.00  0.00    +0.000 A 
ATOM      3  C   UNL     1      49.494   2.449  17.086  0.00  0.00    +0.000 A 
ATOM      4  C   UNL     1      50.859   2.570  17.380  0.00  0.00    +0.000 A 
ATOM      5  C   UNL     1      51.428   3.823  17.643  0.00  0.00    +0.000 A 
ATOM      6  C   UNL     1      50.597   4.952  17.608  0.00  0.00    +0.000 A 
ATOM      7  C   UNL     1      49.233   4.832  17.314  0.00  0.00    +0.000 A 
BRANCH   5   8
ATOM      8  C   UNL     1      52.897   3.960  17.958  0.00  0.00    +0.000 C 
BRANCH   8   9
ATOM      9  N   UNL     1      53.617   2.717  17.818  0.00  0.00    +0.000 N 
ATOM     10  C   UNL     1      54.115   2.042  18.917  0.00  0.00    +0.000 C 
ATOM     11  O   UNL     1      53.931   2.415  20.072  0.00  0.00    +0.000 OA
ATOM     12  H   UNL     1      53.885   2.380  16.898  0.00  0.00    +0.000 HD
BRANCH  10  13
ATOM     13  C   UNL     1      54.842   0.732  18.559  0.00  0.00    +0.000 C 
ATOM     14  C   UNL     1      54.481   0.198  17.178  0.00  0.00    +0.000 C 
ATOM     15  C   UNL     1      54.652  -1.291  17.351  0.00  0.00    +0.000 C 
ATOM     16  C   UNL     1      54.183  -1.494  18.772  0.00  0.00    +0.000 C 
ATOM     17  O   UNL     1      54.566  -0.319  19.501  0.00  0.00    +0.000 OA
ENDBRANCH  10  13
ENDBRANCH   8   9
ENDBRANCH   5   8
ENDBRANCH   1   2
BRANCH   1  20
ATOM     18  O   UNL     1      47.213   3.186  13.893  0.00  0.00    +0.000 OA
ATOM     19  C   UNL     1      46.757   4.224  14.366  0.00  0.00    +0.000 C 
ATOM     20  N   UNL     1      46.795   4.485  15.716  0.00  0.00    +0.000 N 
ATOM     21  H   UNL     1      46.237   5.246  16.092  0.00  0.00    +0.000 HD
BRANCH  19  22
ATOM     22  C   UNL     1      46.168   5.254  13.501  0.00  0.00    +0.000 A 
ATOM     23  C   UNL     1      46.917   6.367  13.141  0.00  0.00    +0.000 A 
ATOM     24  S   UNL     1      46.087   7.446  12.113  0.00  0.00    +0.000 S 
ATOM     25  C   UNL     1      44.714   6.442  12.077  0.00  0.00    +0.000 A 
ATOM     26  N   UNL     1      43.630   6.763  11.319  0.00  0.00    +0.000 NA
ATOM     27  C   UNL     1      42.679   5.892  11.354  0.00  0.00    +0.000 A 
ATOM     28  N   UNL     1      42.706   4.734  12.089  0.00  0.00    +0.000 N 
ATOM     29  C   UNL     1      43.757   4.392  12.907  0.00  0.00    +0.000 A 
ATOM     30  O   UNL     1      43.716   3.391  13.607  0.00  0.00    +0.000 OA
ATOM     31  C   UNL     1      44.872   5.319  12.870  0.00  0.00    +0.000 A 
ATOM     32  H   UNL     1      41.917   4.104  12.093  0.00  0.00    +0.000 HD
ENDBRANCH  19  22
ENDBRANCH   1  20
TORSDOF 6
ENDMDL
MODEL 6
REMARK VINA RESULT:    -7.125      1.960      3.203
REMARK INTER + INTRA:         -10.574
REMARK INTER:                  -9.616
REMARK INTRA:                  -0.958
REMARK UNBOUND:                -0.950
REMARK  Name = 
REMARK  6 active torsions:
REMARK  status: ('A' for Active; 'I' for Inactive)
REMARK    1  A    between atoms: C_2  and  C_20
REMARK    2  A    between atoms: N_3  and  C_4
REMARK    3  A    between atoms: C_4  and  C_5
REMARK    4  A    between atoms: C_8  and  C_9
REMARK    5  A    between atoms: C_9  and  N_10
REMARK    6  A    between atoms: C_11  and  C_13
REMARK                            x       y       z     vdW  Elec       q    Type
REMARK                         _______ _______ _______ _____ _____    ______ ____
ROOT
ATOM      1  C   UNL     1      47.194   4.350  15.740  0.00  0.00    +0.000 C 
ENDROOT
BRANCH   1   2
ATOM      2  C   UNL     1      46.800   4.792  14.352  0.00  0.00    +0.000 A 
ATOM      3  C   UNL     1      45.727   4.187  13.685  0.00  0.00    +0.000 A 
ATOM      4  C   UNL     1      45.316   4.643  12.425  0.00  0.00    +0.000 A 
ATOM      5  C   UNL     1      45.983   5.699  11.792  0.00  0.00    +0.000 A 
ATOM      6  C   UNL     1      47.074   6.287  12.449  0.00  0.00    +0.000 A 
ATOM      7  C   UNL     1      47.485   5.832  13.709  0.00  0.00    +0.000 A 
BRANCH   5   8
ATOM      8  C   UNL     1      45.545   6.197  10.437  0.00  0.00    +0.000 C 
BRANCH   8   9
ATOM      9  N   UNL     1      45.815   5.251   9.380  0.00  0.00    +0.000 N 
ATOM     10  C   UNL     1      44.846   4.376   8.927  0.00  0.00    +0.000 C 
ATOM     11  O   UNL     1      43.691   4.383   9.343  0.00  0.00    +0.000 OA
ATOM     12  H   UNL     1      46.762   5.122   9.038  0.00  0.00    +0.000 HD
BRANCH  10  13
ATOM     13  C   UNL     1      45.329   3.457   7.789  0.00  0.00    +0.000 C 
ATOM     14  C   UNL     1      45.830   2.103   8.276  0.00  0.00    +0.000 C 
ATOM     15  C   UNL     1      46.861   1.743   7.236  0.00  0.00    +0.000 C 
ATOM     16  C   UNL     1      47.458   3.092   6.912  0.00  0.00    +0.000 C 
ATOM     17  O   UNL     1      46.395   4.049   7.026  0.00  0.00    +0.000 OA
ENDBRANCH  10  13
ENDBRANCH   8   9
ENDBRANCH   5   8
ENDBRANCH   1   2
BRANCH   1  20
ATOM     18  O   UNL     1      48.007   4.086  18.360  0.00  0.00    +0.000 OA
ATOM     19  C   UNL     1      48.218   5.159  17.800  0.00  0.00    +0.000 C 
ATOM     20  N   UNL     1      47.773   5.412  16.524  0.00  0.00    +0.000 N 
ATOM     21  H   UNL     1      48.131   6.219  16.022  0.00  0.00    +0.000 HD
BRANCH  19  22
ATOM     22  C   UNL     1      48.938   6.240  18.485  0.00  0.00    +0.000 A 
ATOM     23  C   UNL     1      48.608   6.571  19.793  0.00  0.00    +0.000 A 
ATOM     24  S   UNL     1      49.561   7.830  20.441  0.00  0.00    +0.000 S 
ATOM     25  C   UNL     1      50.478   7.945  19.012  0.00  0.00    +0.000 A 
ATOM     26  N   UNL     1      51.519   8.815  18.915  0.00  0.00    +0.000 NA
ATOM     27  C   UNL     1      52.151   8.766  17.791  0.00  0.00    +0.000 A 
ATOM     28  N   UNL     1      51.826   7.937  16.747  0.00  0.00    +0.000 N 
ATOM     29  C   UNL     1      50.754   7.078  16.780  0.00  0.00    +0.000 A 
ATOM     30  O   UNL     1      50.448   6.408  15.805  0.00  0.00    +0.000 OA
ATOM     31  C   UNL     1      50.036   7.063  18.040  0.00  0.00    +0.000 A 
ATOM     32  H   UNL     1      52.347   7.965  15.882  0.00  0.00    +0.000 HD
ENDBRANCH  19  22
ENDBRANCH   1  20
TORSDOF 6
ENDMDL
MODEL 7
REMARK VINA RESULT:    -6.964      1.229      1.762
REMARK INTER + INTRA:         -10.357
REMARK INTER:                  -9.428
REMARK INTRA:                  -0.930
REMARK UNBOUND:                -0.950
REMARK  Name = 
REMARK  6 active torsions:
REMARK  status: ('A' for Active; 'I' for Inactive)
REMARK    1  A    between atoms: C_2  and  C_20
REMARK    2  A    between atoms: N_3  and  C_4
REMARK    3  A    between atoms: C_4  and  C_5
REMARK    4  A    between atoms: C_8  and  C_9
REMARK    5  A    between atoms: C_9  and  N_10
REMARK    6  A    between atoms: C_11  and  C_13
REMARK                            x       y       z     vdW  Elec       q    Type
REMARK                         _______ _______ _______ _____ _____    ______ ____
ROOT
ATOM      1  C   UNL     1      49.369   7.756  14.270  0.00  0.00    +0.000 C 
ENDROOT
BRANCH   1   2
ATOM      2  C   UNL     1      48.084   7.401  13.563  0.00  0.00    +0.000 A 
ATOM      3  C   UNL     1      47.028   8.319  13.492  0.00  0.00    +0.000 A 
ATOM      4  C   UNL     1      45.861   8.017  12.777  0.00  0.00    +0.000 A 
ATOM      5  C   UNL     1      45.714   6.781  12.135  0.00  0.00    +0.000 A 
ATOM      6  C   UNL     1      46.761   5.852  12.229  0.00  0.00    +0.000 A 
ATOM      7  C   UNL     1      47.927   6.154  12.943  0.00  0.00    +0.000 A 
BRANCH   5   8
ATOM      8  C   UNL     1      44.461   6.450  11.361  0.00  0.00    +0.000 C 
BRANCH   8   9
ATOM      9  N   UNL     1      44.706   5.546  10.262  0.00  0.00    +0.000 N 
ATOM     10  C   UNL     1      44.049   4.335  10.162  0.00  0.00    +0.000 C 
ATOM     11  O   UNL     1      43.183   3.975  10.954  0.00  0.00    +0.000 OA
ATOM     12  H   UNL     1      45.462   5.727   9.609  0.00  0.00    +0.000 HD
BRANCH  10  13
ATOM     13  C   UNL     1      44.441   3.523   8.913  0.00  0.00    +0.000 C 
ATOM     14  C   UNL     1      45.226   2.257   9.235  0.00  0.00    +0.000 C 
ATOM     15  C   UNL     1      46.082   2.083   8.006  0.00  0.00    +0.000 C 
ATOM     16  C   UNL     1      46.394   3.515   7.640  0.00  0.00    +0.000 C 
ATOM     17  O   UNL     1      45.238   4.289   7.993  0.00  0.00    +0.000 OA
ENDBRANCH  10  13
ENDBRANCH   8   9
ENDBRANCH   5   8
ENDBRANCH   1   2
BRANCH   1  20
ATOM     18  O   UNL     1      51.692   7.116  15.609  0.00  0.00    +0.000 OA
ATOM     19  C   UNL     1      50.634   7.045  16.231  0.00  0.00    +0.000 C 
ATOM     20  N   UNL     1      49.420   7.263  15.624  0.00  0.00    +0.000 N 
ATOM     21  H   UNL     1      48.592   7.395  16.198  0.00  0.00    +0.000 HD
BRANCH  19  22
ATOM     22  C   UNL     1      50.618   6.697  17.657  0.00  0.00    +0.000 A 
ATOM     23  C   UNL     1      51.387   7.425  18.556  0.00  0.00    +0.000 A 
ATOM     24  S   UNL     1      51.227   6.901  20.173  0.00  0.00    +0.000 S 
ATOM     25  C   UNL     1      50.090   5.714  19.733  0.00  0.00    +0.000 A 
ATOM     26  N   UNL     1      49.499   4.927  20.672  0.00  0.00    +0.000 NA
ATOM     27  C   UNL     1      48.627   4.100  20.203  0.00  0.00    +0.000 A 
ATOM     28  N   UNL     1      48.302   3.977  18.875  0.00  0.00    +0.000 N 
ATOM     29  C   UNL     1      48.908   4.714  17.886  0.00  0.00    +0.000 A 
ATOM     30  O   UNL     1      48.649   4.526  16.706  0.00  0.00    +0.000 OA
ATOM     31  C   UNL     1      49.866   5.690  18.367  0.00  0.00    +0.000 A 
ATOM     32  H   UNL     1      47.628   3.291  18.569  0.00  0.00    +0.000 HD
ENDBRANCH  19  22
ENDBRANCH   1  20
TORSDOF 6
ENDMDL
MODEL 8
REMARK VINA RESULT:    -6.946      1.669      2.420
REMARK INTER + INTRA:         -10.333
REMARK INTER:                  -9.366
REMARK INTRA:                  -0.967
REMARK UNBOUND:                -0.950
REMARK  Name = 
REMARK  6 active torsions:
REMARK  status: ('A' for Active; 'I' for Inactive)
REMARK    1  A    between atoms: C_2  and  C_20
REMARK    2  A    between atoms: N_3  and  C_4
REMARK    3  A    between atoms: C_4  and  C_5
REMARK    4  A    between atoms: C_8  and  C_9
REMARK    5  A    between atoms: C_9  and  N_10
REMARK    6  A    between atoms: C_11  and  C_13
REMARK                            x       y       z     vdW  Elec       q    Type
REMARK                         _______ _______ _______ _____ _____    ______ ____
ROOT
ATOM      1  C   UNL     1      48.414   8.133  13.839  0.00  0.00    +0.000 C 
ENDROOT
BRANCH   1   2
ATOM      2  C   UNL     1      47.239   7.542  13.101  0.00  0.00    +0.000 A 
ATOM      3  C   UNL     1      46.009   8.213  13.055  0.00  0.00    +0.000 A 
ATOM      4  C   UNL     1      44.938   7.698  12.313  0.00  0.00    +0.000 A 
ATOM      5  C   UNL     1      45.064   6.490  11.616  0.00  0.00    +0.000 A 
ATOM      6  C   UNL     1      46.286   5.806  11.684  0.00  0.00    +0.000 A 
ATOM      7  C   UNL     1      47.357   6.320  12.425  0.00  0.00    +0.000 A 
BRANCH   5   8
ATOM      8  C   UNL     1      43.915   5.931  10.812  0.00  0.00    +0.000 C 
BRANCH   8   9
ATOM      9  N   UNL     1      44.352   5.109   9.709  0.00  0.00    +0.000 N 
ATOM     10  C   UNL     1      44.177   3.739   9.714  0.00  0.00    +0.000 C 
ATOM     11  O   UNL     1      43.594   3.141  10.615  0.00  0.00    +0.000 OA
ATOM     12  H   UNL     1      44.914   5.509   8.964  0.00  0.00    +0.000 HD
BRANCH  10  13
ATOM     13  C   UNL     1      44.701   3.045   8.443  0.00  0.00    +0.000 C 
ATOM     14  C   UNL     1      45.671   1.907   8.730  0.00  0.00    +0.000 C 
ATOM     15  C   UNL     1      46.554   1.915   7.507  0.00  0.00    +0.000 C 
ATOM     16  C   UNL     1      46.642   3.390   7.197  0.00  0.00    +0.000 C 
ATOM     17  O   UNL     1      45.377   3.961   7.562  0.00  0.00    +0.000 OA
ENDBRANCH  10  13
ENDBRANCH   8   9
ENDBRANCH   5   8
ENDBRANCH   1   2
BRANCH   1  20
ATOM     18  O   UNL     1      48.285   8.478  16.571  0.00  0.00    +0.000 OA
ATOM     19  C   UNL     1      48.801   7.447  16.147  0.00  0.00    +0.000 C 
ATOM     20  N   UNL     1      48.986   7.227  14.803  0.00  0.00    +0.000 N 
ATOM     21  H   UNL     1      49.226   6.294  14.478  0.00  0.00    +0.000 HD
BRANCH  19  22
ATOM     22  C   UNL     1      49.273   6.405  17.067  0.00  0.00    +0.000 A 
ATOM     23  C   UNL     1      48.366   5.742  17.886  0.00  0.00    +0.000 A 
ATOM     24  S   UNL     1      49.082   4.546  18.870  0.00  0.00    +0.000 S 
ATOM     25  C   UNL     1      50.620   4.840  18.204  0.00  0.00    +0.000 A 
ATOM     26  N   UNL     1      51.700   4.103  18.581  0.00  0.00    +0.000 NA
ATOM     27  C   UNL     1      52.793   4.407  17.966  0.00  0.00    +0.000 A 
ATOM     28  N   UNL     1      52.908   5.392  17.018  0.00  0.00    +0.000 N 
ATOM     29  C   UNL     1      51.858   6.195  16.642  0.00  0.00    +0.000 A 
ATOM     30  O   UNL     1      52.013   7.113  15.850  0.00  0.00    +0.000 OA
ATOM     31  C   UNL     1      50.595   5.865  17.274  0.00  0.00    +0.000 A 
ATOM     32  H   UNL     1      53.800   5.597  16.591  0.00  0.00    +0.000 HD
ENDBRANCH  19  22
ENDBRANCH   1  20
TORSDOF 6
ENDMDL
MODEL 9
REMARK VINA RESULT:    -6.736      4.809      8.035
REMARK INTER + INTRA:         -10.049
REMARK INTER:                  -9.037
REMARK INTRA:                  -1.012
REMARK UNBOUND:                -0.950
REMARK  Name = 
REMARK  6 active torsions:
REMARK  status: ('A' for Active; 'I' for Inactive)
REMARK    1  A    between atoms: C_2  and  C_20
REMARK    2  A    between atoms: N_3  and  C_4
REMARK    3  A    between atoms: C_4  and  C_5
REMARK    4  A    between atoms: C_8  and  C_9
REMARK    5  A    between atoms: C_9  and  N_10
REMARK    6  A    between atoms: C_11  and  C_13
REMARK                            x       y       z     vdW  Elec       q    Type
REMARK                         _______ _______ _______ _____ _____    ______ ____
ROOT
ATOM      1  C   UNL     1      46.388   8.361  12.133  0.00  0.00    +0.000 C 
ENDROOT
BRANCH   1   2
ATOM      2  C   UNL     1      47.851   8.580  11.835  0.00  0.00    +0.000 A 
ATOM      3  C   UNL     1      48.382   9.875  11.768  0.00  0.00    +0.000 A 
ATOM      4  C   UNL     1      49.753  10.078  11.560  0.00  0.00    +0.000 A 
ATOM      5  C   UNL     1      50.622   8.992  11.392  0.00  0.00    +0.000 A 
ATOM      6  C   UNL     1      50.084   7.697  11.433  0.00  0.00    +0.000 A 
ATOM      7  C   UNL     1      48.714   7.494  11.641  0.00  0.00    +0.000 A 
BRANCH   5   8
ATOM      8  C   UNL     1      52.099   9.204  11.170  0.00  0.00    +0.000 C 
BRANCH   8   9
ATOM      9  N   UNL     1      52.653   8.300  10.190  0.00  0.00    +0.000 N 
ATOM     10  C   UNL     1      52.878   8.696   8.886  0.00  0.00    +0.000 C 
ATOM     11  O   UNL     1      52.684   9.843   8.492  0.00  0.00    +0.000 OA
ATOM     12  H   UNL     1      52.766   7.314  10.409  0.00  0.00    +0.000 HD
BRANCH  10  13
ATOM     13  C   UNL     1      53.482   7.590   8.001  0.00  0.00    +0.000 C 
ATOM     14  C   UNL     1      52.434   6.725   7.314  0.00  0.00    +0.000 C 
ATOM     15  C   UNL     1      53.142   5.399   7.180  0.00  0.00    +0.000 C 
ATOM     16  C   UNL     1      53.954   5.352   8.453  0.00  0.00    +0.000 C 
ATOM     17  O   UNL     1      54.337   6.703   8.744  0.00  0.00    +0.000 OA
ENDBRANCH  10  13
ENDBRANCH   8   9
ENDBRANCH   5   8
ENDBRANCH   1   2
BRANCH   1  20
ATOM     18  O   UNL     1      43.875   7.515  11.381  0.00  0.00    +0.000 OA
ATOM     19  C   UNL     1      44.737   6.659  11.563  0.00  0.00    +0.000 C 
ATOM     20  N   UNL     1      45.993   6.979  12.021  0.00  0.00    +0.000 N 
ATOM     21  H   UNL     1      46.735   6.286  11.969  0.00  0.00    +0.000 HD
BRANCH  19  22
ATOM     22  C   UNL     1      44.454   5.238  11.323  0.00  0.00    +0.000 A 
ATOM     23  C   UNL     1      43.651   4.533  12.211  0.00  0.00    +0.000 A 
ATOM     24  S   UNL     1      43.406   2.904  11.764  0.00  0.00    +0.000 S 
ATOM     25  C   UNL     1      44.327   3.097  10.346  0.00  0.00    +0.000 A 
ATOM     26  N   UNL     1      44.476   2.073   9.462  0.00  0.00    +0.000 NA
ATOM     27  C   UNL     1      45.163   2.372   8.412  0.00  0.00    +0.000 A 
ATOM     28  N   UNL     1      45.729   3.599   8.171  0.00  0.00    +0.000 N 
ATOM     29  C   UNL     1      45.647   4.647   9.057  0.00  0.00    +0.000 A 
ATOM     30  O   UNL     1      46.226   5.702   8.846  0.00  0.00    +0.000 OA
ATOM     31  C   UNL     1      44.847   4.375  10.235  0.00  0.00    +0.000 A 
ATOM     32  H   UNL     1      46.278   3.761   7.340  0.00  0.00    +0.000 HD
ENDBRANCH  19  22
ENDBRANCH   1  20
TORSDOF 6
ENDMDL
