MODEL 1
REMARK VINA RESULT:    -8.015      0.000      0.000
REMARK INTER + INTRA:         -12.868
REMARK INTER:                 -11.529
REMARK INTRA:                  -1.339
REMARK UNBOUND:                -1.339
REMARK  Name = 
REMARK  8 active torsions:
REMARK  status: ('A' for Active; 'I' for Inactive)
REMARK    1  A    between atoms: C_2  and  C_20
REMARK    2  A    between atoms: N_3  and  C_4
REMARK    3  A    between atoms: C_4  and  C_5
REMARK    4  A    between atoms: C_8  and  C_9
REMARK    5  A    between atoms: C_9  and  O_10
REMARK    6  A    between atoms: C_9  and  C_11
REMARK    7  A    between atoms: C_11  and  C_12
REMARK    8  A    between atoms: C_12  and  N_13
REMARK                            x       y       z     vdW  Elec       q    Type
REMARK                         _______ _______ _______ _____ _____    ______ ____
ROOT
ATOM      1  C   UNL     1      47.167   7.465  13.295  0.00  0.00    +0.000 C 
ENDROOT
BRANCH   1   2
ATOM      2  C   UNL     1      46.319   6.554  12.451  0.00  0.00    +0.000 A 
ATOM      3  C   UNL     1      46.438   6.544  11.056  0.00  0.00    +0.000 A 
ATOM      4  C   UNL     1      45.671   5.666  10.281  0.00  0.00    +0.000 A 
ATOM      5  C   UNL     1      44.756   4.789  10.883  0.00  0.00    +0.000 A 
ATOM      6  C   UNL     1      44.654   4.799  12.282  0.00  0.00    +0.000 A 
ATOM      7  C   UNL     1      45.402   5.689  13.053  0.00  0.00    +0.000 A 
BRANCH   5   8
ATOM      8  C   UNL     1      43.918   3.859  10.022  0.00  0.00    +0.000 C 
BRANCH   8   9
ATOM      9  O   UNL     1      43.741   4.480   8.745  0.00  0.00    +0.000 OA
ATOM     10  H   UNL     1      44.466   5.120   8.632  0.00  0.00    +0.000 HD
ENDBRANCH   8   9
BRANCH   8  11
ATOM     11  C   UNL     1      44.512   2.460   9.779  0.00  0.00    +0.000 C 
BRANCH  11  12
ATOM     12  C   UNL     1      45.004   2.254   8.338  0.00  0.00    +0.000 C 
BRANCH  12  13
ATOM     13  N   UNL     1      46.446   2.512   8.156  0.00  0.00    +0.000 NA
ATOM     14  C   UNL     1      46.657   3.687   7.291  0.00  0.00    +0.000 C 
ATOM     15  C   UNL     1      46.705   3.134   5.879  0.00  0.00    +0.000 C 
ATOM     16  C   UNL     1      47.445   1.825   6.052  0.00  0.00    +0.000 C 
ATOM     17  C   UNL     1      47.183   1.417   7.499  0.00  0.00    +0.000 C 
ENDBRANCH  12  13
ENDBRANCH  11  12
ENDBRANCH   8  11
ENDBRANCH   5   8
ENDBRANCH   1   2
BRANCH   1  20
ATOM     18  O   UNL     1      49.764   7.013  14.251  0.00  0.00    +0.000 OA
ATOM     19  C   UNL     1      48.812   6.714  14.965  0.00  0.00    +0.000 C 
ATOM     20  N   UNL     1      47.516   6.865  14.555  0.00  0.00    +0.000 N 
ATOM     21  H   UNL     1      46.759   6.745  15.221  0.00  0.00    +0.000 HD
BRANCH  19  22
ATOM     22  C   UNL     1      49.011   6.138  16.297  0.00  0.00    +0.000 A 
ATOM     23  C   UNL     1      49.756   6.829  17.240  0.00  0.00    +0.000 A 
ATOM     24  S   UNL     1      49.849   6.036  18.748  0.00  0.00    +0.000 S 
ATOM     25  C   UNL     1      48.866   4.761  18.198  0.00  0.00    +0.000 A 
ATOM     26  N   UNL     1      48.499   3.750  19.031  0.00  0.00    +0.000 NA
ATOM     27  C   UNL     1      47.717   2.873  18.494  0.00  0.00    +0.000 A 
ATOM     28  N   UNL     1      47.292   2.900  17.190  0.00  0.00    +0.000 N 
ATOM     29  C   UNL     1      47.720   3.847  16.290  0.00  0.00    +0.000 A 
ATOM     30  O   UNL     1      47.452   3.744  15.092  0.00  0.00    +0.000 OA
ATOM     31  C   UNL     1      48.524   4.905  16.866  0.00  0.00    +0.000 A 
ATOM     32  H   UNL     1      46.722   2.155  16.818  0.00  0.00    +0.000 HD
ENDBRANCH  19  22
ENDBRANCH   1  20
TORSDOF 8
ENDMDL
MODEL 2
REMARK VINA RESULT:    -7.506      1.907      2.460
REMARK INTER + INTRA:         -12.136
REMARK INTER:                 -11.058
REMARK INTRA:                  -1.078
REMARK UNBOUND:                -1.339
REMARK  Name = 
REMARK  8 active torsions:
REMARK  status: ('A' for Active; 'I' for Inactive)
REMARK    1  A    between atoms: C_2  and  C_20
REMARK    2  A    between atoms: N_3  and  C_4
REMARK    3  A    between atoms: C_4  and  C_5
REMARK    4  A    between atoms: C_8  and  C_9
REMARK    5  A    between atoms: C_9  and  O_10
REMARK    6  A    between atoms: C_9  and  C_11
REMARK    7  A    between atoms: C_11  and  C_12
REMARK    8  A    between atoms: C_12  and  N_13
REMARK                            x       y       z     vdW  Elec       q    Type
REMARK                         _______ _______ _______ _____ _____    ______ ____
ROOT
ATOM      1  C   UNL     1      47.979   6.737  13.664  0.00  0.00    +0.000 C 
ENDROOT
BRANCH   1   2
ATOM      2  C   UNL     1      46.918   6.047  12.852  0.00  0.00    +0.000 A 
ATOM      3  C   UNL     1      46.530   6.543  11.601  0.00  0.00    +0.000 A 
ATOM      4  C   UNL     1      45.568   5.874  10.835  0.00  0.00    +0.000 A 
ATOM      5  C   UNL     1      44.959   4.703  11.311  0.00  0.00    +0.000 A 
ATOM      6  C   UNL     1      45.364   4.209  12.559  0.00  0.00    +0.000 A 
ATOM      7  C   UNL     1      46.307   4.886  13.333  0.00  0.00    +0.000 A 
BRANCH   5   8
ATOM      8  C   UNL     1      43.902   4.005  10.473  0.00  0.00    +0.000 C 
BRANCH   8   9
ATOM      9  O   UNL     1      43.708   4.769   9.279  0.00  0.00    +0.000 OA
ATOM     10  H   UNL     1      44.092   4.259   8.544  0.00  0.00    +0.000 HD
ENDBRANCH   8   9
BRANCH   8  11
ATOM     11  C   UNL     1      44.232   2.561  10.051  0.00  0.00    +0.000 C 
BRANCH  11  12
ATOM     12  C   UNL     1      44.689   2.450   8.587  0.00  0.00    +0.000 C 
BRANCH  12  13
ATOM     13  N   UNL     1      46.148   2.574   8.405  0.00  0.00    +0.000 NA
ATOM     14  C   UNL     1      46.469   3.742   7.564  0.00  0.00    +0.000 C 
ATOM     15  C   UNL     1      46.461   3.218   6.140  0.00  0.00    +0.000 C 
ATOM     16  C   UNL     1      47.073   1.841   6.282  0.00  0.00    +0.000 C 
ATOM     17  C   UNL     1      46.776   1.428   7.721  0.00  0.00    +0.000 C 
ENDBRANCH  12  13
ENDBRANCH  11  12
ENDBRANCH   8  11
ENDBRANCH   5   8
ENDBRANCH   1   2
BRANCH   1  20
ATOM     18  O   UNL     1      50.127   6.540  15.456  0.00  0.00    +0.000 OA
ATOM     19  C   UNL     1      48.988   6.364  15.879  0.00  0.00    +0.000 C 
ATOM     20  N   UNL     1      47.892   6.403  15.061  0.00  0.00    +0.000 N 
ATOM     21  H   UNL     1      46.961   6.398  15.466  0.00  0.00    +0.000 HD
BRANCH  19  22
ATOM     22  C   UNL     1      48.737   6.064  17.291  0.00  0.00    +0.000 A 
ATOM     23  C   UNL     1      48.957   4.782  17.770  0.00  0.00    +0.000 A 
ATOM     24  S   UNL     1      48.657   4.620  19.441  0.00  0.00    +0.000 S 
ATOM     25  C   UNL     1      48.258   6.268  19.583  0.00  0.00    +0.000 A 
ATOM     26  N   UNL     1      47.952   6.812  20.792  0.00  0.00    +0.000 NA
ATOM     27  C   UNL     1      47.712   8.081  20.760  0.00  0.00    +0.000 A 
ATOM     28  N   UNL     1      47.721   8.849  19.624  0.00  0.00    +0.000 N 
ATOM     29  C   UNL     1      47.925   8.319  18.372  0.00  0.00    +0.000 A 
ATOM     30  O   UNL     1      47.761   9.006  17.363  0.00  0.00    +0.000 OA
ATOM     31  C   UNL     1      48.291   6.918  18.363  0.00  0.00    +0.000 A 
ATOM     32  H   UNL     1      47.473   9.827  19.661  0.00  0.00    +0.000 HD
ENDBRANCH  19  22
ENDBRANCH   1  20
TORSDOF 8
ENDMDL
MODEL 3
REMARK VINA RESULT:    -6.988      1.981      2.681
REMARK INTER + INTRA:         -11.391
REMARK INTER:                 -10.324
REMARK INTRA:                  -1.066
REMARK UNBOUND:                -1.339
REMARK  Name = 
REMARK  8 active torsions:
REMARK  status: ('A' for Active; 'I' for Inactive)
REMARK    1  A    between atoms: C_2  and  C_20
REMARK    2  A    between atoms: N_3  and  C_4
REMARK    3  A    between atoms: C_4  and  C_5
REMARK    4  A    between atoms: C_8  and  C_9
REMARK    5  A    between atoms: C_9  and  O_10
REMARK    6  A    between atoms: C_9  and  C_11
REMARK    7  A    between atoms: C_11  and  C_12
REMARK    8  A    between atoms: C_12  and  N_13
REMARK                            x       y       z     vdW  Elec       q    Type
REMARK                         _______ _______ _______ _____ _____    ______ ____
ROOT
ATOM      1  C   UNL     1      48.424   7.290  13.703  0.00  0.00    +0.000 C 
ENDROOT
BRANCH   1   2
ATOM      2  C   UNL     1      47.147   6.669  13.209  0.00  0.00    +0.000 A 
ATOM      3  C   UNL     1      46.637   5.504  13.796  0.00  0.00    +0.000 A 
ATOM      4  C   UNL     1      45.428   4.953  13.354  0.00  0.00    +0.000 A 
ATOM      5  C   UNL     1      44.710   5.545  12.304  0.00  0.00    +0.000 A 
ATOM      6  C   UNL     1      45.224   6.719  11.732  0.00  0.00    +0.000 A 
ATOM      7  C   UNL     1      46.439   7.256  12.157  0.00  0.00    +0.000 A 
BRANCH   5   8
ATOM      8  C   UNL     1      43.412   4.919  11.826  0.00  0.00    +0.000 C 
BRANCH   8   9
ATOM      9  O   UNL     1      43.025   5.576  10.614  0.00  0.00    +0.000 OA
ATOM     10  H   UNL     1      43.084   4.918   9.899  0.00  0.00    +0.000 HD
ENDBRANCH   8   9
BRANCH   8  11
ATOM     11  C   UNL     1      43.466   3.408  11.537  0.00  0.00    +0.000 C 
BRANCH  11  12
ATOM     12  C   UNL     1      44.660   3.004  10.657  0.00  0.00    +0.000 C 
BRANCH  12  13
ATOM     13  N   UNL     1      44.335   2.897   9.221  0.00  0.00    +0.000 NA
ATOM     14  C   UNL     1      44.781   1.599   8.683  0.00  0.00    +0.000 C 
ATOM     15  C   UNL     1      46.206   1.833   8.216  0.00  0.00    +0.000 C 
ATOM     16  C   UNL     1      46.148   3.232   7.640  0.00  0.00    +0.000 C 
ATOM     17  C   UNL     1      44.991   3.908   8.371  0.00  0.00    +0.000 C 
ENDBRANCH  12  13
ENDBRANCH  11  12
ENDBRANCH   8  11
ENDBRANCH   5   8
ENDBRANCH   1   2
BRANCH   1  20
ATOM     18  O   UNL     1      49.915   6.140  15.780  0.00  0.00    +0.000 OA
ATOM     19  C   UNL     1      49.142   7.055  16.046  0.00  0.00    +0.000 C 
ATOM     20  N   UNL     1      48.349   7.641  15.097  0.00  0.00    +0.000 N 
ATOM     21  H   UNL     1      47.833   8.485  15.323  0.00  0.00    +0.000 HD
BRANCH  19  22
ATOM     22  C   UNL     1      48.994   7.554  17.416  0.00  0.00    +0.000 A 
ATOM     23  C   UNL     1      49.485   8.808  17.746  0.00  0.00    +0.000 A 
ATOM     24  S   UNL     1      49.189   9.248  19.367  0.00  0.00    +0.000 S 
ATOM     25  C   UNL     1      48.363   7.791  19.668  0.00  0.00    +0.000 A 
ATOM     26  N   UNL     1      47.789   7.548  20.877  0.00  0.00    +0.000 NA
ATOM     27  C   UNL     1      47.157   6.424  20.952  0.00  0.00    +0.000 A 
ATOM     28  N   UNL     1      47.074   5.507  19.936  0.00  0.00    +0.000 N 
ATOM     29  C   UNL     1      47.724   5.668  18.736  0.00  0.00    +0.000 A 
ATOM     30  O   UNL     1      47.764   4.752  17.913  0.00  0.00    +0.000 OA
ATOM     31  C   UNL     1      48.368   6.954  18.568  0.00  0.00    +0.000 A 
ATOM     32  H   UNL     1      46.609   4.623  20.078  0.00  0.00    +0.000 HD
ENDBRANCH  19  22
ENDBRANCH   1  20
TORSDOF 8
ENDMDL
MODEL 4
REMARK VINA RESULT:    -6.785      2.679      3.433
REMARK INTER + INTRA:         -11.099
REMARK INTER:                 -10.148
REMARK INTRA:                  -0.951
REMARK UNBOUND:                -1.339
REMARK  Name = 
REMARK  8 active torsions:
REMARK  status: ('A' for Active; 'I' for Inactive)
REMARK    1  A    between atoms: C_2  and  C_20
REMARK    2  A    between atoms: N_3  and  C_4
REMARK    3  A    between atoms: C_4  and  C_5
REMARK    4  A    between atoms: C_8  and  C_9
REMARK    5  A    between atoms: C_9  and  O_10
REMARK    6  A    between atoms: C_9  and  C_11
REMARK    7  A    between atoms: C_11  and  C_12
REMARK    8  A    between atoms: C_12  and  N_13
REMARK                            x       y       z     vdW  Elec       q    Type
REMARK                         _______ _______ _______ _____ _____    ______ ____
ROOT
ATOM      1  C   UNL     1      47.797   5.055  14.490  0.00  0.00    +0.000 C 
ENDROOT
BRANCH   1   2
ATOM      2  C   UNL     1      46.772   4.898  13.401  0.00  0.00    +0.000 A 
ATOM      3  C   UNL     1      46.483   5.951  12.523  0.00  0.00    +0.000 A 
ATOM      4  C   UNL     1      45.554   5.783  11.489  0.00  0.00    +0.000 A 
ATOM      5  C   UNL     1      44.881   4.564  11.320  0.00  0.00    +0.000 A 
ATOM      6  C   UNL     1      45.187   3.513  12.197  0.00  0.00    +0.000 A 
ATOM      7  C   UNL     1      46.096   3.685  13.241  0.00  0.00    +0.000 A 
BRANCH   5   8
ATOM      8  C   UNL     1      43.861   4.410  10.205  0.00  0.00    +0.000 C 
BRANCH   8   9
ATOM      9  O   UNL     1      43.032   5.577  10.200  0.00  0.00    +0.000 OA
ATOM     10  H   UNL     1      42.851   5.806  11.128  0.00  0.00    +0.000 HD
ENDBRANCH   8   9
BRANCH   8  11
ATOM     11  C   UNL     1      44.441   4.248   8.788  0.00  0.00    +0.000 C 
BRANCH  11  12
ATOM     12  C   UNL     1      44.914   2.816   8.489  0.00  0.00    +0.000 C 
BRANCH  12  13
ATOM     13  N   UNL     1      46.366   2.703   8.254  0.00  0.00    +0.000 NA
ATOM     14  C   UNL     1      46.811   3.704   7.267  0.00  0.00    +0.000 C 
ATOM     15  C   UNL     1      46.665   3.022   5.919  0.00  0.00    +0.000 C 
ATOM     16  C   UNL     1      47.081   1.597   6.213  0.00  0.00    +0.000 C 
ATOM     17  C   UNL     1      46.794   1.405   7.700  0.00  0.00    +0.000 C 
ENDBRANCH  12  13
ENDBRANCH  11  12
ENDBRANCH   8  11
ENDBRANCH   5   8
ENDBRANCH   1   2
BRANCH   1  20
ATOM     18  O   UNL     1      49.798   6.136  16.130  0.00  0.00    +0.000 OA
ATOM     19  C   UNL     1      48.883   6.864  15.759  0.00  0.00    +0.000 C 
ATOM     20  N   UNL     1      47.847   6.403  14.992  0.00  0.00    +0.000 N 
ATOM     21  H   UNL     1      47.189   7.060  14.586  0.00  0.00    +0.000 HD
BRANCH  19  22
ATOM     22  C   UNL     1      48.824   8.274  16.151  0.00  0.00    +0.000 A 
ATOM     23  C   UNL     1      49.307   9.247  15.288  0.00  0.00    +0.000 A 
ATOM     24  S   UNL     1      49.122  10.835  15.882  0.00  0.00    +0.000 S 
ATOM     25  C   UNL     1      48.357  10.274  17.295  0.00  0.00    +0.000 A 
ATOM     26  N   UNL     1      47.882  11.145  18.226  0.00  0.00    +0.000 NA
ATOM     27  C   UNL     1      47.286  10.584  19.226  0.00  0.00    +0.000 A 
ATOM     28  N   UNL     1      47.150   9.230  19.394  0.00  0.00    +0.000 N 
ATOM     29  C   UNL     1      47.705   8.316  18.529  0.00  0.00    +0.000 A 
ATOM     30  O   UNL     1      47.706   7.114  18.799  0.00  0.00    +0.000 OA
ATOM     31  C   UNL     1      48.301   8.894  17.343  0.00  0.00    +0.000 A 
ATOM     32  H   UNL     1      46.719   8.855  20.225  0.00  0.00    +0.000 HD
ENDBRANCH  19  22
ENDBRANCH   1  20
TORSDOF 8
ENDMDL
MODEL 5
REMARK VINA RESULT:    -6.781      2.217      3.826
REMARK INTER + INTRA:         -11.093
REMARK INTER:                  -9.897
REMARK INTRA:                  -1.196
REMARK UNBOUND:                -1.339
REMARK  Name = 
REMARK  8 active torsions:
REMARK  status: ('A' for Active; 'I' for Inactive)
REMARK    1  A    between atoms: C_2  and  C_20
REMARK    2  A    between atoms: N_3  and  C_4
REMARK    3  A    between atoms: C_4  and  C_5
REMARK    4  A    between atoms: C_8  and  C_9
REMARK    5  A    between atoms: C_9  and  O_10
REMARK    6  A    between atoms: C_9  and  C_11
REMARK    7  A    between atoms: C_11  and  C_12
REMARK    8  A    between atoms: C_12  and  N_13
REMARK                            x       y       z     vdW  Elec       q    Type
REMARK                         _______ _______ _______ _____ _____    ______ ____
ROOT
ATOM      1  C   UNL     1      47.528   4.616  14.784  0.00  0.00    +0.000 C 
ENDROOT
BRANCH   1   2
ATOM      2  C   UNL     1      46.607   4.547  13.598  0.00  0.00    +0.000 A 
ATOM      3  C   UNL     1      46.040   3.332  13.194  0.00  0.00    +0.000 A 
ATOM      4  C   UNL     1      45.155   3.283  12.111  0.00  0.00    +0.000 A 
ATOM      5  C   UNL     1      44.829   4.445  11.397  0.00  0.00    +0.000 A 
ATOM      6  C   UNL     1      45.392   5.659  11.818  0.00  0.00    +0.000 A 
ATOM      7  C   UNL     1      46.292   5.706  12.883  0.00  0.00    +0.000 A 
BRANCH   5   8
ATOM      8  C   UNL     1      43.882   4.367  10.212  0.00  0.00    +0.000 C 
BRANCH   8   9
ATOM      9  O   UNL     1      43.051   5.532  10.232  0.00  0.00    +0.000 OA
ATOM     10  H   UNL     1      43.411   6.154   9.575  0.00  0.00    +0.000 HD
ENDBRANCH   8   9
BRANCH   8  11
ATOM     11  C   UNL     1      44.551   4.299   8.827  0.00  0.00    +0.000 C 
BRANCH  11  12
ATOM     12  C   UNL     1      44.942   2.870   8.414  0.00  0.00    +0.000 C 
BRANCH  12  13
ATOM     13  N   UNL     1      46.392   2.681   8.215  0.00  0.00    +0.000 NA
ATOM     14  C   UNL     1      46.914   3.659   7.243  0.00  0.00    +0.000 C 
ATOM     15  C   UNL     1      46.766   2.988   5.890  0.00  0.00    +0.000 C 
ATOM     16  C   UNL     1      47.100   1.543   6.190  0.00  0.00    +0.000 C 
ATOM     17  C   UNL     1      46.766   1.364   7.668  0.00  0.00    +0.000 C 
ENDBRANCH  12  13
ENDBRANCH  11  12
ENDBRANCH   8  11
ENDBRANCH   5   8
ENDBRANCH   1   2
BRANCH   1  20
ATOM     18  O   UNL     1      49.651   5.583  16.341  0.00  0.00    +0.000 OA
ATOM     19  C   UNL     1      48.768   6.363  15.997  0.00  0.00    +0.000 C 
ATOM     20  N   UNL     1      47.679   5.961  15.273  0.00  0.00    +0.000 N 
ATOM     21  H   UNL     1      47.048   6.655  14.885  0.00  0.00    +0.000 HD
BRANCH  19  22
ATOM     22  C   UNL     1      48.811   7.778  16.377  0.00  0.00    +0.000 A 
ATOM     23  C   UNL     1      48.816   8.128  17.719  0.00  0.00    +0.000 A 
ATOM     24  S   UNL     1      48.912   9.811  17.982  0.00  0.00    +0.000 S 
ATOM     25  C   UNL     1      48.985  10.121  16.310  0.00  0.00    +0.000 A 
ATOM     26  N   UNL     1      49.136  11.389  15.839  0.00  0.00    +0.000 NA
ATOM     27  C   UNL     1      49.221  11.474  14.553  0.00  0.00    +0.000 A 
ATOM     28  N   UNL     1      49.137  10.409  13.693  0.00  0.00    +0.000 N 
ATOM     29  C   UNL     1      48.884   9.128  14.122  0.00  0.00    +0.000 A 
ATOM     30  O   UNL     1      48.650   8.228  13.314  0.00  0.00    +0.000 OA
ATOM     31  C   UNL     1      48.874   8.964  15.561  0.00  0.00    +0.000 A 
ATOM     32  H   UNL     1      49.158  10.550  12.695  0.00  0.00    +0.000 HD
ENDBRANCH  19  22
ENDBRANCH   1  20
TORSDOF 8
ENDMDL
MODEL 6
REMARK VINA RESULT:    -6.503      3.772      8.958
REMARK INTER + INTRA:         -10.693
REMARK INTER:                  -8.734
REMARK INTRA:                  -1.959
REMARK UNBOUND:                -1.339
REMARK  Name = 
REMARK  8 active torsions:
REMARK  status: ('A' for Active; 'I' for Inactive)
REMARK    1  A    between atoms: C_2  and  C_20
REMARK    2  A    between atoms: N_3  and  C_4
REMARK    3  A    between atoms: C_4  and  C_5
REMARK    4  A    between atoms: C_8  and  C_9
REMARK    5  A    between atoms: C_9  and  O_10
REMARK    6  A    between atoms: C_9  and  C_11
REMARK    7  A    between atoms: C_11  and  C_12
REMARK    8  A    between atoms: C_12  and  N_13
REMARK                            x       y       z     vdW  Elec       q    Type
REMARK                         _______ _______ _______ _____ _____    ______ ____
ROOT
ATOM      1  C   UNL     1      48.300   7.698  14.324  0.00  0.00    +0.000 C 
ENDROOT
BRANCH   1   2
ATOM      2  C   UNL     1      48.842   6.750  15.358  0.00  0.00    +0.000 A 
ATOM      3  C   UNL     1      50.133   6.910  15.878  0.00  0.00    +0.000 A 
ATOM      4  C   UNL     1      50.616   6.045  16.867  0.00  0.00    +0.000 A 
ATOM      5  C   UNL     1      49.825   4.991  17.347  0.00  0.00    +0.000 A 
ATOM      6  C   UNL     1      48.529   4.847  16.828  0.00  0.00    +0.000 A 
ATOM      7  C   UNL     1      48.055   5.695  15.827  0.00  0.00    +0.000 A 
BRANCH   5   8
ATOM      8  C   UNL     1      50.376   4.051  18.405  0.00  0.00    +0.000 C 
BRANCH   8   9
ATOM      9  O   UNL     1      51.688   3.648  17.999  0.00  0.00    +0.000 OA
ATOM     10  H   UNL     1      51.715   3.693  17.027  0.00  0.00    +0.000 HD
ENDBRANCH   8   9
BRANCH   8  11
ATOM     11  C   UNL     1      50.491   4.638  19.824  0.00  0.00    +0.000 C 
BRANCH  11  12
ATOM     12  C   UNL     1      49.130   4.815  20.516  0.00  0.00    +0.000 C 
BRANCH  12  13
ATOM     13  N   UNL     1      48.892   6.179  21.027  0.00  0.00    +0.000 NA
ATOM     14  C   UNL     1      47.492   6.582  20.801  0.00  0.00    +0.000 C 
ATOM     15  C   UNL     1      47.482   7.227  19.428  0.00  0.00    +0.000 C 
ATOM     16  C   UNL     1      48.797   7.978  19.397  0.00  0.00    +0.000 C 
ATOM     17  C   UNL     1      49.700   7.225  20.370  0.00  0.00    +0.000 C 
ENDBRANCH  12  13
ENDBRANCH  11  12
ENDBRANCH   8  11
ENDBRANCH   5   8
ENDBRANCH   1   2
BRANCH   1  20
ATOM     18  O   UNL     1      47.881   6.636  11.763  0.00  0.00    +0.000 OA
ATOM     19  C   UNL     1      46.930   6.706  12.536  0.00  0.00    +0.000 C 
ATOM     20  N   UNL     1      47.043   7.249  13.787  0.00  0.00    +0.000 N 
ATOM     21  H   UNL     1      46.277   7.158  14.446  0.00  0.00    +0.000 HD
BRANCH  19  22
ATOM     22  C   UNL     1      45.596   6.241  12.146  0.00  0.00    +0.000 A 
ATOM     23  C   UNL     1      44.689   7.137  11.599  0.00  0.00    +0.000 A 
ATOM     24  S   UNL     1      43.204   6.419  11.164  0.00  0.00    +0.000 S 
ATOM     25  C   UNL     1      43.740   4.882  11.660  0.00  0.00    +0.000 A 
ATOM     26  N   UNL     1      42.955   3.782  11.503  0.00  0.00    +0.000 NA
ATOM     27  C   UNL     1      43.504   2.676  11.882  0.00  0.00    +0.000 A 
ATOM     28  N   UNL     1      44.756   2.574  12.432  0.00  0.00    +0.000 N 
ATOM     29  C   UNL     1      45.539   3.671  12.701  0.00  0.00    +0.000 A 
ATOM     30  O   UNL     1      46.583   3.557  13.345  0.00  0.00    +0.000 OA
ATOM     31  C   UNL     1      45.009   4.926  12.208  0.00  0.00    +0.000 A 
ATOM     32  H   UNL     1      45.105   1.685  12.756  0.00  0.00    +0.000 HD
ENDBRANCH  19  22
ENDBRANCH   1  20
TORSDOF 8
ENDMDL
MODEL 7
REMARK VINA RESULT:    -6.437      2.840      8.387
REMARK INTER + INTRA:         -10.599
REMARK INTER:                  -9.159
REMARK INTRA:                  -1.440
REMARK UNBOUND:                -1.339
REMARK  Name = 
REMARK  8 active torsions:
REMARK  status: ('A' for Active; 'I' for Inactive)
REMARK    1  A    between atoms: C_2  and  C_20
REMARK    2  A    between atoms: N_3  and  C_4
REMARK    3  A    between atoms: C_4  and  C_5
REMARK    4  A    between atoms: C_8  and  C_9
REMARK    5  A    between atoms: C_9  and  O_10
REMARK    6  A    between atoms: C_9  and  C_11
REMARK    7  A    between atoms: C_11  and  C_12
REMARK    8  A    between atoms: C_12  and  N_13
REMARK                            x       y       z     vdW  Elec       q    Type
REMARK                         _______ _______ _______ _____ _____    ______ ____
ROOT
ATOM      1  C   UNL     1      47.533   7.912  11.830  0.00  0.00    +0.000 C 
ENDROOT
BRANCH   1   2
ATOM      2  C   UNL     1      48.230   8.014  13.159  0.00  0.00    +0.000 A 
ATOM      3  C   UNL     1      47.656   8.721  14.222  0.00  0.00    +0.000 A 
ATOM      4  C   UNL     1      48.294   8.779  15.467  0.00  0.00    +0.000 A 
ATOM      5  C   UNL     1      49.529   8.146  15.671  0.00  0.00    +0.000 A 
ATOM      6  C   UNL     1      50.089   7.431  14.602  0.00  0.00    +0.000 A 
ATOM      7  C   UNL     1      49.465   7.390  13.355  0.00  0.00    +0.000 A 
BRANCH   5   8
ATOM      8  C   UNL     1      50.215   8.240  17.023  0.00  0.00    +0.000 C 
BRANCH   8   9
ATOM      9  O   UNL     1      49.296   8.835  17.944  0.00  0.00    +0.000 OA
ATOM     10  H   UNL     1      48.653   9.345  17.421  0.00  0.00    +0.000 HD
ENDBRANCH   8   9
BRANCH   8  11
ATOM     11  C   UNL     1      50.679   6.903  17.630  0.00  0.00    +0.000 C 
BRANCH  11  12
ATOM     12  C   UNL     1      49.516   5.951  17.954  0.00  0.00    +0.000 C 
BRANCH  12  13
ATOM     13  N   UNL     1      49.377   4.832  17.002  0.00  0.00    +0.000 NA
ATOM     14  C   UNL     1      48.046   4.853  16.367  0.00  0.00    +0.000 C 
ATOM     15  C   UNL     1      47.160   4.025  17.279  0.00  0.00    +0.000 C 
ATOM     16  C   UNL     1      48.081   2.909  17.724  0.00  0.00    +0.000 C 
ATOM     17  C   UNL     1      49.486   3.495  17.613  0.00  0.00    +0.000 C 
ENDBRANCH  12  13
ENDBRANCH  11  12
ENDBRANCH   8  11
ENDBRANCH   5   8
ENDBRANCH   1   2
BRANCH   1  20
ATOM     18  O   UNL     1      44.776   7.449  12.049  0.00  0.00    +0.000 OA
ATOM     19  C   UNL     1      45.510   6.511  11.751  0.00  0.00    +0.000 C 
ATOM     20  N   UNL     1      46.869   6.646  11.664  0.00  0.00    +0.000 N 
ATOM     21  H   UNL     1      47.427   5.892  11.277  0.00  0.00    +0.000 HD
BRANCH  19  22
ATOM     22  C   UNL     1      44.973   5.171  11.503  0.00  0.00    +0.000 A 
ATOM     23  C   UNL     1      44.302   4.503  12.516  0.00  0.00    +0.000 A 
ATOM     24  S   UNL     1      43.705   2.976  12.044  0.00  0.00    +0.000 S 
ATOM     25  C   UNL     1      44.294   3.177  10.460  0.00  0.00    +0.000 A 
ATOM     26  N   UNL     1      44.067   2.236   9.504  0.00  0.00    +0.000 NA
ATOM     27  C   UNL     1      44.532   2.537   8.337  0.00  0.00    +0.000 A 
ATOM     28  N   UNL     1      45.230   3.681   8.047  0.00  0.00    +0.000 N 
ATOM     29  C   UNL     1      45.569   4.607   9.005  0.00  0.00    +0.000 A 
ATOM     30  O   UNL     1      46.336   5.534   8.742  0.00  0.00    +0.000 OA
ATOM     31  C   UNL     1      44.990   4.362  10.310  0.00  0.00    +0.000 A 
ATOM     32  H   UNL     1      45.613   3.831   7.125  0.00  0.00    +0.000 HD
ENDBRANCH  19  22
ENDBRANCH   1  20
TORSDOF 8
ENDMDL
MODEL 8
REMARK VINA RESULT:    -6.324      3.889      9.127
REMARK INTER + INTRA:         -10.436
REMARK INTER:                  -9.280
REMARK INTRA:                  -1.157
REMARK UNBOUND:                -1.339
REMARK  Name = 
REMARK  8 active torsions:
REMARK  status: ('A' for Active; 'I' for Inactive)
REMARK    1  A    between atoms: C_2  and  C_20
REMARK    2  A    between atoms: N_3  and  C_4
REMARK    3  A    between atoms: C_4  and  C_5
REMARK    4  A    between atoms: C_8  and  C_9
REMARK    5  A    between atoms: C_9  and  O_10
REMARK    6  A    between atoms: C_9  and  C_11
REMARK    7  A    between atoms: C_11  and  C_12
REMARK    8  A    between atoms: C_12  and  N_13
REMARK                            x       y       z     vdW  Elec       q    Type
REMARK                         _______ _______ _______ _____ _____    ______ ____
ROOT
ATOM      1  C   UNL     1      47.159   3.292  16.899  0.00  0.00    +0.000 C 
ENDROOT
BRANCH   1   2
ATOM      2  C   UNL     1      48.597   3.355  17.332  0.00  0.00    +0.000 A 
ATOM      3  C   UNL     1      49.068   4.415  18.118  0.00  0.00    +0.000 A 
ATOM      4  C   UNL     1      50.400   4.446  18.548  0.00  0.00    +0.000 A 
ATOM      5  C   UNL     1      51.295   3.427  18.189  0.00  0.00    +0.000 A 
ATOM      6  C   UNL     1      50.809   2.365  17.412  0.00  0.00    +0.000 A 
ATOM      7  C   UNL     1      49.488   2.343  16.965  0.00  0.00    +0.000 A 
BRANCH   5   8
ATOM      8  C   UNL     1      52.741   3.492  18.648  0.00  0.00    +0.000 C 
BRANCH   8   9
ATOM      9  O   UNL     1      53.164   2.162  18.967  0.00  0.00    +0.000 OA
ATOM     10  H   UNL     1      52.995   1.611  18.182  0.00  0.00    +0.000 HD
ENDBRANCH   8   9
BRANCH   8  11
ATOM     11  C   UNL     1      53.742   4.063  17.627  0.00  0.00    +0.000 C 
BRANCH  11  12
ATOM     12  C   UNL     1      54.340   5.413  18.057  0.00  0.00    +0.000 C 
BRANCH  12  13
ATOM     13  N   UNL     1      53.521   6.579  17.673  0.00  0.00    +0.000 NA
ATOM     14  C   UNL     1      52.941   6.386  16.331  0.00  0.00    +0.000 C 
ATOM     15  C   UNL     1      53.972   6.949  15.371  0.00  0.00    +0.000 C 
ATOM     16  C   UNL     1      54.499   8.161  16.111  0.00  0.00    +0.000 C 
ATOM     17  C   UNL     1      54.270   7.847  17.587  0.00  0.00    +0.000 C 
ENDBRANCH  12  13
ENDBRANCH  11  12
ENDBRANCH   8  11
ENDBRANCH   5   8
ENDBRANCH   1   2
BRANCH   1  20
ATOM     18  O   UNL     1      47.319   3.073  14.108  0.00  0.00    +0.000 OA
ATOM     19  C   UNL     1      46.906   4.121  14.595  0.00  0.00    +0.000 C 
ATOM     20  N   UNL     1      46.837   4.322  15.946  0.00  0.00    +0.000 N 
ATOM     21  H   UNL     1      46.357   5.139  16.311  0.00  0.00    +0.000 HD
BRANCH  19  22
ATOM     22  C   UNL     1      46.493   5.244  13.748  0.00  0.00    +0.000 A 
ATOM     23  C   UNL     1      47.355   6.313  13.557  0.00  0.00    +0.000 A 
ATOM     24  S   UNL     1      46.734   7.508  12.511  0.00  0.00    +0.000 S 
ATOM     25  C   UNL     1      45.308   6.617  12.253  0.00  0.00    +0.000 A 
ATOM     26  N   UNL     1      44.351   7.060  11.393  0.00  0.00    +0.000 NA
ATOM     27  C   UNL     1      43.343   6.263  11.260  0.00  0.00    +0.000 A 
ATOM     28  N   UNL     1      43.191   5.078  11.932  0.00  0.00    +0.000 N 
ATOM     29  C   UNL     1      44.083   4.645  12.884  0.00  0.00    +0.000 A 
ATOM     30  O   UNL     1      43.831   3.664  13.584  0.00  0.00    +0.000 OA
ATOM     31  C   UNL     1      45.278   5.455  13.002  0.00  0.00    +0.000 A 
ATOM     32  H   UNL     1      42.352   4.527  11.822  0.00  0.00    +0.000 HD
ENDBRANCH  19  22
ENDBRANCH   1  20
TORSDOF 8
ENDMDL
MODEL 9
REMARK VINA RESULT:    -6.285      4.665      7.621
REMARK INTER + INTRA:         -10.380
REMARK INTER:                  -9.184
REMARK INTRA:                  -1.195
REMARK UNBOUND:                -1.339
REMARK  Name = 
REMARK  8 active torsions:
REMARK  status: ('A' for Active; 'I' for Inactive)
REMARK    1  A    between atoms: C_2  and  C_20
REMARK    2  A    between atoms: N_3  and  C_4
REMARK    3  A    between atoms: C_4  and  C_5
REMARK    4  A    between atoms: C_8  and  C_9
REMARK    5  A    between atoms: C_9  and  O_10
REMARK    6  A    between atoms: C_9  and  C_11
REMARK    7  A    between atoms: C_11  and  C_12
REMARK    8  A    between atoms: C_12  and  N_13
REMARK                            x       y       z     vdW  Elec       q    Type
REMARK                         _______ _______ _______ _____ _____    ______ ____
ROOT
ATOM      1  C   UNL     1      46.509   8.514  12.224  0.00  0.00    +0.000 C 
ENDROOT
BRANCH   1   2
ATOM      2  C   UNL     1      47.981   8.619  11.936  0.00  0.00    +0.000 A 
ATOM      3  C   UNL     1      48.582   9.861  11.696  0.00  0.00    +0.000 A 
ATOM      4  C   UNL     1      49.960   9.954  11.465  0.00  0.00    +0.000 A 
ATOM      5  C   UNL     1      50.765   8.805  11.453  0.00  0.00    +0.000 A 
ATOM      6  C   UNL     1      50.154   7.568  11.707  0.00  0.00    +0.000 A 
ATOM      7  C   UNL     1      48.778   7.472  11.915  0.00  0.00    +0.000 A 
BRANCH   5   8
ATOM      8  C   UNL     1      52.254   8.925  11.179  0.00  0.00    +0.000 C 
BRANCH   8   9
ATOM      9  O   UNL     1      52.891   7.745  11.678  0.00  0.00    +0.000 OA
ATOM     10  H   UNL     1      52.355   6.985  11.391  0.00  0.00    +0.000 HD
ENDBRANCH   8   9
BRANCH   8  11
ATOM     11  C   UNL     1      52.650   9.076   9.699  0.00  0.00    +0.000 C 
BRANCH  11  12
ATOM     12  C   UNL     1      53.581   7.955   9.206  0.00  0.00    +0.000 C 
BRANCH  12  13
ATOM     13  N   UNL     1      52.888   6.682   8.932  0.00  0.00    +0.000 NA
ATOM     14  C   UNL     1      53.787   5.539   9.179  0.00  0.00    +0.000 C 
ATOM     15  C   UNL     1      54.492   5.297   7.858  0.00  0.00    +0.000 C 
ATOM     16  C   UNL     1      53.404   5.561   6.839  0.00  0.00    +0.000 C 
ATOM     17  C   UNL     1      52.441   6.519   7.535  0.00  0.00    +0.000 C 
ENDBRANCH  12  13
ENDBRANCH  11  12
ENDBRANCH   8  11
ENDBRANCH   5   8
ENDBRANCH   1   2
BRANCH   1  20
ATOM     18  O   UNL     1      44.049   7.692  11.157  0.00  0.00    +0.000 OA
ATOM     19  C   UNL     1      44.834   6.837  11.556  0.00  0.00    +0.000 C 
ATOM     20  N   UNL     1      46.035   7.158  12.127  0.00  0.00    +0.000 N 
ATOM     21  H   UNL     1      46.717   6.429  12.311  0.00  0.00    +0.000 HD
BRANCH  19  22
ATOM     22  C   UNL     1      44.512   5.410  11.477  0.00  0.00    +0.000 A 
ATOM     23  C   UNL     1      43.864   4.793  12.537  0.00  0.00    +0.000 A 
ATOM     24  S   UNL     1      43.528   3.144  12.260  0.00  0.00    +0.000 S 
ATOM     25  C   UNL     1      44.204   3.213  10.700  0.00  0.00    +0.000 A 
ATOM     26  N   UNL     1      44.187   2.127   9.880  0.00  0.00    +0.000 NA
ATOM     27  C   UNL     1      44.695   2.333   8.711  0.00  0.00    +0.000 A 
ATOM     28  N   UNL     1      45.246   3.518   8.297  0.00  0.00    +0.000 N 
ATOM     29  C   UNL     1      45.375   4.607   9.127  0.00  0.00    +0.000 A 
ATOM     30  O   UNL     1      46.022   5.594   8.776  0.00  0.00    +0.000 OA
ATOM     31  C   UNL     1      44.736   4.458  10.418  0.00  0.00    +0.000 A 
ATOM     32  H   UNL     1      45.674   3.597   7.387  0.00  0.00    +0.000 HD
ENDBRANCH  19  22
ENDBRANCH   1  20
TORSDOF 8
ENDMDL
