MODEL 1
REMARK VINA RESULT:    -6.898      0.000      0.000
REMARK INTER + INTRA:         -11.119
REMARK INTER:                  -9.721
REMARK INTRA:                  -1.398
REMARK UNBOUND:                -1.398
REMARK  Name = 
REMARK  8 active torsions:
REMARK  status: ('A' for Active; 'I' for Inactive)
REMARK    1  A    between atoms: C_1  and  O_2
REMARK    2  A    between atoms: O_2  and  C_3
REMARK    3  A    between atoms: C_10  and  C_11
REMARK    4  A    between atoms: N_13  and  C_14
REMARK    5  A    between atoms: C_14  and  C_15
REMARK    6  A    between atoms: C_18  and  N_19
REMARK    7  A    between atoms: N_19  and  C_20
REMARK    8  A    between atoms: C_20  and  C_21
REMARK                            x       y       z     vdW  Elec       q    Type
REMARK                         _______ _______ _______ _____ _____    ______ ____
ROOT
ATOM      1  C   UNL     1      48.201   8.881  14.627  0.00  0.00    +0.000 C 
ENDROOT
BRANCH   1   2
ATOM      2  C   UNL     1      47.328   8.337  13.519  0.00  0.00    +0.000 A 
ATOM      3  C   UNL     1      47.813   7.309  12.707  0.00  0.00    +0.000 A 
ATOM      4  C   UNL     1      47.009   6.740  11.709  0.00  0.00    +0.000 A 
ATOM      5  C   UNL     1      45.717   7.208  11.448  0.00  0.00    +0.000 A 
ATOM      6  C   UNL     1      45.249   8.261  12.244  0.00  0.00    +0.000 A 
ATOM      7  C   UNL     1      46.030   8.808  13.278  0.00  0.00    +0.000 A 
BRANCH   5   8
ATOM      8  N   UNL     1      44.830   6.621  10.530  0.00  0.00    +0.000 N 
ATOM      9  H   UNL     1      44.761   7.191   9.690  0.00  0.00    +0.000 HD
BRANCH   8  10
ATOM     10  C   UNL     1      44.915   5.191  10.259  0.00  0.00    +0.000 C 
BRANCH  10  11
ATOM     11  C   UNL     1      43.570   4.459  10.450  0.00  0.00    +0.000 C 
ATOM     12  C   UNL     1      42.722   5.232  11.480  0.00  0.00    +0.000 C 
ATOM     13  C   UNL     1      43.260   5.069  12.905  0.00  0.00    +0.000 C 
ATOM     14  N   UNL     1      43.403   3.663  13.288  0.00  0.00    +0.000 NA
ATOM     15  C   UNL     1      44.239   2.921  12.340  0.00  0.00    +0.000 C 
ATOM     16  C   UNL     1      43.674   3.004  10.925  0.00  0.00    +0.000 C 
ATOM     17  H   UNL     1      42.475   3.234  13.311  0.00  0.00    +0.000 HD
ENDBRANCH  10  11
ENDBRANCH   8  10
ENDBRANCH   5   8
ENDBRANCH   1   2
BRANCH   1  20
ATOM     18  C   UNL     1      49.453   7.116  15.834  0.00  0.00    +0.000 C 
ATOM     19  O   UNL     1      50.412   7.182  15.067  0.00  0.00    +0.000 OA
ATOM     20  N   UNL     1      48.369   7.929  15.707  0.00  0.00    +0.000 N 
ATOM     21  H   UNL     1      47.584   7.823  16.331  0.00  0.00    +0.000 HD
BRANCH  18  29
ATOM     22  C   UNL     1      47.471   4.398  16.545  0.00  0.00    +0.000 A 
ATOM     23  N   UNL     1      46.910   3.261  16.999  0.00  0.00    +0.000 NA
ATOM     24  C   UNL     1      47.426   2.705  18.093  0.00  0.00    +0.000 A 
ATOM     25  N   UNL     1      48.440   3.159  18.826  0.00  0.00    +0.000 NA
ATOM     26  C   UNL     1      48.974   4.294  18.332  0.00  0.00    +0.000 A 
ATOM     27  S   UNL     1      50.276   5.030  19.137  0.00  0.00    +0.000 S 
ATOM     28  C   UNL     1      50.371   6.258  17.968  0.00  0.00    +0.000 A 
ATOM     29  C   UNL     1      49.440   6.139  16.945  0.00  0.00    +0.000 A 
ATOM     30  C   UNL     1      48.579   4.978  17.186  0.00  0.00    +0.000 A 
BRANCH  22  32
ATOM     31  C   UNL     1      47.033   4.063  14.274  0.00  0.00    +0.000 C 
ATOM     32  O   UNL     1      46.961   4.947  15.389  0.00  0.00    +0.000 OA
ENDBRANCH  22  32
ENDBRANCH  18  29
ENDBRANCH   1  20
TORSDOF 7
ENDMDL
MODEL 2
REMARK VINA RESULT:    -6.787      1.897      2.329
REMARK INTER + INTRA:         -10.963
REMARK INTER:                  -9.680
REMARK INTRA:                  -1.282
REMARK UNBOUND:                -1.398
REMARK  Name = 
REMARK  8 active torsions:
REMARK  status: ('A' for Active; 'I' for Inactive)
REMARK    1  A    between atoms: C_1  and  O_2
REMARK    2  A    between atoms: O_2  and  C_3
REMARK    3  A    between atoms: C_10  and  C_11
REMARK    4  A    between atoms: N_13  and  C_14
REMARK    5  A    between atoms: C_14  and  C_15
REMARK    6  A    between atoms: C_18  and  N_19
REMARK    7  A    between atoms: N_19  and  C_20
REMARK    8  A    between atoms: C_20  and  C_21
REMARK                            x       y       z     vdW  Elec       q    Type
REMARK                         _______ _______ _______ _____ _____    ______ ____
ROOT
ATOM      1  C   UNL     1      47.622   8.774  14.056  0.00  0.00    +0.000 C 
ENDROOT
BRANCH   1   2
ATOM      2  C   UNL     1      46.978   8.008  12.923  0.00  0.00    +0.000 A 
ATOM      3  C   UNL     1      47.786   7.416  11.950  0.00  0.00    +0.000 A 
ATOM      4  C   UNL     1      47.226   6.647  10.919  0.00  0.00    +0.000 A 
ATOM      5  C   UNL     1      45.843   6.485  10.790  0.00  0.00    +0.000 A 
ATOM      6  C   UNL     1      45.036   7.108  11.751  0.00  0.00    +0.000 A 
ATOM      7  C   UNL     1      45.590   7.842  12.815  0.00  0.00    +0.000 A 
BRANCH   5   8
ATOM      8  N   UNL     1      45.227   5.653   9.840  0.00  0.00    +0.000 N 
ATOM      9  H   UNL     1      44.412   6.114   9.441  0.00  0.00    +0.000 HD
BRANCH   8  10
ATOM     10  C   UNL     1      46.044   4.958   8.852  0.00  0.00    +0.000 C 
BRANCH  10  11
ATOM     11  C   UNL     1      45.214   4.076   7.895  0.00  0.00    +0.000 C 
ATOM     12  C   UNL     1      44.390   3.074   8.727  0.00  0.00    +0.000 C 
ATOM     13  C   UNL     1      45.268   1.971   9.330  0.00  0.00    +0.000 C 
ATOM     14  N   UNL     1      46.070   1.283   8.317  0.00  0.00    +0.000 NA
ATOM     15  C   UNL     1      46.890   2.218   7.542  0.00  0.00    +0.000 C 
ATOM     16  C   UNL     1      46.025   3.278   6.866  0.00  0.00    +0.000 C 
ATOM     17  H   UNL     1      45.441   0.793   7.678  0.00  0.00    +0.000 HD
ENDBRANCH  10  11
ENDBRANCH   8  10
ENDBRANCH   5   8
ENDBRANCH   1   2
BRANCH   1  20
ATOM     18  C   UNL     1      49.070   7.556  15.657  0.00  0.00    +0.000 C 
ATOM     19  O   UNL     1      50.103   7.946  15.117  0.00  0.00    +0.000 OA
ATOM     20  N   UNL     1      47.839   7.944  15.224  0.00  0.00    +0.000 N 
ATOM     21  H   UNL     1      47.010   7.576  15.666  0.00  0.00    +0.000 HD
BRANCH  18  29
ATOM     22  C   UNL     1      47.667   4.480  16.282  0.00  0.00    +0.000 A 
ATOM     23  N   UNL     1      47.317   3.260  16.733  0.00  0.00    +0.000 NA
ATOM     24  C   UNL     1      47.789   2.875  17.917  0.00  0.00    +0.000 A 
ATOM     25  N   UNL     1      48.564   3.574  18.742  0.00  0.00    +0.000 NA
ATOM     26  C   UNL     1      48.893   4.785  18.249  0.00  0.00    +0.000 A 
ATOM     27  S   UNL     1      49.873   5.827  19.164  0.00  0.00    +0.000 S 
ATOM     28  C   UNL     1      49.852   7.005  17.940  0.00  0.00    +0.000 A 
ATOM     29  C   UNL     1      49.122   6.640  16.817  0.00  0.00    +0.000 A 
ATOM     30  C   UNL     1      48.517   5.321  17.020  0.00  0.00    +0.000 A 
BRANCH  22  32
ATOM     31  C   UNL     1      46.965   3.751  14.176  0.00  0.00    +0.000 C 
ATOM     32  O   UNL     1      47.212   4.858  15.038  0.00  0.00    +0.000 OA
ENDBRANCH  22  32
ENDBRANCH  18  29
ENDBRANCH   1  20
TORSDOF 7
ENDMDL
MODEL 3
REMARK VINA RESULT:    -6.728      2.751      4.654
REMARK INTER + INTRA:         -10.879
REMARK INTER:                  -9.610
REMARK INTRA:                  -1.268
REMARK UNBOUND:                -1.398
REMARK  Name = 
REMARK  8 active torsions:
REMARK  status: ('A' for Active; 'I' for Inactive)
REMARK    1  A    between atoms: C_1  and  O_2
REMARK    2  A    between atoms: O_2  and  C_3
REMARK    3  A    between atoms: C_10  and  C_11
REMARK    4  A    between atoms: N_13  and  C_14
REMARK    5  A    between atoms: C_14  and  C_15
REMARK    6  A    between atoms: C_18  and  N_19
REMARK    7  A    between atoms: N_19  and  C_20
REMARK    8  A    between atoms: C_20  and  C_21
REMARK                            x       y       z     vdW  Elec       q    Type
REMARK                         _______ _______ _______ _____ _____    ______ ____
ROOT
ATOM      1  C   UNL     1      46.774   4.617  14.868  0.00  0.00    +0.000 C 
ENDROOT
BRANCH   1   2
ATOM      2  C   UNL     1      46.276   4.761  13.448  0.00  0.00    +0.000 A 
ATOM      3  C   UNL     1      46.572   5.923  12.732  0.00  0.00    +0.000 A 
ATOM      4  C   UNL     1      46.178   6.065  11.394  0.00  0.00    +0.000 A 
ATOM      5  C   UNL     1      45.431   5.080  10.738  0.00  0.00    +0.000 A 
ATOM      6  C   UNL     1      45.110   3.931  11.472  0.00  0.00    +0.000 A 
ATOM      7  C   UNL     1      45.540   3.760  12.800  0.00  0.00    +0.000 A 
BRANCH   5   8
ATOM      8  N   UNL     1      45.089   5.119   9.376  0.00  0.00    +0.000 N 
ATOM      9  H   UNL     1      44.645   6.006   9.147  0.00  0.00    +0.000 HD
BRANCH   8  10
ATOM     10  C   UNL     1      46.055   4.676   8.377  0.00  0.00    +0.000 C 
BRANCH  10  11
ATOM     11  C   UNL     1      45.454   3.692   7.352  0.00  0.00    +0.000 C 
ATOM     12  C   UNL     1      44.712   2.573   8.109  0.00  0.00    +0.000 C 
ATOM     13  C   UNL     1      45.680   1.604   8.795  0.00  0.00    +0.000 C 
ATOM     14  N   UNL     1      46.665   1.049   7.865  0.00  0.00    +0.000 NA
ATOM     15  C   UNL     1      47.408   2.100   7.164  0.00  0.00    +0.000 C 
ATOM     16  C   UNL     1      46.464   3.029   6.406  0.00  0.00    +0.000 C 
ATOM     17  H   UNL     1      46.175   0.478   7.173  0.00  0.00    +0.000 HD
ENDBRANCH  10  11
ENDBRANCH   8  10
ENDBRANCH   5   8
ENDBRANCH   1   2
BRANCH   1  20
ATOM     18  C   UNL     1      48.616   5.635  16.178  0.00  0.00    +0.000 C 
ATOM     19  O   UNL     1      48.945   4.558  16.672  0.00  0.00    +0.000 OA
ATOM     20  N   UNL     1      47.604   5.734  15.272  0.00  0.00    +0.000 N 
ATOM     21  H   UNL     1      47.335   6.638  14.914  0.00  0.00    +0.000 HD
BRANCH  18  29
ATOM     22  C   UNL     1      50.256   8.037  14.345  0.00  0.00    +0.000 A 
ATOM     23  N   UNL     1      50.865   9.137  13.863  0.00  0.00    +0.000 NA
ATOM     24  C   UNL     1      51.223  10.081  14.731  0.00  0.00    +0.000 A 
ATOM     25  N   UNL     1      51.071  10.061  16.053  0.00  0.00    +0.000 NA
ATOM     26  C   UNL     1      50.453   8.945  16.490  0.00  0.00    +0.000 A 
ATOM     27  S   UNL     1      50.175   8.734  18.152  0.00  0.00    +0.000 S 
ATOM     28  C   UNL     1      49.398   7.248  17.886  0.00  0.00    +0.000 A 
ATOM     29  C   UNL     1      49.318   6.882  16.548  0.00  0.00    +0.000 A 
ATOM     30  C   UNL     1      49.985   7.887  15.716  0.00  0.00    +0.000 A 
BRANCH  22  32
ATOM     31  C   UNL     1      49.695   7.596  12.120  0.00  0.00    +0.000 C 
ATOM     32  O   UNL     1      49.849   7.081  13.439  0.00  0.00    +0.000 OA
ENDBRANCH  22  32
ENDBRANCH  18  29
ENDBRANCH   1  20
TORSDOF 7
ENDMDL
MODEL 4
REMARK VINA RESULT:    -6.719      4.113      8.888
REMARK INTER + INTRA:         -10.866
REMARK INTER:                  -9.879
REMARK INTRA:                  -0.987
REMARK UNBOUND:                -1.398
REMARK  Name = 
REMARK  8 active torsions:
REMARK  status: ('A' for Active; 'I' for Inactive)
REMARK    1  A    between atoms: C_1  and  O_2
REMARK    2  A    between atoms: O_2  and  C_3
REMARK    3  A    between atoms: C_10  and  C_11
REMARK    4  A    between atoms: N_13  and  C_14
REMARK    5  A    between atoms: C_14  and  C_15
REMARK    6  A    between atoms: C_18  and  N_19
REMARK    7  A    between atoms: N_19  and  C_20
REMARK    8  A    between atoms: C_20  and  C_21
REMARK                            x       y       z     vdW  Elec       q    Type
REMARK                         _______ _______ _______ _____ _____    ______ ____
ROOT
ATOM      1  C   UNL     1      47.338   3.477  17.080  0.00  0.00    +0.000 C 
ENDROOT
BRANCH   1   2
ATOM      2  C   UNL     1      48.822   3.362  17.347  0.00  0.00    +0.000 A 
ATOM      3  C   UNL     1      49.487   2.177  17.023  0.00  0.00    +0.000 A 
ATOM      4  C   UNL     1      50.872   2.057  17.200  0.00  0.00    +0.000 A 
ATOM      5  C   UNL     1      51.635   3.090  17.757  0.00  0.00    +0.000 A 
ATOM      6  C   UNL     1      50.957   4.263  18.111  0.00  0.00    +0.000 A 
ATOM      7  C   UNL     1      49.575   4.410  17.893  0.00  0.00    +0.000 A 
BRANCH   5   8
ATOM      8  N   UNL     1      53.035   3.068  17.874  0.00  0.00    +0.000 N 
ATOM      9  H   UNL     1      53.403   4.017  17.904  0.00  0.00    +0.000 HD
BRANCH   8  10
ATOM     10  C   UNL     1      53.664   2.169  18.835  0.00  0.00    +0.000 C 
BRANCH  10  11
ATOM     11  C   UNL     1      55.004   1.590  18.331  0.00  0.00    +0.000 C 
ATOM     12  C   UNL     1      54.864   1.233  16.838  0.00  0.00    +0.000 C 
ATOM     13  C   UNL     1      53.997  -0.012  16.624  0.00  0.00    +0.000 C 
ATOM     14  N   UNL     1      54.471  -1.160  17.399  0.00  0.00    +0.000 NA
ATOM     15  C   UNL     1      54.572  -0.850  18.828  0.00  0.00    +0.000 C 
ATOM     16  C   UNL     1      55.498   0.339  19.068  0.00  0.00    +0.000 C 
ATOM     17  H   UNL     1      55.396  -1.427  17.056  0.00  0.00    +0.000 HD
ENDBRANCH  10  11
ENDBRANCH   8  10
ENDBRANCH   5   8
ENDBRANCH   1   2
BRANCH   1  20
ATOM     18  C   UNL     1      47.097   4.216  14.727  0.00  0.00    +0.000 C 
ATOM     19  O   UNL     1      47.342   3.096  14.283  0.00  0.00    +0.000 OA
ATOM     20  N   UNL     1      47.040   4.466  16.064  0.00  0.00    +0.000 N 
ATOM     21  H   UNL     1      46.874   5.404  16.394  0.00  0.00    +0.000 HD
BRANCH  18  29
ATOM     22  C   UNL     1      44.439   5.072  12.721  0.00  0.00    +0.000 A 
ATOM     23  N   UNL     1      43.519   5.668  11.938  0.00  0.00    +0.000 NA
ATOM     24  C   UNL     1      43.824   6.852  11.410  0.00  0.00    +0.000 A 
ATOM     25  N   UNL     1      44.963   7.526  11.545  0.00  0.00    +0.000 NA
ATOM     26  C   UNL     1      45.851   6.896  12.340  0.00  0.00    +0.000 A 
ATOM     27  S   UNL     1      47.369   7.600  12.627  0.00  0.00    +0.000 S 
ATOM     28  C   UNL     1      47.824   6.326  13.654  0.00  0.00    +0.000 A 
ATOM     29  C   UNL     1      46.846   5.353  13.814  0.00  0.00    +0.000 A 
ATOM     30  C   UNL     1      45.676   5.680  12.995  0.00  0.00    +0.000 A 
BRANCH  22  32
ATOM     31  C   UNL     1      43.671   2.897  12.352  0.00  0.00    +0.000 C 
ATOM     32  O   UNL     1      44.105   3.867  13.300  0.00  0.00    +0.000 OA
ENDBRANCH  22  32
ENDBRANCH  18  29
ENDBRANCH   1  20
TORSDOF 7
ENDMDL
MODEL 5
REMARK VINA RESULT:    -6.641      2.250      2.706
REMARK INTER + INTRA:         -10.757
REMARK INTER:                  -9.634
REMARK INTRA:                  -1.123
REMARK UNBOUND:                -1.398
REMARK  Name = 
REMARK  8 active torsions:
REMARK  status: ('A' for Active; 'I' for Inactive)
REMARK    1  A    between atoms: C_1  and  O_2
REMARK    2  A    between atoms: O_2  and  C_3
REMARK    3  A    between atoms: C_10  and  C_11
REMARK    4  A    between atoms: N_13  and  C_14
REMARK    5  A    between atoms: C_14  and  C_15
REMARK    6  A    between atoms: C_18  and  N_19
REMARK    7  A    between atoms: N_19  and  C_20
REMARK    8  A    between atoms: C_20  and  C_21
REMARK                            x       y       z     vdW  Elec       q    Type
REMARK                         _______ _______ _______ _____ _____    ______ ____
ROOT
ATOM      1  C   UNL     1      49.929   7.818  15.461  0.00  0.00    +0.000 C 
ENDROOT
BRANCH   1   2
ATOM      2  C   UNL     1      49.052   7.366  14.315  0.00  0.00    +0.000 A 
ATOM      3  C   UNL     1      48.130   6.337  14.523  0.00  0.00    +0.000 A 
ATOM      4  C   UNL     1      47.259   5.933  13.501  0.00  0.00    +0.000 A 
ATOM      5  C   UNL     1      47.311   6.499  12.223  0.00  0.00    +0.000 A 
ATOM      6  C   UNL     1      48.260   7.508  12.012  0.00  0.00    +0.000 A 
ATOM      7  C   UNL     1      49.106   7.952  13.044  0.00  0.00    +0.000 A 
BRANCH   5   8
ATOM      8  N   UNL     1      46.408   6.207  11.188  0.00  0.00    +0.000 N 
ATOM      9  H   UNL     1      46.647   5.321  10.748  0.00  0.00    +0.000 HD
BRANCH   8  10
ATOM     10  C   UNL     1      44.976   6.378  11.411  0.00  0.00    +0.000 C 
BRANCH  10  11
ATOM     11  C   UNL     1      44.132   5.231  10.816  0.00  0.00    +0.000 C 
ATOM     12  C   UNL     1      42.827   5.099  11.626  0.00  0.00    +0.000 C 
ATOM     13  C   UNL     1      43.071   4.490  13.011  0.00  0.00    +0.000 C 
ATOM     14  N   UNL     1      43.780   3.211  12.940  0.00  0.00    +0.000 NA
ATOM     15  C   UNL     1      45.043   3.328  12.205  0.00  0.00    +0.000 C 
ATOM     16  C   UNL     1      44.812   3.857  10.793  0.00  0.00    +0.000 C 
ATOM     17  H   UNL     1      43.185   2.533  12.461  0.00  0.00    +0.000 HD
ENDBRANCH  10  11
ENDBRANCH   8  10
ENDBRANCH   5   8
ENDBRANCH   1   2
BRANCH   1  20
ATOM     18  C   UNL     1      50.447   6.146  17.214  0.00  0.00    +0.000 C 
ATOM     19  O   UNL     1      49.469   6.458  17.891  0.00  0.00    +0.000 OA
ATOM     20  N   UNL     1      50.711   6.731  16.014  0.00  0.00    +0.000 N 
ATOM     21  H   UNL     1      51.542   6.478  15.502  0.00  0.00    +0.000 HD
BRANCH  18  29
ATOM     22  C   UNL     1      50.357   2.709  17.154  0.00  0.00    +0.000 A 
ATOM     23  N   UNL     1      50.605   1.386  17.175  0.00  0.00    +0.000 NA
ATOM     24  C   UNL     1      51.777   0.979  17.659  0.00  0.00    +0.000 A 
ATOM     25  N   UNL     1      52.750   1.737  18.159  0.00  0.00    +0.000 NA
ATOM     26  C   UNL     1      52.461   3.053  18.113  0.00  0.00    +0.000 A 
ATOM     27  S   UNL     1      53.581   4.180  18.714  0.00  0.00    +0.000 S 
ATOM     28  C   UNL     1      52.575   5.482  18.291  0.00  0.00    +0.000 A 
ATOM     29  C   UNL     1      51.386   5.103  17.681  0.00  0.00    +0.000 A 
ATOM     30  C   UNL     1      51.305   3.642  17.608  0.00  0.00    +0.000 A 
BRANCH  22  32
ATOM     31  C   UNL     1      48.092   3.117  17.556  0.00  0.00    +0.000 C 
ATOM     32  O   UNL     1      49.161   3.129  16.615  0.00  0.00    +0.000 OA
ENDBRANCH  22  32
ENDBRANCH  18  29
ENDBRANCH   1  20
TORSDOF 7
ENDMDL
MODEL 6
REMARK VINA RESULT:    -6.535      2.838      6.931
REMARK INTER + INTRA:         -10.607
REMARK INTER:                  -9.226
REMARK INTRA:                  -1.381
REMARK UNBOUND:                -1.398
REMARK  Name = 
REMARK  8 active torsions:
REMARK  status: ('A' for Active; 'I' for Inactive)
REMARK    1  A    between atoms: C_1  and  O_2
REMARK    2  A    between atoms: O_2  and  C_3
REMARK    3  A    between atoms: C_10  and  C_11
REMARK    4  A    between atoms: N_13  and  C_14
REMARK    5  A    between atoms: C_14  and  C_15
REMARK    6  A    between atoms: C_18  and  N_19
REMARK    7  A    between atoms: N_19  and  C_20
REMARK    8  A    between atoms: C_20  and  C_21
REMARK                            x       y       z     vdW  Elec       q    Type
REMARK                         _______ _______ _______ _____ _____    ______ ____
ROOT
ATOM      1  C   UNL     1      48.475   8.099  11.793  0.00  0.00    +0.000 C 
ENDROOT
BRANCH   1   2
ATOM      2  C   UNL     1      48.561   8.035  13.301  0.00  0.00    +0.000 A 
ATOM      3  C   UNL     1      49.328   7.033  13.901  0.00  0.00    +0.000 A 
ATOM      4  C   UNL     1      49.480   6.980  15.294  0.00  0.00    +0.000 A 
ATOM      5  C   UNL     1      48.831   7.885  16.141  0.00  0.00    +0.000 A 
ATOM      6  C   UNL     1      48.037   8.867  15.534  0.00  0.00    +0.000 A 
ATOM      7  C   UNL     1      47.916   8.957  14.135  0.00  0.00    +0.000 A 
BRANCH   5   8
ATOM      8  N   UNL     1      49.016   7.944  17.532  0.00  0.00    +0.000 N 
ATOM      9  H   UNL     1      48.360   8.601  17.949  0.00  0.00    +0.000 HD
BRANCH   8  10
ATOM     10  C   UNL     1      49.164   6.708  18.292  0.00  0.00    +0.000 C 
BRANCH  10  11
ATOM     11  C   UNL     1      47.812   6.070  18.677  0.00  0.00    +0.000 C 
ATOM     12  C   UNL     1      47.828   5.734  20.181  0.00  0.00    +0.000 C 
ATOM     13  C   UNL     1      48.729   4.533  20.491  0.00  0.00    +0.000 C 
ATOM     14  N   UNL     1      48.383   3.357  19.690  0.00  0.00    +0.000 NA
ATOM     15  C   UNL     1      48.401   3.649  18.254  0.00  0.00    +0.000 C 
ATOM     16  C   UNL     1      47.448   4.791  17.913  0.00  0.00    +0.000 C 
ATOM     17  H   UNL     1      47.444   3.049  19.949  0.00  0.00    +0.000 HD
ENDBRANCH  10  11
ENDBRANCH   8  10
ENDBRANCH   5   8
ENDBRANCH   1   2
BRANCH   1  20
ATOM     18  C   UNL     1      46.336   6.947  11.304  0.00  0.00    +0.000 C 
ATOM     19  O   UNL     1      45.663   7.860  11.777  0.00  0.00    +0.000 OA
ATOM     20  N   UNL     1      47.695   7.009  11.242  0.00  0.00    +0.000 N 
ATOM     21  H   UNL     1      48.219   6.227  10.882  0.00  0.00    +0.000 HD
BRANCH  18  29
ATOM     22  C   UNL     1      44.626   4.358  12.784  0.00  0.00    +0.000 A 
ATOM     23  N   UNL     1      43.860   3.296  13.098  0.00  0.00    +0.000 NA
ATOM     24  C   UNL     1      43.427   2.524  12.102  0.00  0.00    +0.000 A 
ATOM     25  N   UNL     1      43.685   2.663  10.804  0.00  0.00    +0.000 NA
ATOM     26  C   UNL     1      44.450   3.741  10.536  0.00  0.00    +0.000 A 
ATOM     27  S   UNL     1      44.891   4.080   8.932  0.00  0.00    +0.000 S 
ATOM     28  C   UNL     1      45.730   5.479   9.404  0.00  0.00    +0.000 A 
ATOM     29  C   UNL     1      45.689   5.729  10.770  0.00  0.00    +0.000 A 
ATOM     30  C   UNL     1      44.949   4.663  11.451  0.00  0.00    +0.000 A 
BRANCH  22  32
ATOM     31  C   UNL     1      46.327   4.840  14.312  0.00  0.00    +0.000 C 
ATOM     32  O   UNL     1      45.036   5.178  13.812  0.00  0.00    +0.000 OA
ENDBRANCH  22  32
ENDBRANCH  18  29
ENDBRANCH   1  20
TORSDOF 7
ENDMDL
MODEL 7
REMARK VINA RESULT:    -6.246      3.045      4.340
REMARK INTER + INTRA:         -10.200
REMARK INTER:                  -9.243
REMARK INTRA:                  -0.957
REMARK UNBOUND:                -1.398
REMARK  Name = 
REMARK  8 active torsions:
REMARK  status: ('A' for Active; 'I' for Inactive)
REMARK    1  A    between atoms: C_1  and  O_2
REMARK    2  A    between atoms: O_2  and  C_3
REMARK    3  A    between atoms: C_10  and  C_11
REMARK    4  A    between atoms: N_13  and  C_14
REMARK    5  A    between atoms: C_14  and  C_15
REMARK    6  A    between atoms: C_18  and  N_19
REMARK    7  A    between atoms: N_19  and  C_20
REMARK    8  A    between atoms: C_20  and  C_21
REMARK                            x       y       z     vdW  Elec       q    Type
REMARK                         _______ _______ _______ _____ _____    ______ ____
ROOT
ATOM      1  C   UNL     1      47.327   4.762  15.226  0.00  0.00    +0.000 C 
ENDROOT
BRANCH   1   2
ATOM      2  C   UNL     1      46.709   4.957  13.859  0.00  0.00    +0.000 A 
ATOM      3  C   UNL     1      47.083   6.061  13.090  0.00  0.00    +0.000 A 
ATOM      4  C   UNL     1      46.577   6.241  11.794  0.00  0.00    +0.000 A 
ATOM      5  C   UNL     1      45.641   5.361  11.241  0.00  0.00    +0.000 A 
ATOM      6  C   UNL     1      45.245   4.273  12.031  0.00  0.00    +0.000 A 
ATOM      7  C   UNL     1      45.783   4.059  13.313  0.00  0.00    +0.000 A 
BRANCH   5   8
ATOM      8  N   UNL     1      45.168   5.431   9.920  0.00  0.00    +0.000 N 
ATOM      9  H   UNL     1      44.782   6.354   9.731  0.00  0.00    +0.000 HD
BRANCH   8  10
ATOM     10  C   UNL     1      45.988   4.909   8.833  0.00  0.00    +0.000 C 
BRANCH  10  11
ATOM     11  C   UNL     1      45.196   4.009   7.859  0.00  0.00    +0.000 C 
ATOM     12  C   UNL     1      44.424   2.951   8.673  0.00  0.00    +0.000 C 
ATOM     13  C   UNL     1      45.354   1.879   9.249  0.00  0.00    +0.000 C 
ATOM     14  N   UNL     1      46.185   1.251   8.219  0.00  0.00    +0.000 NA
ATOM     15  C   UNL     1      46.956   2.240   7.462  0.00  0.00    +0.000 C 
ATOM     16  C   UNL     1      46.039   3.272   6.812  0.00  0.00    +0.000 C 
ATOM     17  H   UNL     1      45.577   0.745   7.572  0.00  0.00    +0.000 HD
ENDBRANCH  10  11
ENDBRANCH   8  10
ENDBRANCH   5   8
ENDBRANCH   1   2
BRANCH   1  20
ATOM     18  C   UNL     1      49.064   6.051  16.435  0.00  0.00    +0.000 C 
ATOM     19  O   UNL     1      49.777   5.063  16.594  0.00  0.00    +0.000 OA
ATOM     20  N   UNL     1      47.887   5.990  15.753  0.00  0.00    +0.000 N 
ATOM     21  H   UNL     1      47.308   6.812  15.673  0.00  0.00    +0.000 HD
BRANCH  18  29
ATOM     22  C   UNL     1      49.019   7.384  19.604  0.00  0.00    +0.000 A 
ATOM     23  N   UNL     1      49.187   8.096  20.735  0.00  0.00    +0.000 NA
ATOM     24  C   UNL     1      49.751   9.298  20.637  0.00  0.00    +0.000 A 
ATOM     25  N   UNL     1      50.159   9.908  19.527  0.00  0.00    +0.000 NA
ATOM     26  C   UNL     1      49.978   9.157  18.421  0.00  0.00    +0.000 A 
ATOM     27  S   UNL     1      50.433   9.771  16.905  0.00  0.00    +0.000 S 
ATOM     28  C   UNL     1      49.958   8.339  16.125  0.00  0.00    +0.000 A 
ATOM     29  C   UNL     1      49.461   7.366  16.983  0.00  0.00    +0.000 A 
ATOM     30  C   UNL     1      49.441   7.875  18.357  0.00  0.00    +0.000 A 
BRANCH  22  32
ATOM     31  C   UNL     1      47.380   6.069  20.626  0.00  0.00    +0.000 C 
ATOM     32  O   UNL     1      48.474   6.123  19.716  0.00  0.00    +0.000 OA
ENDBRANCH  22  32
ENDBRANCH  18  29
ENDBRANCH   1  20
TORSDOF 7
ENDMDL
MODEL 8
REMARK VINA RESULT:    -6.101      3.461      5.235
REMARK INTER + INTRA:          -9.996
REMARK INTER:                  -8.918
REMARK INTRA:                  -1.078
REMARK UNBOUND:                -1.398
REMARK  Name = 
REMARK  8 active torsions:
REMARK  status: ('A' for Active; 'I' for Inactive)
REMARK    1  A    between atoms: C_1  and  O_2
REMARK    2  A    between atoms: O_2  and  C_3
REMARK    3  A    between atoms: C_10  and  C_11
REMARK    4  A    between atoms: N_13  and  C_14
REMARK    5  A    between atoms: C_14  and  C_15
REMARK    6  A    between atoms: C_18  and  N_19
REMARK    7  A    between atoms: N_19  and  C_20
REMARK    8  A    between atoms: C_20  and  C_21
REMARK                            x       y       z     vdW  Elec       q    Type
REMARK                         _______ _______ _______ _____ _____    ______ ____
ROOT
ATOM      1  C   UNL     1      48.675   3.488  18.215  0.00  0.00    +0.000 C 
ENDROOT
BRANCH   1   2
ATOM      2  C   UNL     1      48.238   4.214  16.963  0.00  0.00    +0.000 A 
ATOM      3  C   UNL     1      48.827   5.439  16.641  0.00  0.00    +0.000 A 
ATOM      4  C   UNL     1      48.491   6.111  15.457  0.00  0.00    +0.000 A 
ATOM      5  C   UNL     1      47.519   5.617  14.581  0.00  0.00    +0.000 A 
ATOM      6  C   UNL     1      46.908   4.404  14.926  0.00  0.00    +0.000 A 
ATOM      7  C   UNL     1      47.273   3.699  16.087  0.00  0.00    +0.000 A 
BRANCH   5   8
ATOM      8  N   UNL     1      47.205   6.190  13.337  0.00  0.00    +0.000 N 
ATOM      9  H   UNL     1      48.034   6.610  12.921  0.00  0.00    +0.000 HD
BRANCH   8  10
ATOM     10  C   UNL     1      46.390   5.445  12.385  0.00  0.00    +0.000 C 
BRANCH  10  11
ATOM     11  C   UNL     1      45.961   6.290  11.166  0.00  0.00    +0.000 C 
ATOM     12  C   UNL     1      44.641   7.013  11.500  0.00  0.00    +0.000 C 
ATOM     13  C   UNL     1      43.449   6.050  11.524  0.00  0.00    +0.000 C 
ATOM     14  N   UNL     1      43.331   5.280  10.285  0.00  0.00    +0.000 NA
ATOM     15  C   UNL     1      44.565   4.554   9.974  0.00  0.00    +0.000 C 
ATOM     16  C   UNL     1      45.752   5.507   9.864  0.00  0.00    +0.000 C 
ATOM     17  H   UNL     1      43.128   5.923   9.518  0.00  0.00    +0.000 HD
ENDBRANCH  10  11
ENDBRANCH   8  10
ENDBRANCH   5   8
ENDBRANCH   1   2
BRANCH   1  20
ATOM     18  C   UNL     1      50.707   2.316  17.417  0.00  0.00    +0.000 C 
ATOM     19  O   UNL     1      50.087   1.693  16.557  0.00  0.00    +0.000 OA
ATOM     20  N   UNL     1      50.100   3.226  18.227  0.00  0.00    +0.000 N 
ATOM     21  H   UNL     1      50.630   3.693  18.947  0.00  0.00    +0.000 HD
BRANCH  18  29
ATOM     22  C   UNL     1      53.354   4.463  17.865  0.00  0.00    +0.000 A 
ATOM     23  N   UNL     1      54.525   5.070  18.138  0.00  0.00    +0.000 NA
ATOM     24  C   UNL     1      55.592   4.300  18.344  0.00  0.00    +0.000 A 
ATOM     25  N   UNL     1      55.651   2.972  18.289  0.00  0.00    +0.000 NA
ATOM     26  C   UNL     1      54.456   2.408  18.019  0.00  0.00    +0.000 A 
ATOM     27  S   UNL     1      54.333   0.718  17.902  0.00  0.00    +0.000 S 
ATOM     28  C   UNL     1      52.662   0.809  17.610  0.00  0.00    +0.000 A 
ATOM     29  C   UNL     1      52.158   2.103  17.606  0.00  0.00    +0.000 A 
ATOM     30  C   UNL     1      53.245   3.063  17.816  0.00  0.00    +0.000 A 
BRANCH  22  32
ATOM     31  C   UNL     1      52.383   6.184  16.618  0.00  0.00    +0.000 C 
ATOM     32  O   UNL     1      52.244   5.261  17.694  0.00  0.00    +0.000 OA
ENDBRANCH  22  32
ENDBRANCH  18  29
ENDBRANCH   1  20
TORSDOF 7
ENDMDL
MODEL 9
REMARK VINA RESULT:    -6.089      2.392      3.379
REMARK INTER + INTRA:          -9.978
REMARK INTER:                  -8.854
REMARK INTRA:                  -1.124
REMARK UNBOUND:                -1.398
REMARK  Name = 
REMARK  8 active torsions:
REMARK  status: ('A' for Active; 'I' for Inactive)
REMARK    1  A    between atoms: C_1  and  O_2
REMARK    2  A    between atoms: O_2  and  C_3
REMARK    3  A    between atoms: C_10  and  C_11
REMARK    4  A    between atoms: N_13  and  C_14
REMARK    5  A    between atoms: C_14  and  C_15
REMARK    6  A    between atoms: C_18  and  N_19
REMARK    7  A    between atoms: N_19  and  C_20
REMARK    8  A    between atoms: C_20  and  C_21
REMARK                            x       y       z     vdW  Elec       q    Type
REMARK                         _______ _______ _______ _____ _____    ______ ____
ROOT
ATOM      1  C   UNL     1      48.645   8.033  13.055  0.00  0.00    +0.000 C 
ENDROOT
BRANCH   1   2
ATOM      2  C   UNL     1      47.548   7.053  12.707  0.00  0.00    +0.000 A 
ATOM      3  C   UNL     1      46.541   7.438  11.819  0.00  0.00    +0.000 A 
ATOM      4  C   UNL     1      45.542   6.535  11.427  0.00  0.00    +0.000 A 
ATOM      5  C   UNL     1      45.478   5.238  11.945  0.00  0.00    +0.000 A 
ATOM      6  C   UNL     1      46.472   4.868  12.861  0.00  0.00    +0.000 A 
ATOM      7  C   UNL     1      47.505   5.751  13.224  0.00  0.00    +0.000 A 
BRANCH   5   8
ATOM      8  N   UNL     1      44.563   4.259  11.524  0.00  0.00    +0.000 N 
ATOM      9  H   UNL     1      43.738   4.695  11.118  0.00  0.00    +0.000 HD
BRANCH   8  10
ATOM     10  C   UNL     1      45.039   3.102  10.774  0.00  0.00    +0.000 C 
BRANCH  10  11
ATOM     11  C   UNL     1      44.344   2.943   9.405  0.00  0.00    +0.000 C 
ATOM     12  C   UNL     1      44.798   1.616   8.765  0.00  0.00    +0.000 C 
ATOM     13  C   UNL     1      46.245   1.685   8.265  0.00  0.00    +0.000 C 
ATOM     14  N   UNL     1      46.466   2.812   7.357  0.00  0.00    +0.000 NA
ATOM     15  C   UNL     1      46.075   4.088   7.964  0.00  0.00    +0.000 C 
ATOM     16  C   UNL     1      44.612   4.066   8.396  0.00  0.00    +0.000 C 
ATOM     17  H   UNL     1      45.907   2.667   6.513  0.00  0.00    +0.000 HD
ENDBRANCH  10  11
ENDBRANCH   8  10
ENDBRANCH   5   8
ENDBRANCH   1   2
BRANCH   1  20
ATOM     18  C   UNL     1      49.596   7.539  15.289  0.00  0.00    +0.000 C 
ATOM     19  O   UNL     1      48.654   8.068  15.877  0.00  0.00    +0.000 OA
ATOM     20  N   UNL     1      49.641   7.451  13.932  0.00  0.00    +0.000 N 
ATOM     21  H   UNL     1      50.446   7.045  13.480  0.00  0.00    +0.000 HD
BRANCH  18  29
ATOM     22  C   UNL     1      49.993   4.630  17.078  0.00  0.00    +0.000 A 
ATOM     23  N   UNL     1      50.429   3.547  17.748  0.00  0.00    +0.000 NA
ATOM     24  C   UNL     1      51.703   3.524  18.134  0.00  0.00    +0.000 A 
ATOM     25  N   UNL     1      52.617   4.474  17.956  0.00  0.00    +0.000 NA
ATOM     26  C   UNL     1      52.139   5.537  17.277  0.00  0.00    +0.000 A 
ATOM     27  S   UNL     1      53.158   6.857  16.957  0.00  0.00    +0.000 S 
ATOM     28  C   UNL     1      51.926   7.669  16.115  0.00  0.00    +0.000 A 
ATOM     29  C   UNL     1      50.731   6.966  16.043  0.00  0.00    +0.000 A 
ATOM     30  C   UNL     1      50.852   5.701  16.774  0.00  0.00    +0.000 A 
BRANCH  22  32
ATOM     31  C   UNL     1      47.759   4.978  17.669  0.00  0.00    +0.000 C 
ATOM     32  O   UNL     1      48.686   4.632  16.643  0.00  0.00    +0.000 OA
ENDBRANCH  22  32
ENDBRANCH  18  29
ENDBRANCH   1  20
TORSDOF 7
ENDMDL
