MODEL 1
REMARK VINA RESULT:    -7.551      0.000      0.000
REMARK INTER + INTRA:         -10.831
REMARK INTER:                 -10.200
REMARK INTRA:                  -0.631
REMARK UNBOUND:                -0.631
REMARK  Name = 
REMARK  7 active torsions:
REMARK  status: ('A' for Active; 'I' for Inactive)
REMARK    1  A    between atoms: N_1  and  C_2
REMARK    2  A    between atoms: C_2  and  C_3
REMARK    3  A    between atoms: C_7  and  C_8
REMARK    4  A    between atoms: C_8  and  O_9
REMARK    5  A    between atoms: O_9  and  C_10
REMARK    6  A    between atoms: C_13  and  S_14
REMARK    7  A    between atoms: S_14  and  N_15
REMARK                            x       y       z     vdW  Elec       q    Type
REMARK                         _______ _______ _______ _____ _____    ______ ____
ROOT
ATOM      1  O   UNL     1      44.323   4.426  10.893  0.00  0.00    +0.000 OA
ENDROOT
BRANCH   1   2
ATOM      2  C   UNL     1      44.974   3.968   9.781  0.00  0.00    +0.000 A 
ATOM      3  C   UNL     1      45.600   4.763   8.815  0.00  0.00    +0.000 A 
ATOM      4  C   UNL     1      46.247   4.168   7.729  0.00  0.00    +0.000 A 
ATOM      5  C   UNL     1      46.273   2.777   7.621  0.00  0.00    +0.000 A 
ATOM      6  C   UNL     1      45.630   1.974   8.565  0.00  0.00    +0.000 A 
ATOM      7  C   UNL     1      44.987   2.577   9.646  0.00  0.00    +0.000 A 
BRANCH   5   8
ATOM      8  S   UNL     1      47.137   2.023   6.278  0.00  0.00    +0.000 S 
ATOM      9  O   UNL     1      47.202   0.595   6.490  0.00  0.00    +0.000 OA
ATOM     10  O   UNL     1      46.693   2.607   5.035  0.00  0.00    +0.000 OA
BRANCH   8  11
ATOM     11  N   UNL     1      48.690   2.604   6.536  0.00  0.00    +0.000 NA
ATOM     12  H   UNL     1      49.100   2.920   5.656  0.00  0.00    +0.000 HD
ATOM     13  H   UNL     1      48.687   3.304   7.277  0.00  0.00    +0.000 HD
ENDBRANCH   8  11
ENDBRANCH   5   8
ENDBRANCH   1   2
BRANCH   1  14
ATOM     14  C   UNL     1      44.485   5.809  11.196  0.00  0.00    +0.000 C 
BRANCH  14  19
ATOM     15  C   UNL     1      46.994   5.317  14.026  0.00  0.00    +0.000 A 
ATOM     16  C   UNL     1      48.025   6.175  13.621  0.00  0.00    +0.000 A 
ATOM     17  C   UNL     1      47.896   6.938  12.461  0.00  0.00    +0.000 A 
ATOM     18  C   UNL     1      46.741   6.841  11.684  0.00  0.00    +0.000 A 
ATOM     19  C   UNL     1      45.701   5.986  12.068  0.00  0.00    +0.000 A 
ATOM     20  C   UNL     1      45.831   5.238  13.247  0.00  0.00    +0.000 A 
BRANCH  15  21
ATOM     21  C   UNL     1      47.163   4.420  15.223  0.00  0.00    +0.000 C 
BRANCH  21  22
ATOM     22  N   UNL     1      47.589   3.090  14.801  0.00  0.00    +0.000 NA
ATOM     23  H   UNL     1      46.893   2.407  15.085  0.00  0.00    +0.000 HD
ATOM     24  H   UNL     1      48.451   2.852  15.288  0.00  0.00    +0.000 HD
ENDBRANCH  21  22
ENDBRANCH  15  21
ENDBRANCH  14  19
ENDBRANCH   1  14
TORSDOF 7
ENDMDL
MODEL 2
REMARK VINA RESULT:    -7.509      3.134      6.960
REMARK INTER + INTRA:         -10.774
REMARK INTER:                 -10.213
REMARK INTRA:                  -0.561
REMARK UNBOUND:                -0.631
REMARK  Name = 
REMARK  7 active torsions:
REMARK  status: ('A' for Active; 'I' for Inactive)
REMARK    1  A    between atoms: N_1  and  C_2
REMARK    2  A    between atoms: C_2  and  C_3
REMARK    3  A    between atoms: C_7  and  C_8
REMARK    4  A    between atoms: C_8  and  O_9
REMARK    5  A    between atoms: O_9  and  C_10
REMARK    6  A    between atoms: C_13  and  S_14
REMARK    7  A    between atoms: S_14  and  N_15
REMARK                            x       y       z     vdW  Elec       q    Type
REMARK                         _______ _______ _______ _____ _____    ______ ____
ROOT
ATOM      1  O   UNL     1      44.100   4.072  10.400  0.00  0.00    +0.000 OA
ENDROOT
BRANCH   1   2
ATOM      2  C   UNL     1      44.983   4.613  11.293  0.00  0.00    +0.000 A 
ATOM      3  C   UNL     1      45.289   4.094  12.556  0.00  0.00    +0.000 A 
ATOM      4  C   UNL     1      46.224   4.737  13.370  0.00  0.00    +0.000 A 
ATOM      5  C   UNL     1      46.857   5.894  12.912  0.00  0.00    +0.000 A 
ATOM      6  C   UNL     1      46.542   6.435  11.664  0.00  0.00    +0.000 A 
ATOM      7  C   UNL     1      45.606   5.786  10.858  0.00  0.00    +0.000 A 
BRANCH   5   8
ATOM      8  S   UNL     1      48.079   6.676  13.918  0.00  0.00    +0.000 S 
ATOM      9  O   UNL     1      47.748   8.075  14.075  0.00  0.00    +0.000 OA
ATOM     10  O   UNL     1      48.397   5.822  15.037  0.00  0.00    +0.000 OA
BRANCH   8  11
ATOM     11  N   UNL     1      49.411   6.623  12.899  0.00  0.00    +0.000 NA
ATOM     12  H   UNL     1      50.273   6.698  13.439  0.00  0.00    +0.000 HD
ATOM     13  H   UNL     1      49.359   5.804  12.293  0.00  0.00    +0.000 HD
ENDBRANCH   8  11
ENDBRANCH   5   8
ENDBRANCH   1   2
BRANCH   1  14
ATOM     14  C   UNL     1      44.322   4.380   9.026  0.00  0.00    +0.000 C 
BRANCH  14  19
ATOM     15  C   UNL     1      46.678   2.510   6.681  0.00  0.00    +0.000 A 
ATOM     16  C   UNL     1      46.700   1.242   7.278  0.00  0.00    +0.000 A 
ATOM     17  C   UNL     1      45.928   0.981   8.409  0.00  0.00    +0.000 A 
ATOM     18  C   UNL     1      45.137   1.987   8.966  0.00  0.00    +0.000 A 
ATOM     19  C   UNL     1      45.106   3.261   8.388  0.00  0.00    +0.000 A 
ATOM     20  C   UNL     1      45.870   3.509   7.238  0.00  0.00    +0.000 A 
BRANCH  15  21
ATOM     21  C   UNL     1      47.579   2.829   5.518  0.00  0.00    +0.000 C 
BRANCH  21  22
ATOM     22  N   UNL     1      48.590   1.790   5.361  0.00  0.00    +0.000 NA
ATOM     23  H   UNL     1      48.134   0.884   5.289  0.00  0.00    +0.000 HD
ATOM     24  H   UNL     1      49.165   1.762   6.202  0.00  0.00    +0.000 HD
ENDBRANCH  21  22
ENDBRANCH  15  21
ENDBRANCH  14  19
ENDBRANCH   1  14
TORSDOF 7
ENDMDL
MODEL 3
REMARK VINA RESULT:    -7.400      1.783      2.575
REMARK INTER + INTRA:         -10.627
REMARK INTER:                  -9.839
REMARK INTRA:                  -0.787
REMARK UNBOUND:                -0.631
REMARK  Name = 
REMARK  7 active torsions:
REMARK  status: ('A' for Active; 'I' for Inactive)
REMARK    1  A    between atoms: N_1  and  C_2
REMARK    2  A    between atoms: C_2  and  C_3
REMARK    3  A    between atoms: C_7  and  C_8
REMARK    4  A    between atoms: C_8  and  O_9
REMARK    5  A    between atoms: O_9  and  C_10
REMARK    6  A    between atoms: C_13  and  S_14
REMARK    7  A    between atoms: S_14  and  N_15
REMARK                            x       y       z     vdW  Elec       q    Type
REMARK                         _______ _______ _______ _____ _____    ______ ____
ROOT
ATOM      1  O   UNL     1      43.480   4.388  10.363  0.00  0.00    +0.000 OA
ENDROOT
BRANCH   1   2
ATOM      2  C   UNL     1      44.360   3.711   9.565  0.00  0.00    +0.000 A 
ATOM      3  C   UNL     1      44.558   2.326   9.558  0.00  0.00    +0.000 A 
ATOM      4  C   UNL     1      45.481   1.753   8.680  0.00  0.00    +0.000 A 
ATOM      5  C   UNL     1      46.196   2.571   7.803  0.00  0.00    +0.000 A 
ATOM      6  C   UNL     1      46.025   3.956   7.817  0.00  0.00    +0.000 A 
ATOM      7  C   UNL     1      45.102   4.519   8.698  0.00  0.00    +0.000 A 
BRANCH   5   8
ATOM      8  S   UNL     1      47.322   1.843   6.654  0.00  0.00    +0.000 S 
ATOM      9  O   UNL     1      48.648   2.372   6.881  0.00  0.00    +0.000 OA
ATOM     10  O   UNL     1      47.056   0.428   6.553  0.00  0.00    +0.000 OA
BRANCH   8  11
ATOM     11  N   UNL     1      46.789   2.521   5.215  0.00  0.00    +0.000 NA
ATOM     12  H   UNL     1      45.788   2.710   5.262  0.00  0.00    +0.000 HD
ATOM     13  H   UNL     1      47.362   3.329   4.972  0.00  0.00    +0.000 HD
ENDBRANCH   8  11
ENDBRANCH   5   8
ENDBRANCH   1   2
BRANCH   1  14
ATOM     14  C   UNL     1      43.565   4.128  11.762  0.00  0.00    +0.000 C 
BRANCH  14  19
ATOM     15  C   UNL     1      45.952   6.883  12.885  0.00  0.00    +0.000 A 
ATOM     16  C   UNL     1      46.960   6.129  13.499  0.00  0.00    +0.000 A 
ATOM     17  C   UNL     1      46.891   4.736  13.516  0.00  0.00    +0.000 A 
ATOM     18  C   UNL     1      45.805   4.082  12.934  0.00  0.00    +0.000 A 
ATOM     19  C   UNL     1      44.784   4.817  12.321  0.00  0.00    +0.000 A 
ATOM     20  C   UNL     1      44.872   6.216  12.290  0.00  0.00    +0.000 A 
BRANCH  15  21
ATOM     21  C   UNL     1      45.969   8.387  12.944  0.00  0.00    +0.000 C 
BRANCH  21  22
ATOM     22  N   UNL     1      46.740   8.838  14.097  0.00  0.00    +0.000 NA
ATOM     23  H   UNL     1      47.664   8.415  14.071  0.00  0.00    +0.000 HD
ATOM     24  H   UNL     1      46.288   8.504  14.946  0.00  0.00    +0.000 HD
ENDBRANCH  21  22
ENDBRANCH  15  21
ENDBRANCH  14  19
ENDBRANCH   1  14
TORSDOF 7
ENDMDL
MODEL 4
REMARK VINA RESULT:    -6.785      3.426      6.558
REMARK INTER + INTRA:          -9.795
REMARK INTER:                  -9.117
REMARK INTRA:                  -0.679
REMARK UNBOUND:                -0.631
REMARK  Name = 
REMARK  7 active torsions:
REMARK  status: ('A' for Active; 'I' for Inactive)
REMARK    1  A    between atoms: N_1  and  C_2
REMARK    2  A    between atoms: C_2  and  C_3
REMARK    3  A    between atoms: C_7  and  C_8
REMARK    4  A    between atoms: C_8  and  O_9
REMARK    5  A    between atoms: O_9  and  C_10
REMARK    6  A    between atoms: C_13  and  S_14
REMARK    7  A    between atoms: S_14  and  N_15
REMARK                            x       y       z     vdW  Elec       q    Type
REMARK                         _______ _______ _______ _____ _____    ______ ____
ROOT
ATOM      1  O   UNL     1      43.941   3.129  12.009  0.00  0.00    +0.000 OA
ENDROOT
BRANCH   1   2
ATOM      2  C   UNL     1      44.964   3.862  12.544  0.00  0.00    +0.000 A 
ATOM      3  C   UNL     1      46.174   3.350  13.022  0.00  0.00    +0.000 A 
ATOM      4  C   UNL     1      47.149   4.211  13.532  0.00  0.00    +0.000 A 
ATOM      5  C   UNL     1      46.909   5.586  13.553  0.00  0.00    +0.000 A 
ATOM      6  C   UNL     1      45.696   6.108  13.102  0.00  0.00    +0.000 A 
ATOM      7  C   UNL     1      44.729   5.240  12.594  0.00  0.00    +0.000 A 
BRANCH   5   8
ATOM      8  S   UNL     1      48.162   6.680  14.147  0.00  0.00    +0.000 S 
ATOM      9  O   UNL     1      47.660   8.036  14.137  0.00  0.00    +0.000 OA
ATOM     10  O   UNL     1      48.800   6.095  15.302  0.00  0.00    +0.000 OA
BRANCH   8  11
ATOM     11  N   UNL     1      49.281   6.587  12.900  0.00  0.00    +0.000 NA
ATOM     12  H   UNL     1      49.516   5.614  12.707  0.00  0.00    +0.000 HD
ATOM     13  H   UNL     1      48.950   7.112  12.090  0.00  0.00    +0.000 HD
ENDBRANCH   8  11
ENDBRANCH   5   8
ENDBRANCH   1   2
BRANCH   1  14
ATOM     14  C   UNL     1      43.440   3.567  10.749  0.00  0.00    +0.000 C 
BRANCH  14  19
ATOM     15  C   UNL     1      45.977   2.027   8.352  0.00  0.00    +0.000 A 
ATOM     16  C   UNL     1      46.432   3.167   7.676  0.00  0.00    +0.000 A 
ATOM     17  C   UNL     1      45.953   4.431   8.020  0.00  0.00    +0.000 A 
ATOM     18  C   UNL     1      45.001   4.568   9.030  0.00  0.00    +0.000 A 
ATOM     19  C   UNL     1      44.528   3.442   9.713  0.00  0.00    +0.000 A 
ATOM     20  C   UNL     1      45.031   2.177   9.376  0.00  0.00    +0.000 A 
BRANCH  15  21
ATOM     21  C   UNL     1      46.416   0.652   7.926  0.00  0.00    +0.000 C 
BRANCH  21  22
ATOM     22  N   UNL     1      47.174   0.726   6.683  0.00  0.00    +0.000 NA
ATOM     23  H   UNL     1      46.641   1.248   5.993  0.00  0.00    +0.000 HD
ATOM     24  H   UNL     1      47.292  -0.216   6.313  0.00  0.00    +0.000 HD
ENDBRANCH  21  22
ENDBRANCH  15  21
ENDBRANCH  14  19
ENDBRANCH   1  14
TORSDOF 7
ENDMDL
MODEL 5
REMARK VINA RESULT:    -6.745      3.522      6.705
REMARK INTER + INTRA:          -9.742
REMARK INTER:                  -9.210
REMARK INTRA:                  -0.532
REMARK UNBOUND:                -0.631
REMARK  Name = 
REMARK  7 active torsions:
REMARK  status: ('A' for Active; 'I' for Inactive)
REMARK    1  A    between atoms: N_1  and  C_2
REMARK    2  A    between atoms: C_2  and  C_3
REMARK    3  A    between atoms: C_7  and  C_8
REMARK    4  A    between atoms: C_8  and  O_9
REMARK    5  A    between atoms: O_9  and  C_10
REMARK    6  A    between atoms: C_13  and  S_14
REMARK    7  A    between atoms: S_14  and  N_15
REMARK                            x       y       z     vdW  Elec       q    Type
REMARK                         _______ _______ _______ _____ _____    ______ ____
ROOT
ATOM      1  O   UNL     1      44.698   3.329  11.395  0.00  0.00    +0.000 OA
ENDROOT
BRANCH   1   2
ATOM      2  C   UNL     1      45.120   4.588  11.723  0.00  0.00    +0.000 A 
ATOM      3  C   UNL     1      46.331   4.908  12.344  0.00  0.00    +0.000 A 
ATOM      4  C   UNL     1      46.651   6.241  12.612  0.00  0.00    +0.000 A 
ATOM      5  C   UNL     1      45.759   7.250  12.247  0.00  0.00    +0.000 A 
ATOM      6  C   UNL     1      44.536   6.942  11.648  0.00  0.00    +0.000 A 
ATOM      7  C   UNL     1      44.225   5.608  11.385  0.00  0.00    +0.000 A 
BRANCH   5   8
ATOM      8  S   UNL     1      46.187   8.939  12.536  0.00  0.00    +0.000 S 
ATOM      9  O   UNL     1      47.395   9.259  11.809  0.00  0.00    +0.000 OA
ATOM     10  O   UNL     1      44.999   9.754  12.467  0.00  0.00    +0.000 OA
BRANCH   8  11
ATOM     11  N   UNL     1      46.621   8.882  14.157  0.00  0.00    +0.000 NA
ATOM     12  H   UNL     1      47.630   8.770  14.249  0.00  0.00    +0.000 HD
ATOM     13  H   UNL     1      46.236   9.686  14.652  0.00  0.00    +0.000 HD
ENDBRANCH   8  11
ENDBRANCH   5   8
ENDBRANCH   1   2
BRANCH   1  14
ATOM     14  C   UNL     1      44.091   3.178  10.114  0.00  0.00    +0.000 C 
BRANCH  14  19
ATOM     15  C   UNL     1      46.709   1.872   7.667  0.00  0.00    +0.000 A 
ATOM     16  C   UNL     1      47.046   3.048   6.983  0.00  0.00    +0.000 A 
ATOM     17  C   UNL     1      46.460   4.263   7.336  0.00  0.00    +0.000 A 
ATOM     18  C   UNL     1      45.520   4.315   8.366  0.00  0.00    +0.000 A 
ATOM     19  C   UNL     1      45.165   3.151   9.057  0.00  0.00    +0.000 A 
ATOM     20  C   UNL     1      45.774   1.937   8.710  0.00  0.00    +0.000 A 
BRANCH  15  21
ATOM     21  C   UNL     1      47.263   0.542   7.232  0.00  0.00    +0.000 C 
BRANCH  21  22
ATOM     22  N   UNL     1      46.523  -0.544   7.864  0.00  0.00    +0.000 NA
ATOM     23  H   UNL     1      45.772  -0.844   7.247  0.00  0.00    +0.000 HD
ATOM     24  H   UNL     1      46.083  -0.192   8.712  0.00  0.00    +0.000 HD
ENDBRANCH  21  22
ENDBRANCH  15  21
ENDBRANCH  14  19
ENDBRANCH   1  14
TORSDOF 7
ENDMDL
MODEL 6
REMARK VINA RESULT:    -6.452      3.574      7.274
REMARK INTER + INTRA:          -9.346
REMARK INTER:                  -8.944
REMARK INTRA:                  -0.402
REMARK UNBOUND:                -0.631
REMARK  Name = 
REMARK  7 active torsions:
REMARK  status: ('A' for Active; 'I' for Inactive)
REMARK    1  A    between atoms: N_1  and  C_2
REMARK    2  A    between atoms: C_2  and  C_3
REMARK    3  A    between atoms: C_7  and  C_8
REMARK    4  A    between atoms: C_8  and  O_9
REMARK    5  A    between atoms: O_9  and  C_10
REMARK    6  A    between atoms: C_13  and  S_14
REMARK    7  A    between atoms: S_14  and  N_15
REMARK                            x       y       z     vdW  Elec       q    Type
REMARK                         _______ _______ _______ _____ _____    ______ ____
ROOT
ATOM      1  O   UNL     1      46.187   6.132  11.303  0.00  0.00    +0.000 OA
ENDROOT
BRANCH   1   2
ATOM      2  C   UNL     1      46.685   5.842  12.543  0.00  0.00    +0.000 A 
ATOM      3  C   UNL     1      47.659   6.579  13.226  0.00  0.00    +0.000 A 
ATOM      4  C   UNL     1      48.073   6.184  14.500  0.00  0.00    +0.000 A 
ATOM      5  C   UNL     1      47.502   5.055  15.091  0.00  0.00    +0.000 A 
ATOM      6  C   UNL     1      46.547   4.297  14.410  0.00  0.00    +0.000 A 
ATOM      7  C   UNL     1      46.140   4.700  13.137  0.00  0.00    +0.000 A 
BRANCH   5   8
ATOM      8  S   UNL     1      47.985   4.587  16.723  0.00  0.00    +0.000 S 
ATOM      9  O   UNL     1      49.216   3.830  16.660  0.00  0.00    +0.000 OA
ATOM     10  O   UNL     1      47.804   5.705  17.616  0.00  0.00    +0.000 OA
BRANCH   8  11
ATOM     11  N   UNL     1      46.779   3.484  17.106  0.00  0.00    +0.000 NA
ATOM     12  H   UNL     1      45.862   3.927  17.043  0.00  0.00    +0.000 HD
ATOM     13  H   UNL     1      46.881   2.640  16.544  0.00  0.00    +0.000 HD
ENDBRANCH   8  11
ENDBRANCH   5   8
ENDBRANCH   1   2
BRANCH   1  14
ATOM     14  C   UNL     1      44.866   5.672  11.029  0.00  0.00    +0.000 C 
BRANCH  14  19
ATOM     15  C   UNL     1      45.788   3.583   7.974  0.00  0.00    +0.000 A 
ATOM     16  C   UNL     1      45.216   2.349   8.311  0.00  0.00    +0.000 A 
ATOM     17  C   UNL     1      44.502   2.202   9.500  0.00  0.00    +0.000 A 
ATOM     18  C   UNL     1      44.366   3.282  10.373  0.00  0.00    +0.000 A 
ATOM     19  C   UNL     1      44.934   4.521  10.058  0.00  0.00    +0.000 A 
ATOM     20  C   UNL     1      45.633   4.665   8.850  0.00  0.00    +0.000 A 
BRANCH  15  21
ATOM     21  C   UNL     1      46.639   3.726   6.741  0.00  0.00    +0.000 C 
BRANCH  21  22
ATOM     22  N   UNL     1      47.856   2.933   6.872  0.00  0.00    +0.000 NA
ATOM     23  H   UNL     1      47.706   2.015   6.463  0.00  0.00    +0.000 HD
ATOM     24  H   UNL     1      48.047   2.786   7.862  0.00  0.00    +0.000 HD
ENDBRANCH  21  22
ENDBRANCH  15  21
ENDBRANCH  14  19
ENDBRANCH   1  14
TORSDOF 7
ENDMDL
MODEL 7
REMARK VINA RESULT:    -6.327      3.780      5.187
REMARK INTER + INTRA:          -9.178
REMARK INTER:                  -8.683
REMARK INTRA:                  -0.495
REMARK UNBOUND:                -0.631
REMARK  Name = 
REMARK  7 active torsions:
REMARK  status: ('A' for Active; 'I' for Inactive)
REMARK    1  A    between atoms: N_1  and  C_2
REMARK    2  A    between atoms: C_2  and  C_3
REMARK    3  A    between atoms: C_7  and  C_8
REMARK    4  A    between atoms: C_8  and  O_9
REMARK    5  A    between atoms: O_9  and  C_10
REMARK    6  A    between atoms: C_13  and  S_14
REMARK    7  A    between atoms: S_14  and  N_15
REMARK                            x       y       z     vdW  Elec       q    Type
REMARK                         _______ _______ _______ _____ _____    ______ ____
ROOT
ATOM      1  O   UNL     1      48.451   6.149  13.527  0.00  0.00    +0.000 OA
ENDROOT
BRANCH   1   2
ATOM      2  C   UNL     1      47.268   5.872  12.900  0.00  0.00    +0.000 A 
ATOM      3  C   UNL     1      46.750   6.555  11.794  0.00  0.00    +0.000 A 
ATOM      4  C   UNL     1      45.532   6.162  11.234  0.00  0.00    +0.000 A 
ATOM      5  C   UNL     1      44.841   5.079  11.779  0.00  0.00    +0.000 A 
ATOM      6  C   UNL     1      45.335   4.405  12.898  0.00  0.00    +0.000 A 
ATOM      7  C   UNL     1      46.552   4.805  13.450  0.00  0.00    +0.000 A 
BRANCH   5   8
ATOM      8  S   UNL     1      43.329   4.548  11.039  0.00  0.00    +0.000 S 
ATOM      9  O   UNL     1      43.139   3.137  11.292  0.00  0.00    +0.000 OA
ATOM     10  O   UNL     1      42.301   5.529  11.290  0.00  0.00    +0.000 OA
BRANCH   8  11
ATOM     11  N   UNL     1      43.710   4.681   9.410  0.00  0.00    +0.000 NA
ATOM     12  H   UNL     1      43.438   3.833   8.913  0.00  0.00    +0.000 HD
ATOM     13  H   UNL     1      43.320   5.541   9.025  0.00  0.00    +0.000 HD
ENDBRANCH   8  11
ENDBRANCH   5   8
ENDBRANCH   1   2
BRANCH   1  14
ATOM     14  C   UNL     1      48.370   6.943  14.708  0.00  0.00    +0.000 C 
BRANCH  14  19
ATOM     15  C   UNL     1      48.793   4.378  17.499  0.00  0.00    +0.000 A 
ATOM     16  C   UNL     1      50.112   4.632  17.898  0.00  0.00    +0.000 A 
ATOM     17  C   UNL     1      50.848   5.652  17.296  0.00  0.00    +0.000 A 
ATOM     18  C   UNL     1      50.280   6.420  16.279  0.00  0.00    +0.000 A 
ATOM     19  C   UNL     1      48.967   6.178  15.862  0.00  0.00    +0.000 A 
ATOM     20  C   UNL     1      48.227   5.164  16.486  0.00  0.00    +0.000 A 
BRANCH  15  21
ATOM     21  C   UNL     1      48.023   3.219  18.074  0.00  0.00    +0.000 C 
BRANCH  21  22
ATOM     22  N   UNL     1      46.685   3.164  17.496  0.00  0.00    +0.000 NA
ATOM     23  H   UNL     1      46.085   3.833  17.970  0.00  0.00    +0.000 HD
ATOM     24  H   UNL     1      46.291   2.241  17.669  0.00  0.00    +0.000 HD
ENDBRANCH  21  22
ENDBRANCH  15  21
ENDBRANCH  14  19
ENDBRANCH   1  14
TORSDOF 7
ENDMDL
MODEL 8
REMARK VINA RESULT:    -5.944      3.679      7.166
REMARK INTER + INTRA:          -8.661
REMARK INTER:                  -8.085
REMARK INTRA:                  -0.575
REMARK UNBOUND:                -0.631
REMARK  Name = 
REMARK  7 active torsions:
REMARK  status: ('A' for Active; 'I' for Inactive)
REMARK    1  A    between atoms: N_1  and  C_2
REMARK    2  A    between atoms: C_2  and  C_3
REMARK    3  A    between atoms: C_7  and  C_8
REMARK    4  A    between atoms: C_8  and  O_9
REMARK    5  A    between atoms: O_9  and  C_10
REMARK    6  A    between atoms: C_13  and  S_14
REMARK    7  A    between atoms: S_14  and  N_15
REMARK                            x       y       z     vdW  Elec       q    Type
REMARK                         _______ _______ _______ _____ _____    ______ ____
ROOT
ATOM      1  O   UNL     1      44.661   4.593  11.961  0.00  0.00    +0.000 OA
ENDROOT
BRANCH   1   2
ATOM      2  C   UNL     1      45.443   5.633  12.383  0.00  0.00    +0.000 A 
ATOM      3  C   UNL     1      45.172   6.991  12.188  0.00  0.00    +0.000 A 
ATOM      4  C   UNL     1      46.049   7.959  12.683  0.00  0.00    +0.000 A 
ATOM      5  C   UNL     1      47.190   7.562  13.381  0.00  0.00    +0.000 A 
ATOM      6  C   UNL     1      47.485   6.210  13.560  0.00  0.00    +0.000 A 
ATOM      7  C   UNL     1      46.604   5.250  13.062  0.00  0.00    +0.000 A 
BRANCH   5   8
ATOM      8  S   UNL     1      48.270   8.787  14.054  0.00  0.00    +0.000 S 
ATOM      9  O   UNL     1      49.555   8.189  14.340  0.00  0.00    +0.000 OA
ATOM     10  O   UNL     1      48.130  10.013  13.306  0.00  0.00    +0.000 OA
BRANCH   8  11
ATOM     11  N   UNL     1      47.545   9.065  15.542  0.00  0.00    +0.000 NA
ATOM     12  H   UNL     1      47.794   8.326  16.200  0.00  0.00    +0.000 HD
ATOM     13  H   UNL     1      47.754  10.009  15.866  0.00  0.00    +0.000 HD
ENDBRANCH   8  11
ENDBRANCH   5   8
ENDBRANCH   1   2
BRANCH   1  14
ATOM     14  C   UNL     1      44.025   4.753  10.696  0.00  0.00    +0.000 C 
BRANCH  14  19
ATOM     15  C   UNL     1      46.170   3.410   7.842  0.00  0.00    +0.000 A 
ATOM     16  C   UNL     1      45.940   2.033   7.959  0.00  0.00    +0.000 A 
ATOM     17  C   UNL     1      45.065   1.543   8.929  0.00  0.00    +0.000 A 
ATOM     18  C   UNL     1      44.424   2.421   9.803  0.00  0.00    +0.000 A 
ATOM     19  C   UNL     1      44.645   3.800   9.706  0.00  0.00    +0.000 A 
ATOM     20  C   UNL     1      45.510   4.286   8.715  0.00  0.00    +0.000 A 
BRANCH  15  21
ATOM     21  C   UNL     1      47.183   3.941   6.863  0.00  0.00    +0.000 C 
BRANCH  21  22
ATOM     22  N   UNL     1      47.805   2.842   6.134  0.00  0.00    +0.000 NA
ATOM     23  H   UNL     1      48.815   2.942   6.170  0.00  0.00    +0.000 HD
ATOM     24  H   UNL     1      47.539   2.908   5.152  0.00  0.00    +0.000 HD
ENDBRANCH  21  22
ENDBRANCH  15  21
ENDBRANCH  14  19
ENDBRANCH   1  14
TORSDOF 7
ENDMDL
MODEL 9
REMARK VINA RESULT:    -5.697      4.401      7.678
REMARK INTER + INTRA:          -8.326
REMARK INTER:                  -7.759
REMARK INTRA:                  -0.567
REMARK UNBOUND:                -0.631
REMARK  Name = 
REMARK  7 active torsions:
REMARK  status: ('A' for Active; 'I' for Inactive)
REMARK    1  A    between atoms: N_1  and  C_2
REMARK    2  A    between atoms: C_2  and  C_3
REMARK    3  A    between atoms: C_7  and  C_8
REMARK    4  A    between atoms: C_8  and  O_9
REMARK    5  A    between atoms: O_9  and  C_10
REMARK    6  A    between atoms: C_13  and  S_14
REMARK    7  A    between atoms: S_14  and  N_15
REMARK                            x       y       z     vdW  Elec       q    Type
REMARK                         _______ _______ _______ _____ _____    ______ ____
ROOT
ATOM      1  O   UNL     1      47.415   6.351  12.323  0.00  0.00    +0.000 OA
ENDROOT
BRANCH   1   2
ATOM      2  C   UNL     1      47.590   5.930  13.612  0.00  0.00    +0.000 A 
ATOM      3  C   UNL     1      47.015   4.791  14.185  0.00  0.00    +0.000 A 
ATOM      4  C   UNL     1      47.286   4.461  15.515  0.00  0.00    +0.000 A 
ATOM      5  C   UNL     1      48.142   5.270  16.264  0.00  0.00    +0.000 A 
ATOM      6  C   UNL     1      48.702   6.423  15.712  0.00  0.00    +0.000 A 
ATOM      7  C   UNL     1      48.425   6.744  14.383  0.00  0.00    +0.000 A 
BRANCH   5   8
ATOM      8  S   UNL     1      48.529   4.823  17.928  0.00  0.00    +0.000 S 
ATOM      9  O   UNL     1      49.247   3.568  17.935  0.00  0.00    +0.000 OA
ATOM     10  O   UNL     1      48.992   5.988  18.642  0.00  0.00    +0.000 OA
BRANCH   8  11
ATOM     11  N   UNL     1      46.998   4.487  18.529  0.00  0.00    +0.000 NA
ATOM     12  H   UNL     1      46.952   4.708  19.524  0.00  0.00    +0.000 HD
ATOM     13  H   UNL     1      46.287   4.946  17.960  0.00  0.00    +0.000 HD
ENDBRANCH   8  11
ENDBRANCH   5   8
ENDBRANCH   1   2
BRANCH   1  14
ATOM     14  C   UNL     1      46.214   7.067  12.049  0.00  0.00    +0.000 C 
BRANCH  14  19
ATOM     15  C   UNL     1      44.283   4.275  10.310  0.00  0.00    +0.000 A 
ATOM     16  C   UNL     1      43.177   4.144  11.160  0.00  0.00    +0.000 A 
ATOM     17  C   UNL     1      43.035   4.979  12.268  0.00  0.00    +0.000 A 
ATOM     18  C   UNL     1      44.004   5.944  12.547  0.00  0.00    +0.000 A 
ATOM     19  C   UNL     1      45.119   6.087  11.713  0.00  0.00    +0.000 A 
ATOM     20  C   UNL     1      45.244   5.256  10.590  0.00  0.00    +0.000 A 
BRANCH  15  21
ATOM     21  C   UNL     1      44.495   3.317   9.168  0.00  0.00    +0.000 C 
BRANCH  21  22
ATOM     22  N   UNL     1      44.522   1.944   9.658  0.00  0.00    +0.000 NA
ATOM     23  H   UNL     1      45.380   1.493   9.353  0.00  0.00    +0.000 HD
ATOM     24  H   UNL     1      43.752   1.429   9.234  0.00  0.00    +0.000 HD
ENDBRANCH  21  22
ENDBRANCH  15  21
ENDBRANCH  14  19
ENDBRANCH   1  14
TORSDOF 7
ENDMDL
