MODEL 1
REMARK VINA RESULT:    -7.668      0.000      0.000
REMARK INTER + INTRA:         -11.231
REMARK INTER:                 -10.357
REMARK INTRA:                  -0.873
REMARK UNBOUND:                -0.873
REMARK  Name = 
REMARK  7 active torsions:
REMARK  status: ('A' for Active; 'I' for Inactive)
REMARK    1  A    between atoms: C_1  and  O_2
REMARK    2  A    between atoms: O_2  and  C_3
REMARK    3  A    between atoms: C_5  and  C_6
REMARK    4  A    between atoms: C_11  and  O_12
REMARK    5  A    between atoms: O_12  and  C_13
REMARK    6  A    between atoms: C_13  and  C_14
REMARK    7  A    between atoms: C_19  and  C_20
REMARK                            x       y       z     vdW  Elec       q    Type
REMARK                         _______ _______ _______ _____ _____    ______ ____
ROOT
ATOM      1  O   UNL     1      45.057   6.269  12.340  0.00  0.00    +0.000 OA
ENDROOT
BRANCH   1   7
ATOM      2  C   UNL     1      47.202   5.979  13.594  0.00  0.00    +0.000 A 
ATOM      3  C   UNL     1      48.502   6.471  13.762  0.00  0.00    +0.000 A 
ATOM      4  C   UNL     1      48.982   7.553  13.007  0.00  0.00    +0.000 A 
ATOM      5  C   UNL     1      48.142   8.147  12.064  0.00  0.00    +0.000 A 
ATOM      6  C   UNL     1      46.841   7.664  11.892  0.00  0.00    +0.000 A 
ATOM      7  C   UNL     1      46.355   6.586  12.648  0.00  0.00    +0.000 A 
BRANCH   4   8
ATOM      8  C   UNL     1      50.385   7.994  13.263  0.00  0.00    +0.000 C 
ATOM      9  N   UNL     1      50.988   7.628  14.433  0.00  0.00    +0.000 N 
ATOM     10  O   UNL     1      50.997   8.676  12.450  0.00  0.00    +0.000 OA
ATOM     11  H   UNL     1      50.561   7.091  15.169  0.00  0.00    +0.000 HD
ATOM     12  H   UNL     1      51.936   7.957  14.572  0.00  0.00    +0.000 HD
ENDBRANCH   4   8
BRANCH   2  14
ATOM     13  C   UNL     1      46.836   3.617  13.624  0.00  0.00    +0.000 C 
ATOM     14  O   UNL     1      46.741   4.880  14.271  0.00  0.00    +0.000 OA
ENDBRANCH   2  14
ENDBRANCH   1   7
BRANCH   1  15
ATOM     15  C   UNL     1      44.665   6.286  10.968  0.00  0.00    +0.000 C 
BRANCH  15  16
ATOM     16  C   UNL     1      44.609   4.885  10.398  0.00  0.00    +0.000 A 
ATOM     17  C   UNL     1      43.777   3.931  10.999  0.00  0.00    +0.000 A 
ATOM     18  C   UNL     1      43.763   2.622  10.528  0.00  0.00    +0.000 A 
ATOM     19  C   UNL     1      44.580   2.259   9.459  0.00  0.00    +0.000 A 
ATOM     20  F   UNL     1      44.541   0.979   9.059  0.00  0.00    +0.000 F 
ATOM     21  C   UNL     1      45.427   3.179   8.820  0.00  0.00    +0.000 A 
ATOM     22  C   UNL     1      45.431   4.495   9.327  0.00  0.00    +0.000 A 
BRANCH  21  23
ATOM     23  C   UNL     1      46.261   2.815   7.654  0.00  0.00    +0.000 A 
ATOM     24  C   UNL     1      46.269   3.571   6.471  0.00  0.00    +0.000 A 
ATOM     25  C   UNL     1      47.029   3.171   5.372  0.00  0.00    +0.000 A 
ATOM     26  C   UNL     1      47.785   2.019   5.482  0.00  0.00    +0.000 A 
ATOM     27  N   UNL     1      47.824   1.260   6.593  0.00  0.00    +0.000 NA
ATOM     28  C   UNL     1      47.067   1.674   7.641  0.00  0.00    +0.000 A 
ENDBRANCH  21  23
ENDBRANCH  15  16
ENDBRANCH   1  15
TORSDOF 6
ENDMDL
MODEL 2
REMARK VINA RESULT:    -7.568      1.586      2.569
REMARK INTER + INTRA:         -11.096
REMARK INTER:                 -10.428
REMARK INTRA:                  -0.669
REMARK UNBOUND:                -0.873
REMARK  Name = 
REMARK  7 active torsions:
REMARK  status: ('A' for Active; 'I' for Inactive)
REMARK    1  A    between atoms: C_1  and  O_2
REMARK    2  A    between atoms: O_2  and  C_3
REMARK    3  A    between atoms: C_5  and  C_6
REMARK    4  A    between atoms: C_11  and  O_12
REMARK    5  A    between atoms: O_12  and  C_13
REMARK    6  A    between atoms: C_13  and  C_14
REMARK    7  A    between atoms: C_19  and  C_20
REMARK                            x       y       z     vdW  Elec       q    Type
REMARK                         _______ _______ _______ _____ _____    ______ ____
ROOT
ATOM      1  O   UNL     1      46.391   6.445  11.389  0.00  0.00    +0.000 OA
ENDROOT
BRANCH   1   7
ATOM      2  C   UNL     1      47.868   7.176  13.270  0.00  0.00    +0.000 A 
ATOM      3  C   UNL     1      48.343   6.844  14.545  0.00  0.00    +0.000 A 
ATOM      4  C   UNL     1      47.932   5.672  15.201  0.00  0.00    +0.000 A 
ATOM      5  C   UNL     1      47.025   4.823  14.565  0.00  0.00    +0.000 A 
ATOM      6  C   UNL     1      46.549   5.144  13.290  0.00  0.00    +0.000 A 
ATOM      7  C   UNL     1      46.961   6.312  12.630  0.00  0.00    +0.000 A 
BRANCH   4   8
ATOM      8  C   UNL     1      48.495   5.417  16.559  0.00  0.00    +0.000 C 
ATOM      9  N   UNL     1      47.980   6.098  17.625  0.00  0.00    +0.000 N 
ATOM     10  O   UNL     1      49.406   4.615  16.732  0.00  0.00    +0.000 OA
ATOM     11  H   UNL     1      47.251   6.791  17.581  0.00  0.00    +0.000 HD
ATOM     12  H   UNL     1      48.398   5.904  18.527  0.00  0.00    +0.000 HD
ENDBRANCH   4   8
BRANCH   2  14
ATOM     13  C   UNL     1      49.365   8.354  11.826  0.00  0.00    +0.000 C 
ATOM     14  O   UNL     1      48.203   8.349  12.647  0.00  0.00    +0.000 OA
ENDBRANCH   2  14
ENDBRANCH   1   7
BRANCH   1  15
ATOM     15  C   UNL     1      45.008   6.124  11.243  0.00  0.00    +0.000 C 
BRANCH  15  16
ATOM     16  C   UNL     1      44.827   4.780  10.571  0.00  0.00    +0.000 A 
ATOM     17  C   UNL     1      43.909   3.863  11.101  0.00  0.00    +0.000 A 
ATOM     18  C   UNL     1      43.778   2.600  10.534  0.00  0.00    +0.000 A 
ATOM     19  C   UNL     1      44.563   2.245   9.438  0.00  0.00    +0.000 A 
ATOM     20  F   UNL     1      44.410   1.007   8.943  0.00  0.00    +0.000 F 
ATOM     21  C   UNL     1      45.494   3.130   8.868  0.00  0.00    +0.000 A 
ATOM     22  C   UNL     1      45.614   4.398   9.471  0.00  0.00    +0.000 A 
BRANCH  21  23
ATOM     23  C   UNL     1      46.296   2.780   7.675  0.00  0.00    +0.000 A 
ATOM     24  C   UNL     1      46.286   3.560   6.508  0.00  0.00    +0.000 A 
ATOM     25  C   UNL     1      47.016   3.174   5.384  0.00  0.00    +0.000 A 
ATOM     26  C   UNL     1      47.759   2.010   5.452  0.00  0.00    +0.000 A 
ATOM     27  N   UNL     1      47.813   1.227   6.546  0.00  0.00    +0.000 NA
ATOM     28  C   UNL     1      47.085   1.629   7.620  0.00  0.00    +0.000 A 
ENDBRANCH  21  23
ENDBRANCH  15  16
ENDBRANCH   1  15
TORSDOF 6
ENDMDL
MODEL 3
REMARK VINA RESULT:    -7.495      2.777      6.896
REMARK INTER + INTRA:         -10.997
REMARK INTER:                 -11.060
REMARK INTRA:                   0.063
REMARK UNBOUND:                -0.873
REMARK  Name = 
REMARK  7 active torsions:
REMARK  status: ('A' for Active; 'I' for Inactive)
REMARK    1  A    between atoms: C_1  and  O_2
REMARK    2  A    between atoms: O_2  and  C_3
REMARK    3  A    between atoms: C_5  and  C_6
REMARK    4  A    between atoms: C_11  and  O_12
REMARK    5  A    between atoms: O_12  and  C_13
REMARK    6  A    between atoms: C_13  and  C_14
REMARK    7  A    between atoms: C_19  and  C_20
REMARK                            x       y       z     vdW  Elec       q    Type
REMARK                         _______ _______ _______ _____ _____    ______ ____
ROOT
ATOM      1  O   UNL     1      43.771   4.779  10.259  0.00  0.00    +0.000 OA
ENDROOT
BRANCH   1   7
ATOM      2  C   UNL     1      44.609   2.544   9.512  0.00  0.00    +0.000 A 
ATOM      3  C   UNL     1      45.521   1.888   8.676  0.00  0.00    +0.000 A 
ATOM      4  C   UNL     1      46.394   2.599   7.837  0.00  0.00    +0.000 A 
ATOM      5  C   UNL     1      46.347   3.994   7.837  0.00  0.00    +0.000 A 
ATOM      6  C   UNL     1      45.443   4.658   8.672  0.00  0.00    +0.000 A 
ATOM      7  C   UNL     1      44.571   3.950   9.515  0.00  0.00    +0.000 A 
BRANCH   4   8
ATOM      8  C   UNL     1      47.322   1.800   6.983  0.00  0.00    +0.000 C 
ATOM      9  N   UNL     1      48.433   2.407   6.471  0.00  0.00    +0.000 N 
ATOM     10  O   UNL     1      47.103   0.621   6.734  0.00  0.00    +0.000 OA
ATOM     11  H   UNL     1      48.685   3.372   6.599  0.00  0.00    +0.000 HD
ATOM     12  H   UNL     1      49.030   1.833   5.888  0.00  0.00    +0.000 HD
ENDBRANCH   4   8
BRANCH   2  14
ATOM     13  C   UNL     1      43.456   2.351  11.596  0.00  0.00    +0.000 C 
ATOM     14  O   UNL     1      43.702   1.865  10.282  0.00  0.00    +0.000 OA
ENDBRANCH   2  14
ENDBRANCH   1   7
BRANCH   1  15
ATOM     15  C   UNL     1      44.308   6.029  10.691  0.00  0.00    +0.000 C 
BRANCH  15  16
ATOM     16  C   UNL     1      45.341   5.832  11.779  0.00  0.00    +0.000 A 
ATOM     17  C   UNL     1      45.062   4.965  12.844  0.00  0.00    +0.000 A 
ATOM     18  C   UNL     1      45.974   4.823  13.886  0.00  0.00    +0.000 A 
ATOM     19  C   UNL     1      47.164   5.547  13.870  0.00  0.00    +0.000 A 
ATOM     20  F   UNL     1      47.998   5.387  14.910  0.00  0.00    +0.000 F 
ATOM     21  C   UNL     1      47.492   6.425  12.824  0.00  0.00    +0.000 A 
ATOM     22  C   UNL     1      46.545   6.559  11.789  0.00  0.00    +0.000 A 
BRANCH  21  23
ATOM     23  C   UNL     1      48.774   7.161  12.775  0.00  0.00    +0.000 A 
ATOM     24  C   UNL     1      49.425   7.458  11.567  0.00  0.00    +0.000 A 
ATOM     25  C   UNL     1      50.658   8.109  11.560  0.00  0.00    +0.000 A 
ATOM     26  C   UNL     1      51.218   8.466  12.773  0.00  0.00    +0.000 A 
ATOM     27  N   UNL     1      50.638   8.215  13.961  0.00  0.00    +0.000 NA
ATOM     28  C   UNL     1      49.441   7.573  13.931  0.00  0.00    +0.000 A 
ENDBRANCH  21  23
ENDBRANCH  15  16
ENDBRANCH   1  15
TORSDOF 6
ENDMDL
MODEL 4
REMARK VINA RESULT:    -6.893      3.665      5.250
REMARK INTER + INTRA:         -10.184
REMARK INTER:                  -9.154
REMARK INTRA:                  -1.029
REMARK UNBOUND:                -0.873
REMARK  Name = 
REMARK  7 active torsions:
REMARK  status: ('A' for Active; 'I' for Inactive)
REMARK    1  A    between atoms: C_1  and  O_2
REMARK    2  A    between atoms: O_2  and  C_3
REMARK    3  A    between atoms: C_5  and  C_6
REMARK    4  A    between atoms: C_11  and  O_12
REMARK    5  A    between atoms: O_12  and  C_13
REMARK    6  A    between atoms: C_13  and  C_14
REMARK    7  A    between atoms: C_19  and  C_20
REMARK                            x       y       z     vdW  Elec       q    Type
REMARK                         _______ _______ _______ _____ _____    ______ ____
ROOT
ATOM      1  O   UNL     1      48.966   6.249  14.464  0.00  0.00    +0.000 OA
ENDROOT
BRANCH   1   7
ATOM      2  C   UNL     1      48.231   5.168  16.596  0.00  0.00    +0.000 A 
ATOM      3  C   UNL     1      47.951   5.387  17.951  0.00  0.00    +0.000 A 
ATOM      4  C   UNL     1      48.089   6.657  18.534  0.00  0.00    +0.000 A 
ATOM      5  C   UNL     1      48.519   7.723  17.743  0.00  0.00    +0.000 A 
ATOM      6  C   UNL     1      48.797   7.514  16.388  0.00  0.00    +0.000 A 
ATOM      7  C   UNL     1      48.656   6.247  15.800  0.00  0.00    +0.000 A 
BRANCH   4   8
ATOM      8  C   UNL     1      47.769   6.778  19.987  0.00  0.00    +0.000 C 
ATOM      9  N   UNL     1      47.139   5.740  20.612  0.00  0.00    +0.000 N 
ATOM     10  O   UNL     1      48.059   7.785  20.622  0.00  0.00    +0.000 OA
ATOM     11  H   UNL     1      46.841   4.885  20.173  0.00  0.00    +0.000 HD
ATOM     12  H   UNL     1      46.930   5.868  21.595  0.00  0.00    +0.000 HD
ENDBRANCH   4   8
BRANCH   2  14
ATOM     13  C   UNL     1      48.195   2.797  16.897  0.00  0.00    +0.000 C 
ATOM     14  O   UNL     1      48.170   3.923  16.028  0.00  0.00    +0.000 OA
ENDBRANCH   2  14
ENDBRANCH   1   7
BRANCH   1  15
ATOM     15  C   UNL     1      48.790   7.462  13.732  0.00  0.00    +0.000 C 
BRANCH  15  16
ATOM     16  C   UNL     1      47.464   7.472  13.003  0.00  0.00    +0.000 A 
ATOM     17  C   UNL     1      46.595   8.558  13.171  0.00  0.00    +0.000 A 
ATOM     18  C   UNL     1      45.345   8.553  12.559  0.00  0.00    +0.000 A 
ATOM     19  C   UNL     1      44.957   7.464  11.782  0.00  0.00    +0.000 A 
ATOM     20  F   UNL     1      43.733   7.502  11.232  0.00  0.00    +0.000 F 
ATOM     21  C   UNL     1      45.793   6.354  11.579  0.00  0.00    +0.000 A 
ATOM     22  C   UNL     1      47.048   6.380  12.221  0.00  0.00    +0.000 A 
BRANCH  21  23
ATOM     23  C   UNL     1      45.409   5.216  10.715  0.00  0.00    +0.000 A 
ATOM     24  C   UNL     1      45.706   5.180   9.344  0.00  0.00    +0.000 A 
ATOM     25  C   UNL     1      45.285   4.114   8.549  0.00  0.00    +0.000 A 
ATOM     26  C   UNL     1      44.579   3.087   9.148  0.00  0.00    +0.000 A 
ATOM     27  N   UNL     1      44.273   3.064  10.459  0.00  0.00    +0.000 NA
ATOM     28  C   UNL     1      44.692   4.120  11.202  0.00  0.00    +0.000 A 
ENDBRANCH  21  23
ENDBRANCH  15  16
ENDBRANCH   1  15
TORSDOF 6
ENDMDL
MODEL 5
REMARK VINA RESULT:    -6.717      5.110      8.700
REMARK INTER + INTRA:          -9.946
REMARK INTER:                  -8.908
REMARK INTRA:                  -1.039
REMARK UNBOUND:                -0.873
REMARK  Name = 
REMARK  7 active torsions:
REMARK  status: ('A' for Active; 'I' for Inactive)
REMARK    1  A    between atoms: C_1  and  O_2
REMARK    2  A    between atoms: O_2  and  C_3
REMARK    3  A    between atoms: C_5  and  C_6
REMARK    4  A    between atoms: C_11  and  O_12
REMARK    5  A    between atoms: O_12  and  C_13
REMARK    6  A    between atoms: C_13  and  C_14
REMARK    7  A    between atoms: C_19  and  C_20
REMARK                            x       y       z     vdW  Elec       q    Type
REMARK                         _______ _______ _______ _____ _____    ______ ____
ROOT
ATOM      1  O   UNL     1      48.736   6.355  14.225  0.00  0.00    +0.000 OA
ENDROOT
BRANCH   1   7
ATOM      2  C   UNL     1      46.761   4.844  13.966  0.00  0.00    +0.000 A 
ATOM      3  C   UNL     1      45.463   4.738  13.450  0.00  0.00    +0.000 A 
ATOM      4  C   UNL     1      44.847   5.810  12.785  0.00  0.00    +0.000 A 
ATOM      5  C   UNL     1      45.546   7.010  12.641  0.00  0.00    +0.000 A 
ATOM      6  C   UNL     1      46.843   7.122  13.149  0.00  0.00    +0.000 A 
ATOM      7  C   UNL     1      47.465   6.052  13.810  0.00  0.00    +0.000 A 
BRANCH   4   8
ATOM      8  C   UNL     1      43.460   5.592  12.280  0.00  0.00    +0.000 C 
ATOM      9  N   UNL     1      43.160   5.960  10.999  0.00  0.00    +0.000 N 
ATOM     10  O   UNL     1      42.593   5.095  12.988  0.00  0.00    +0.000 OA
ATOM     11  H   UNL     1      43.794   6.395  10.350  0.00  0.00    +0.000 HD
ATOM     12  H   UNL     1      42.205   5.806  10.699  0.00  0.00    +0.000 HD
ENDBRANCH   4   8
BRANCH   2  14
ATOM     13  C   UNL     1      47.037   3.729  16.062  0.00  0.00    +0.000 C 
ATOM     14  O   UNL     1      47.350   3.833  14.679  0.00  0.00    +0.000 OA
ENDBRANCH   2  14
ENDBRANCH   1   7
BRANCH   1  15
ATOM     15  C   UNL     1      48.892   7.261  15.318  0.00  0.00    +0.000 C 
BRANCH  15  16
ATOM     16  C   UNL     1      49.158   6.517  16.609  0.00  0.00    +0.000 A 
ATOM     17  C   UNL     1      48.657   7.028  17.813  0.00  0.00    +0.000 A 
ATOM     18  C   UNL     1      48.947   6.392  19.016  0.00  0.00    +0.000 A 
ATOM     19  C   UNL     1      49.740   5.246  19.022  0.00  0.00    +0.000 A 
ATOM     20  F   UNL     1      50.005   4.684  20.212  0.00  0.00    +0.000 F 
ATOM     21  C   UNL     1      50.261   4.691  17.841  0.00  0.00    +0.000 A 
ATOM     22  C   UNL     1      49.962   5.364  16.640  0.00  0.00    +0.000 A 
BRANCH  21  23
ATOM     23  C   UNL     1      51.062   3.448  17.833  0.00  0.00    +0.000 A 
ATOM     24  C   UNL     1      52.390   3.406  18.287  0.00  0.00    +0.000 A 
ATOM     25  C   UNL     1      53.133   2.227  18.218  0.00  0.00    +0.000 A 
ATOM     26  C   UNL     1      52.524   1.098  17.704  0.00  0.00    +0.000 A 
ATOM     27  N   UNL     1      51.252   1.076  17.262  0.00  0.00    +0.000 NA
ATOM     28  C   UNL     1      50.561   2.242  17.337  0.00  0.00    +0.000 A 
ENDBRANCH  21  23
ENDBRANCH  15  16
ENDBRANCH   1  15
TORSDOF 6
ENDMDL
MODEL 6
REMARK VINA RESULT:    -6.697      4.704      7.081
REMARK INTER + INTRA:          -9.919
REMARK INTER:                  -8.883
REMARK INTRA:                  -1.037
REMARK UNBOUND:                -0.873
REMARK  Name = 
REMARK  7 active torsions:
REMARK  status: ('A' for Active; 'I' for Inactive)
REMARK    1  A    between atoms: C_1  and  O_2
REMARK    2  A    between atoms: O_2  and  C_3
REMARK    3  A    between atoms: C_5  and  C_6
REMARK    4  A    between atoms: C_11  and  O_12
REMARK    5  A    between atoms: O_12  and  C_13
REMARK    6  A    between atoms: C_13  and  C_14
REMARK    7  A    between atoms: C_19  and  C_20
REMARK                            x       y       z     vdW  Elec       q    Type
REMARK                         _______ _______ _______ _____ _____    ______ ____
ROOT
ATOM      1  O   UNL     1      49.551   6.370  17.185  0.00  0.00    +0.000 OA
ENDROOT
BRANCH   1   7
ATOM      2  C   UNL     1      49.429   3.873  17.233  0.00  0.00    +0.000 A 
ATOM      3  C   UNL     1      50.173   2.696  17.384  0.00  0.00    +0.000 A 
ATOM      4  C   UNL     1      51.562   2.725  17.590  0.00  0.00    +0.000 A 
ATOM      5  C   UNL     1      52.214   3.958  17.641  0.00  0.00    +0.000 A 
ATOM      6  C   UNL     1      51.478   5.138  17.495  0.00  0.00    +0.000 A 
ATOM      7  C   UNL     1      50.089   5.114  17.294  0.00  0.00    +0.000 A 
BRANCH   4   8
ATOM      8  C   UNL     1      52.257   1.412  17.733  0.00  0.00    +0.000 C 
ATOM      9  N   UNL     1      51.527   0.315  18.090  0.00  0.00    +0.000 N 
ATOM     10  O   UNL     1      53.462   1.304  17.539  0.00  0.00    +0.000 OA
ATOM     11  H   UNL     1      50.541   0.307  18.292  0.00  0.00    +0.000 HD
ATOM     12  H   UNL     1      52.039  -0.554  18.187  0.00  0.00    +0.000 HD
ENDBRANCH   4   8
BRANCH   2  14
ATOM     13  C   UNL     1      47.288   2.881  17.614  0.00  0.00    +0.000 C 
ATOM     14  O   UNL     1      48.087   3.861  16.961  0.00  0.00    +0.000 OA
ENDBRANCH   2  14
ENDBRANCH   1   7
BRANCH   1  15
ATOM     15  C   UNL     1      50.161   7.290  16.279  0.00  0.00    +0.000 C 
BRANCH  15  16
ATOM     16  C   UNL     1      49.548   7.184  14.899  0.00  0.00    +0.000 A 
ATOM     17  C   UNL     1      50.177   7.813  13.817  0.00  0.00    +0.000 A 
ATOM     18  C   UNL     1      49.593   7.780  12.554  0.00  0.00    +0.000 A 
ATOM     19  C   UNL     1      48.380   7.121  12.367  0.00  0.00    +0.000 A 
ATOM     20  F   UNL     1      47.851   7.137  11.134  0.00  0.00    +0.000 F 
ATOM     21  C   UNL     1      47.712   6.471  13.419  0.00  0.00    +0.000 A 
ATOM     22  C   UNL     1      48.320   6.533  14.689  0.00  0.00    +0.000 A 
BRANCH  21  23
ATOM     23  C   UNL     1      46.449   5.728  13.220  0.00  0.00    +0.000 A 
ATOM     24  C   UNL     1      45.235   6.373  12.935  0.00  0.00    +0.000 A 
ATOM     25  C   UNL     1      44.052   5.645  12.803  0.00  0.00    +0.000 A 
ATOM     26  C   UNL     1      44.108   4.271  12.947  0.00  0.00    +0.000 A 
ATOM     27  N   UNL     1      45.243   3.599  13.211  0.00  0.00    +0.000 NA
ATOM     28  C   UNL     1      46.375   4.339  13.341  0.00  0.00    +0.000 A 
ENDBRANCH  21  23
ENDBRANCH  15  16
ENDBRANCH   1  15
TORSDOF 6
ENDMDL
MODEL 7
REMARK VINA RESULT:    -6.298      4.497      9.143
REMARK INTER + INTRA:          -9.380
REMARK INTER:                  -8.488
REMARK INTRA:                  -0.892
REMARK UNBOUND:                -0.873
REMARK  Name = 
REMARK  7 active torsions:
REMARK  status: ('A' for Active; 'I' for Inactive)
REMARK    1  A    between atoms: C_1  and  O_2
REMARK    2  A    between atoms: O_2  and  C_3
REMARK    3  A    between atoms: C_5  and  C_6
REMARK    4  A    between atoms: C_11  and  O_12
REMARK    5  A    between atoms: O_12  and  C_13
REMARK    6  A    between atoms: C_13  and  C_14
REMARK    7  A    between atoms: C_19  and  C_20
REMARK                            x       y       z     vdW  Elec       q    Type
REMARK                         _______ _______ _______ _____ _____    ______ ____
ROOT
ATOM      1  O   UNL     1      46.336   4.557  14.580  0.00  0.00    +0.000 OA
ENDROOT
BRANCH   1   7
ATOM      2  C   UNL     1      46.299   5.832  12.430  0.00  0.00    +0.000 A 
ATOM      3  C   UNL     1      45.974   5.768  11.069  0.00  0.00    +0.000 A 
ATOM      4  C   UNL     1      45.457   4.597  10.491  0.00  0.00    +0.000 A 
ATOM      5  C   UNL     1      45.267   3.472  11.294  0.00  0.00    +0.000 A 
ATOM      6  C   UNL     1      45.585   3.529  12.655  0.00  0.00    +0.000 A 
ATOM      7  C   UNL     1      46.098   4.698  13.237  0.00  0.00    +0.000 A 
BRANCH   4   8
ATOM      8  C   UNL     1      45.150   4.636   9.031  0.00  0.00    +0.000 C 
ATOM      9  N   UNL     1      43.905   4.265   8.610  0.00  0.00    +0.000 N 
ATOM     10  O   UNL     1      45.989   4.989   8.211  0.00  0.00    +0.000 OA
ATOM     11  H   UNL     1      43.158   3.939   9.201  0.00  0.00    +0.000 HD
ATOM     12  H   UNL     1      43.741   4.294   7.610  0.00  0.00    +0.000 HD
ENDBRANCH   4   8
BRANCH   2  14
ATOM     13  C   UNL     1      48.290   7.027  12.997  0.00  0.00    +0.000 C 
ATOM     14  O   UNL     1      46.870   6.942  12.994  0.00  0.00    +0.000 OA
ENDBRANCH   2  14
ENDBRANCH   1   7
BRANCH   1  15
ATOM     15  C   UNL     1      47.247   3.542  15.002  0.00  0.00    +0.000 C 
BRANCH  15  16
ATOM     16  C   UNL     1      47.772   3.823  16.394  0.00  0.00    +0.000 A 
ATOM     17  C   UNL     1      48.075   2.751  17.244  0.00  0.00    +0.000 A 
ATOM     18  C   UNL     1      48.496   2.992  18.548  0.00  0.00    +0.000 A 
ATOM     19  C   UNL     1      48.613   4.302  19.009  0.00  0.00    +0.000 A 
ATOM     20  F   UNL     1      49.004   4.477  20.281  0.00  0.00    +0.000 F 
ATOM     21  C   UNL     1      48.326   5.410  18.194  0.00  0.00    +0.000 A 
ATOM     22  C   UNL     1      47.889   5.135  16.882  0.00  0.00    +0.000 A 
BRANCH  21  23
ATOM     23  C   UNL     1      48.494   6.804  18.659  0.00  0.00    +0.000 A 
ATOM     24  C   UNL     1      47.432   7.552  19.191  0.00  0.00    +0.000 A 
ATOM     25  C   UNL     1      47.615   8.881  19.575  0.00  0.00    +0.000 A 
ATOM     26  C   UNL     1      48.871   9.439  19.428  0.00  0.00    +0.000 A 
ATOM     27  N   UNL     1      49.928   8.768  18.932  0.00  0.00    +0.000 NA
ATOM     28  C   UNL     1      49.713   7.479  18.563  0.00  0.00    +0.000 A 
ENDBRANCH  21  23
ENDBRANCH  15  16
ENDBRANCH   1  15
TORSDOF 6
ENDMDL
MODEL 8
REMARK VINA RESULT:    -6.037      5.085      7.121
REMARK INTER + INTRA:          -9.028
REMARK INTER:                  -8.303
REMARK INTRA:                  -0.725
REMARK UNBOUND:                -0.873
REMARK  Name = 
REMARK  7 active torsions:
REMARK  status: ('A' for Active; 'I' for Inactive)
REMARK    1  A    between atoms: C_1  and  O_2
REMARK    2  A    between atoms: O_2  and  C_3
REMARK    3  A    between atoms: C_5  and  C_6
REMARK    4  A    between atoms: C_11  and  O_12
REMARK    5  A    between atoms: O_12  and  C_13
REMARK    6  A    between atoms: C_13  and  C_14
REMARK    7  A    between atoms: C_19  and  C_20
REMARK                            x       y       z     vdW  Elec       q    Type
REMARK                         _______ _______ _______ _____ _____    ______ ____
ROOT
ATOM      1  O   UNL     1      49.090   4.852  17.434  0.00  0.00    +0.000 OA
ENDROOT
BRANCH   1   7
ATOM      2  C   UNL     1      51.462   4.297  18.003  0.00  0.00    +0.000 A 
ATOM      3  C   UNL     1      52.408   3.268  18.071  0.00  0.00    +0.000 A 
ATOM      4  C   UNL     1      52.082   1.944  17.734  0.00  0.00    +0.000 A 
ATOM      5  C   UNL     1      50.780   1.651  17.325  0.00  0.00    +0.000 A 
ATOM      6  C   UNL     1      49.830   2.673  17.250  0.00  0.00    +0.000 A 
ATOM      7  C   UNL     1      50.153   3.998  17.581  0.00  0.00    +0.000 A 
BRANCH   4   8
ATOM      8  C   UNL     1      53.166   0.924  17.848  0.00  0.00    +0.000 C 
ATOM      9  N   UNL     1      53.357   0.049  16.818  0.00  0.00    +0.000 N 
ATOM     10  O   UNL     1      53.878   0.858  18.843  0.00  0.00    +0.000 OA
ATOM     11  H   UNL     1      52.812   0.009  15.973  0.00  0.00    +0.000 HD
ATOM     12  H   UNL     1      54.095  -0.634  16.940  0.00  0.00    +0.000 HD
ENDBRANCH   4   8
BRANCH   2  14
ATOM     13  C   UNL     1      52.028   5.802  19.771  0.00  0.00    +0.000 C 
ATOM     14  O   UNL     1      51.744   5.579  18.395  0.00  0.00    +0.000 OA
ENDBRANCH   2  14
ENDBRANCH   1   7
BRANCH   1  15
ATOM     15  C   UNL     1      47.921   4.369  16.773  0.00  0.00    +0.000 C 
BRANCH  15  16
ATOM     16  C   UNL     1      47.717   5.067  15.445  0.00  0.00    +0.000 A 
ATOM     17  C   UNL     1      48.524   6.164  15.113  0.00  0.00    +0.000 A 
ATOM     18  C   UNL     1      48.306   6.857  13.927  0.00  0.00    +0.000 A 
ATOM     19  C   UNL     1      47.281   6.460  13.069  0.00  0.00    +0.000 A 
ATOM     20  F   UNL     1      47.102   7.177  11.948  0.00  0.00    +0.000 F 
ATOM     21  C   UNL     1      46.448   5.366  13.355  0.00  0.00    +0.000 A 
ATOM     22  C   UNL     1      46.684   4.691  14.570  0.00  0.00    +0.000 A 
BRANCH  21  23
ATOM     23  C   UNL     1      45.391   4.908  12.428  0.00  0.00    +0.000 A 
ATOM     24  C   UNL     1      45.311   3.581  11.975  0.00  0.00    +0.000 A 
ATOM     25  C   UNL     1      44.329   3.195  11.062  0.00  0.00    +0.000 A 
ATOM     26  C   UNL     1      43.430   4.149  10.623  0.00  0.00    +0.000 A 
ATOM     27  N   UNL     1      43.453   5.433  11.028  0.00  0.00    +0.000 NA
ATOM     28  C   UNL     1      44.425   5.776  11.912  0.00  0.00    +0.000 A 
ENDBRANCH  21  23
ENDBRANCH  15  16
ENDBRANCH   1  15
TORSDOF 6
ENDMDL
MODEL 9
REMARK VINA RESULT:    -5.964      3.527      7.107
REMARK INTER + INTRA:          -8.929
REMARK INTER:                  -7.941
REMARK INTRA:                  -0.988
REMARK UNBOUND:                -0.873
REMARK  Name = 
REMARK  7 active torsions:
REMARK  status: ('A' for Active; 'I' for Inactive)
REMARK    1  A    between atoms: C_1  and  O_2
REMARK    2  A    between atoms: O_2  and  C_3
REMARK    3  A    between atoms: C_5  and  C_6
REMARK    4  A    between atoms: C_11  and  O_12
REMARK    5  A    between atoms: O_12  and  C_13
REMARK    6  A    between atoms: C_13  and  C_14
REMARK    7  A    between atoms: C_19  and  C_20
REMARK                            x       y       z     vdW  Elec       q    Type
REMARK                         _______ _______ _______ _____ _____    ______ ____
ROOT
ATOM      1  O   UNL     1      45.962   7.047  13.072  0.00  0.00    +0.000 OA
ENDROOT
BRANCH   1   7
ATOM      2  C   UNL     1      45.566   4.606  12.699  0.00  0.00    +0.000 A 
ATOM      3  C   UNL     1      45.286   3.629  11.736  0.00  0.00    +0.000 A 
ATOM      4  C   UNL     1      45.115   3.958  10.382  0.00  0.00    +0.000 A 
ATOM      5  C   UNL     1      45.223   5.294   9.990  0.00  0.00    +0.000 A 
ATOM      6  C   UNL     1      45.507   6.276  10.944  0.00  0.00    +0.000 A 
ATOM      7  C   UNL     1      45.683   5.950  12.298  0.00  0.00    +0.000 A 
BRANCH   4   8
ATOM      8  C   UNL     1      44.815   2.840   9.440  0.00  0.00    +0.000 C 
ATOM      9  N   UNL     1      44.169   1.734   9.916  0.00  0.00    +0.000 N 
ATOM     10  O   UNL     1      45.137   2.896   8.260  0.00  0.00    +0.000 OA
ATOM     11  H   UNL     1      43.886   1.585  10.870  0.00  0.00    +0.000 HD
ATOM     12  H   UNL     1      43.994   0.993   9.247  0.00  0.00    +0.000 HD
ENDBRANCH   4   8
BRANCH   2  14
ATOM     13  C   UNL     1      46.968   4.258  14.603  0.00  0.00    +0.000 C 
ATOM     14  O   UNL     1      45.666   4.312  14.033  0.00  0.00    +0.000 OA
ENDBRANCH   2  14
ENDBRANCH   1   7
BRANCH   1  15
ATOM     15  C   UNL     1      46.623   8.155  12.460  0.00  0.00    +0.000 C 
BRANCH  15  16
ATOM     16  C   UNL     1      48.110   8.129  12.746  0.00  0.00    +0.000 A 
ATOM     17  C   UNL     1      48.554   8.060  14.073  0.00  0.00    +0.000 A 
ATOM     18  C   UNL     1      49.915   8.101  14.356  0.00  0.00    +0.000 A 
ATOM     19  C   UNL     1      50.838   8.213  13.318  0.00  0.00    +0.000 A 
ATOM     20  F   UNL     1      52.137   8.269  13.649  0.00  0.00    +0.000 F 
ATOM     21  C   UNL     1      50.443   8.281  11.971  0.00  0.00    +0.000 A 
ATOM     22  C   UNL     1      49.057   8.251  11.715  0.00  0.00    +0.000 A 
BRANCH  21  23
ATOM     23  C   UNL     1      51.416   8.351  10.860  0.00  0.00    +0.000 A 
ATOM     24  C   UNL     1      51.883   7.205  10.197  0.00  0.00    +0.000 A 
ATOM     25  C   UNL     1      52.839   7.304   9.186  0.00  0.00    +0.000 A 
ATOM     26  C   UNL     1      53.306   8.560   8.844  0.00  0.00    +0.000 A 
ATOM     27  N   UNL     1      52.889   9.693   9.439  0.00  0.00    +0.000 NA
ATOM     28  C   UNL     1      51.963   9.560  10.423  0.00  0.00    +0.000 A 
ENDBRANCH  21  23
ENDBRANCH  15  16
ENDBRANCH   1  15
TORSDOF 6
ENDMDL
