MODEL 1
REMARK VINA RESULT:    -9.033      0.000      0.000
REMARK INTER + INTRA:         -14.015
REMARK INTER:                 -12.730
REMARK INTRA:                  -1.285
REMARK UNBOUND:                -1.285
REMARK  Name = 
REMARK  7 active torsions:
REMARK  status: ('A' for Active; 'I' for Inactive)
REMARK    1  A    between atoms: C_2  and  C_4
REMARK    2  A    between atoms: C_7  and  N_8
REMARK    3  A    between atoms: N_8  and  C_9
REMARK    4  A    between atoms: C_9  and  C_10
REMARK    5  A    between atoms: C_10  and  C_13
REMARK    6  A    between atoms: C_18  and  O_19
REMARK    7  A    between atoms: O_19  and  C_20
REMARK                            x       y       z     vdW  Elec       q    Type
REMARK                         _______ _______ _______ _____ _____    ______ ____
ROOT
ATOM      1  C   UNL     1      43.987   4.851  12.418  0.00  0.00    +0.000 C 
ATOM      2  F   UNL     1      43.115   5.480  13.259  0.00  0.00    +0.000 F 
ATOM      3  F   UNL     1      43.860   3.517  12.696  0.00  0.00    +0.000 F 
ENDROOT
BRANCH   1   4
ATOM      4  C   UNL     1      45.410   5.342  12.603  0.00  0.00    +0.000 A 
ATOM      5  C   UNL     1      45.993   6.224  11.681  0.00  0.00    +0.000 A 
ATOM      6  C   UNL     1      47.278   6.721  11.902  0.00  0.00    +0.000 A 
ATOM      7  C   UNL     1      47.994   6.340  13.039  0.00  0.00    +0.000 A 
ATOM      8  F   UNL     1      49.210   6.873  13.226  0.00  0.00    +0.000 F 
ATOM      9  C   UNL     1      47.439   5.455  13.961  0.00  0.00    +0.000 A 
ATOM     10  C   UNL     1      46.148   4.964  13.738  0.00  0.00    +0.000 A 
BRANCH   9  11
ATOM     11  O   UNL     1      48.004   5.040  15.139  0.00  0.00    +0.000 OA
BRANCH  11  12
ATOM     12  C   UNL     1      47.359   4.017  15.931  0.00  0.00    +0.000 C 
ATOM     13  C   UNL     1      47.149   4.312  17.434  0.00  0.00    +0.000 C 
ATOM     14  C   UNL     1      47.791   2.962  17.778  0.00  0.00    +0.000 C 
ATOM     15  C   UNL     1      48.316   2.871  16.344  0.00  0.00    +0.000 C 
ENDBRANCH  11  12
ENDBRANCH   9  11
ENDBRANCH   1   4
BRANCH   1  16
ATOM     16  C   UNL     1      43.539   5.083  10.951  0.00  0.00    +0.000 C 
BRANCH  16  17
ATOM     17  N   UNL     1      43.536   3.854  10.143  0.00  0.00    +0.000 N 
ATOM     18  H   UNL     1      43.086   3.053  10.588  0.00  0.00    +0.000 HD
BRANCH  17  22
ATOM     19  C   UNL     1      46.648   2.686   7.554  0.00  0.00    +0.000 A 
ATOM     20  C   UNL     1      46.309   4.037   7.655  0.00  0.00    +0.000 A 
ATOM     21  C   UNL     1      45.293   4.442   8.526  0.00  0.00    +0.000 A 
ATOM     22  C   UNL     1      44.615   3.520   9.333  0.00  0.00    +0.000 A 
ATOM     23  C   UNL     1      44.956   2.166   9.204  0.00  0.00    +0.000 A 
ATOM     24  C   UNL     1      45.957   1.747   8.322  0.00  0.00    +0.000 A 
BRANCH  19  26
ATOM     25  N   UNL     1      47.946   2.989   5.517  0.00  0.00    +0.000 N 
ATOM     26  C   UNL     1      47.696   2.210   6.615  0.00  0.00    +0.000 C 
ATOM     27  O   UNL     1      48.336   1.191   6.824  0.00  0.00    +0.000 OA
ATOM     28  H   UNL     1      48.731   2.709   4.943  0.00  0.00    +0.000 HD
ATOM     29  H   UNL     1      47.629   3.945   5.448  0.00  0.00    +0.000 HD
ENDBRANCH  19  26
ENDBRANCH  17  22
ENDBRANCH  16  17
ENDBRANCH   1  16
TORSDOF 7
ENDMDL
MODEL 2
REMARK VINA RESULT:    -7.816      2.214      4.089
REMARK INTER + INTRA:         -12.300
REMARK INTER:                 -11.466
REMARK INTRA:                  -0.834
REMARK UNBOUND:                -1.285
REMARK  Name = 
REMARK  7 active torsions:
REMARK  status: ('A' for Active; 'I' for Inactive)
REMARK    1  A    between atoms: C_2  and  C_4
REMARK    2  A    between atoms: C_7  and  N_8
REMARK    3  A    between atoms: N_8  and  C_9
REMARK    4  A    between atoms: C_9  and  C_10
REMARK    5  A    between atoms: C_10  and  C_13
REMARK    6  A    between atoms: C_18  and  O_19
REMARK    7  A    between atoms: O_19  and  C_20
REMARK                            x       y       z     vdW  Elec       q    Type
REMARK                         _______ _______ _______ _____ _____    ______ ____
ROOT
ATOM      1  C   UNL     1      44.033   4.981  12.477  0.00  0.00    +0.000 C 
ATOM      2  F   UNL     1      43.007   5.372  13.288  0.00  0.00    +0.000 F 
ATOM      3  F   UNL     1      44.246   3.662  12.775  0.00  0.00    +0.000 F 
ENDROOT
BRANCH   1   4
ATOM      4  C   UNL     1      45.277   5.823  12.686  0.00  0.00    +0.000 A 
ATOM      5  C   UNL     1      46.461   5.250  13.170  0.00  0.00    +0.000 A 
ATOM      6  C   UNL     1      47.617   6.023  13.291  0.00  0.00    +0.000 A 
ATOM      7  C   UNL     1      47.600   7.374  12.937  0.00  0.00    +0.000 A 
ATOM      8  F   UNL     1      48.743   8.066  13.036  0.00  0.00    +0.000 F 
ATOM      9  C   UNL     1      46.429   7.967  12.465  0.00  0.00    +0.000 A 
ATOM     10  C   UNL     1      45.275   7.186  12.341  0.00  0.00    +0.000 A 
BRANCH   9  11
ATOM     11  O   UNL     1      46.284   9.260  12.034  0.00  0.00    +0.000 OA
BRANCH  11  12
ATOM     12  C   UNL     1      44.973   9.867  11.996  0.00  0.00    +0.000 C 
ATOM     13  C   UNL     1      44.157   9.709  10.691  0.00  0.00    +0.000 C 
ATOM     14  C   UNL     1      43.915  11.224  10.671  0.00  0.00    +0.000 C 
ATOM     15  C   UNL     1      45.015  11.392  11.722  0.00  0.00    +0.000 C 
ENDBRANCH  11  12
ENDBRANCH   9  11
ENDBRANCH   1   4
BRANCH   1  16
ATOM     16  C   UNL     1      43.579   5.073  10.997  0.00  0.00    +0.000 C 
BRANCH  16  17
ATOM     17  N   UNL     1      43.619   3.783  10.294  0.00  0.00    +0.000 N 
ATOM     18  H   UNL     1      43.275   2.991  10.838  0.00  0.00    +0.000 HD
BRANCH  17  22
ATOM     19  C   UNL     1      46.606   2.664   7.540  0.00  0.00    +0.000 A 
ATOM     20  C   UNL     1      46.251   4.009   7.660  0.00  0.00    +0.000 A 
ATOM     21  C   UNL     1      45.277   4.398   8.585  0.00  0.00    +0.000 A 
ATOM     22  C   UNL     1      44.658   3.465   9.427  0.00  0.00    +0.000 A 
ATOM     23  C   UNL     1      45.014   2.117   9.279  0.00  0.00    +0.000 A 
ATOM     24  C   UNL     1      45.973   1.714   8.344  0.00  0.00    +0.000 A 
BRANCH  19  26
ATOM     25  N   UNL     1      47.829   3.016   5.466  0.00  0.00    +0.000 N 
ATOM     26  C   UNL     1      47.609   2.204   6.546  0.00  0.00    +0.000 C 
ATOM     27  O   UNL     1      48.241   1.169   6.697  0.00  0.00    +0.000 OA
ATOM     28  H   UNL     1      48.587   2.744   4.853  0.00  0.00    +0.000 HD
ATOM     29  H   UNL     1      47.524   3.978   5.440  0.00  0.00    +0.000 HD
ENDBRANCH  19  26
ENDBRANCH  17  22
ENDBRANCH  16  17
ENDBRANCH   1  16
TORSDOF 7
ENDMDL
MODEL 3
REMARK VINA RESULT:    -7.649      1.953      3.746
REMARK INTER + INTRA:         -12.064
REMARK INTER:                 -11.007
REMARK INTRA:                  -1.057
REMARK UNBOUND:                -1.285
REMARK  Name = 
REMARK  7 active torsions:
REMARK  status: ('A' for Active; 'I' for Inactive)
REMARK    1  A    between atoms: C_2  and  C_4
REMARK    2  A    between atoms: C_7  and  N_8
REMARK    3  A    between atoms: N_8  and  C_9
REMARK    4  A    between atoms: C_9  and  C_10
REMARK    5  A    between atoms: C_10  and  C_13
REMARK    6  A    between atoms: C_18  and  O_19
REMARK    7  A    between atoms: O_19  and  C_20
REMARK                            x       y       z     vdW  Elec       q    Type
REMARK                         _______ _______ _______ _____ _____    ______ ____
ROOT
ATOM      1  C   UNL     1      44.687   5.406  12.385  0.00  0.00    +0.000 C 
ATOM      2  F   UNL     1      43.684   5.888  13.177  0.00  0.00    +0.000 F 
ATOM      3  F   UNL     1      44.572   4.043  12.445  0.00  0.00    +0.000 F 
ENDROOT
BRANCH   1   4
ATOM      4  C   UNL     1      46.052   5.886  12.840  0.00  0.00    +0.000 A 
ATOM      5  C   UNL     1      46.642   5.375  14.006  0.00  0.00    +0.000 A 
ATOM      6  C   UNL     1      47.928   5.775  14.373  0.00  0.00    +0.000 A 
ATOM      7  C   UNL     1      48.633   6.690  13.588  0.00  0.00    +0.000 A 
ATOM      8  F   UNL     1      49.878   7.014  13.963  0.00  0.00    +0.000 F 
ATOM      9  C   UNL     1      48.059   7.219  12.433  0.00  0.00    +0.000 A 
ATOM     10  C   UNL     1      46.772   6.811  12.065  0.00  0.00    +0.000 A 
BRANCH   9  11
ATOM     11  O   UNL     1      48.653   8.079  11.545  0.00  0.00    +0.000 OA
BRANCH  11  12
ATOM     12  C   UNL     1      49.002   9.418  11.958  0.00  0.00    +0.000 C 
ATOM     13  C   UNL     1      48.337   9.959  13.246  0.00  0.00    +0.000 C 
ATOM     14  C   UNL     1      47.920  11.226  12.487  0.00  0.00    +0.000 C 
ATOM     15  C   UNL     1      48.245  10.517  11.170  0.00  0.00    +0.000 C 
ENDBRANCH  11  12
ENDBRANCH   9  11
ENDBRANCH   1   4
BRANCH   1  16
ATOM     16  C   UNL     1      44.437   5.848  10.920  0.00  0.00    +0.000 C 
BRANCH  16  17
ATOM     17  N   UNL     1      43.807   4.805  10.097  0.00  0.00    +0.000 N 
ATOM     18  H   UNL     1      42.981   4.375  10.514  0.00  0.00    +0.000 HD
BRANCH  17  22
ATOM     19  C   UNL     1      46.327   2.287   7.847  0.00  0.00    +0.000 A 
ATOM     20  C   UNL     1      45.435   1.726   8.763  0.00  0.00    +0.000 A 
ATOM     21  C   UNL     1      44.577   2.547   9.501  0.00  0.00    +0.000 A 
ATOM     22  C   UNL     1      44.569   3.936   9.324  0.00  0.00    +0.000 A 
ATOM     23  C   UNL     1      45.484   4.484   8.414  0.00  0.00    +0.000 A 
ATOM     24  C   UNL     1      46.360   3.673   7.685  0.00  0.00    +0.000 A 
BRANCH  19  26
ATOM     25  N   UNL     1      48.358   2.094   6.520  0.00  0.00    +0.000 N 
ATOM     26  C   UNL     1      47.280   1.454   7.070  0.00  0.00    +0.000 C 
ATOM     27  O   UNL     1      47.136   0.246   6.954  0.00  0.00    +0.000 OA
ATOM     28  H   UNL     1      49.052   1.500   6.083  0.00  0.00    +0.000 HD
ATOM     29  H   UNL     1      48.642   3.019   6.804  0.00  0.00    +0.000 HD
ENDBRANCH  19  26
ENDBRANCH  17  22
ENDBRANCH  16  17
ENDBRANCH   1  16
TORSDOF 7
ENDMDL
MODEL 4
REMARK VINA RESULT:    -7.542      2.779      7.683
REMARK INTER + INTRA:         -11.914
REMARK INTER:                 -10.825
REMARK INTRA:                  -1.089
REMARK UNBOUND:                -1.285
REMARK  Name = 
REMARK  7 active torsions:
REMARK  status: ('A' for Active; 'I' for Inactive)
REMARK    1  A    between atoms: C_2  and  C_4
REMARK    2  A    between atoms: C_7  and  N_8
REMARK    3  A    between atoms: N_8  and  C_9
REMARK    4  A    between atoms: C_9  and  C_10
REMARK    5  A    between atoms: C_10  and  C_13
REMARK    6  A    between atoms: C_18  and  O_19
REMARK    7  A    between atoms: O_19  and  C_20
REMARK                            x       y       z     vdW  Elec       q    Type
REMARK                         _______ _______ _______ _____ _____    ______ ____
ROOT
ATOM      1  C   UNL     1      45.047   6.610  11.855  0.00  0.00    +0.000 C 
ATOM      2  F   UNL     1      44.528   6.577  13.117  0.00  0.00    +0.000 F 
ATOM      3  F   UNL     1      44.386   7.626  11.218  0.00  0.00    +0.000 F 
ENDROOT
BRANCH   1   4
ATOM      4  C   UNL     1      44.885   5.283  11.139  0.00  0.00    +0.000 A 
ATOM      5  C   UNL     1      44.346   4.170  11.800  0.00  0.00    +0.000 A 
ATOM      6  C   UNL     1      44.138   2.976  11.108  0.00  0.00    +0.000 A 
ATOM      7  C   UNL     1      44.471   2.879   9.755  0.00  0.00    +0.000 A 
ATOM      8  F   UNL     1      44.219   1.724   9.125  0.00  0.00    +0.000 F 
ATOM      9  C   UNL     1      45.020   3.970   9.082  0.00  0.00    +0.000 A 
ATOM     10  C   UNL     1      45.221   5.166   9.779  0.00  0.00    +0.000 A 
BRANCH   9  11
ATOM     11  O   UNL     1      45.342   4.032   7.751  0.00  0.00    +0.000 OA
BRANCH  11  12
ATOM     12  C   UNL     1      46.655   3.627   7.304  0.00  0.00    +0.000 C 
ATOM     13  C   UNL     1      46.826   3.312   5.800  0.00  0.00    +0.000 C 
ATOM     14  C   UNL     1      47.480   1.973   6.165  0.00  0.00    +0.000 C 
ATOM     15  C   UNL     1      46.967   2.137   7.597  0.00  0.00    +0.000 C 
ENDBRANCH  11  12
ENDBRANCH   9  11
ENDBRANCH   1   4
BRANCH   1  16
ATOM     16  C   UNL     1      46.550   6.986  11.930  0.00  0.00    +0.000 C 
BRANCH  16  17
ATOM     17  N   UNL     1      47.398   5.893  12.430  0.00  0.00    +0.000 N 
ATOM     18  H   UNL     1      47.397   5.054  11.849  0.00  0.00    +0.000 HD
BRANCH  17  22
ATOM     19  C   UNL     1      47.888   4.903  16.496  0.00  0.00    +0.000 A 
ATOM     20  C   UNL     1      48.468   6.072  15.999  0.00  0.00    +0.000 A 
ATOM     21  C   UNL     1      48.296   6.425  14.657  0.00  0.00    +0.000 A 
ATOM     22  C   UNL     1      47.523   5.641  13.791  0.00  0.00    +0.000 A 
ATOM     23  C   UNL     1      46.963   4.461  14.303  0.00  0.00    +0.000 A 
ATOM     24  C   UNL     1      47.145   4.089  15.639  0.00  0.00    +0.000 A 
BRANCH  19  26
ATOM     25  N   UNL     1      47.191   4.967  18.827  0.00  0.00    +0.000 N 
ATOM     26  C   UNL     1      48.075   4.474  17.906  0.00  0.00    +0.000 C 
ATOM     27  O   UNL     1      48.952   3.687  18.230  0.00  0.00    +0.000 OA
ATOM     28  H   UNL     1      47.265   4.586  19.762  0.00  0.00    +0.000 HD
ATOM     29  H   UNL     1      46.319   5.401  18.563  0.00  0.00    +0.000 HD
ENDBRANCH  19  26
ENDBRANCH  17  22
ENDBRANCH  16  17
ENDBRANCH   1  16
TORSDOF 7
ENDMDL
MODEL 5
REMARK VINA RESULT:    -7.407      1.688      2.124
REMARK INTER + INTRA:         -11.723
REMARK INTER:                 -10.944
REMARK INTRA:                  -0.779
REMARK UNBOUND:                -1.285
REMARK  Name = 
REMARK  7 active torsions:
REMARK  status: ('A' for Active; 'I' for Inactive)
REMARK    1  A    between atoms: C_2  and  C_4
REMARK    2  A    between atoms: C_7  and  N_8
REMARK    3  A    between atoms: N_8  and  C_9
REMARK    4  A    between atoms: C_9  and  C_10
REMARK    5  A    between atoms: C_10  and  C_13
REMARK    6  A    between atoms: C_18  and  O_19
REMARK    7  A    between atoms: O_19  and  C_20
REMARK                            x       y       z     vdW  Elec       q    Type
REMARK                         _______ _______ _______ _____ _____    ______ ____
ROOT
ATOM      1  C   UNL     1      45.059   5.399  12.456  0.00  0.00    +0.000 C 
ATOM      2  F   UNL     1      44.048   5.296  13.368  0.00  0.00    +0.000 F 
ATOM      3  F   UNL     1      45.588   4.141  12.358  0.00  0.00    +0.000 F 
ENDROOT
BRANCH   1   4
ATOM      4  C   UNL     1      46.096   6.426  12.871  0.00  0.00    +0.000 A 
ATOM      5  C   UNL     1      45.870   7.796  12.676  0.00  0.00    +0.000 A 
ATOM      6  C   UNL     1      46.803   8.731  13.126  0.00  0.00    +0.000 A 
ATOM      7  C   UNL     1      47.970   8.310  13.767  0.00  0.00    +0.000 A 
ATOM      8  F   UNL     1      48.818   9.247  14.213  0.00  0.00    +0.000 F 
ATOM      9  C   UNL     1      48.220   6.952  13.960  0.00  0.00    +0.000 A 
ATOM     10  C   UNL     1      47.279   6.019  13.512  0.00  0.00    +0.000 A 
BRANCH   9  11
ATOM     11  O   UNL     1      49.291   6.403  14.616  0.00  0.00    +0.000 OA
BRANCH  11  12
ATOM     12  C   UNL     1      49.563   6.767  15.988  0.00  0.00    +0.000 C 
ATOM     13  C   UNL     1      49.852   5.617  16.982  0.00  0.00    +0.000 C 
ATOM     14  C   UNL     1      48.802   6.196  17.940  0.00  0.00    +0.000 C 
ATOM     15  C   UNL     1      48.282   7.078  16.802  0.00  0.00    +0.000 C 
ENDBRANCH  11  12
ENDBRANCH   9  11
ENDBRANCH   1   4
BRANCH   1  16
ATOM     16  C   UNL     1      44.465   5.782  11.076  0.00  0.00    +0.000 C 
BRANCH  16  17
ATOM     17  N   UNL     1      43.879   4.641  10.358  0.00  0.00    +0.000 N 
ATOM     18  H   UNL     1      43.205   4.098  10.898  0.00  0.00    +0.000 HD
BRANCH  17  22
ATOM     19  C   UNL     1      46.377   2.465   7.753  0.00  0.00    +0.000 A 
ATOM     20  C   UNL     1      45.579   1.780   8.671  0.00  0.00    +0.000 A 
ATOM     21  C   UNL     1      44.729   2.487   9.527  0.00  0.00    +0.000 A 
ATOM     22  C   UNL     1      44.634   3.883   9.469  0.00  0.00    +0.000 A 
ATOM     23  C   UNL     1      45.456   4.556   8.553  0.00  0.00    +0.000 A 
ATOM     24  C   UNL     1      46.324   3.859   7.706  0.00  0.00    +0.000 A 
BRANCH  19  26
ATOM     25  N   UNL     1      48.413   2.456   6.420  0.00  0.00    +0.000 N 
ATOM     26  C   UNL     1      47.319   1.754   6.851  0.00  0.00    +0.000 C 
ATOM     27  O   UNL     1      47.153   0.586   6.534  0.00  0.00    +0.000 OA
ATOM     28  H   UNL     1      49.099   1.930   5.893  0.00  0.00    +0.000 HD
ATOM     29  H   UNL     1      48.712   3.315   6.857  0.00  0.00    +0.000 HD
ENDBRANCH  19  26
ENDBRANCH  17  22
ENDBRANCH  16  17
ENDBRANCH   1  16
TORSDOF 7
ENDMDL
MODEL 6
REMARK VINA RESULT:    -6.856      3.339      8.259
REMARK INTER + INTRA:         -10.947
REMARK INTER:                 -10.092
REMARK INTRA:                  -0.855
REMARK UNBOUND:                -1.285
REMARK  Name = 
REMARK  7 active torsions:
REMARK  status: ('A' for Active; 'I' for Inactive)
REMARK    1  A    between atoms: C_2  and  C_4
REMARK    2  A    between atoms: C_7  and  N_8
REMARK    3  A    between atoms: N_8  and  C_9
REMARK    4  A    between atoms: C_9  and  C_10
REMARK    5  A    between atoms: C_10  and  C_13
REMARK    6  A    between atoms: C_18  and  O_19
REMARK    7  A    between atoms: O_19  and  C_20
REMARK                            x       y       z     vdW  Elec       q    Type
REMARK                         _______ _______ _______ _____ _____    ______ ____
ROOT
ATOM      1  C   UNL     1      47.088   6.773  12.118  0.00  0.00    +0.000 C 
ATOM      2  F   UNL     1      46.523   7.932  12.567  0.00  0.00    +0.000 F 
ATOM      3  F   UNL     1      47.756   7.115  10.974  0.00  0.00    +0.000 F 
ENDROOT
BRANCH   1   4
ATOM      4  C   UNL     1      46.052   5.691  11.876  0.00  0.00    +0.000 A 
ATOM      5  C   UNL     1      45.497   4.974  12.946  0.00  0.00    +0.000 A 
ATOM      6  C   UNL     1      44.495   4.032  12.712  0.00  0.00    +0.000 A 
ATOM      7  C   UNL     1      44.043   3.791  11.413  0.00  0.00    +0.000 A 
ATOM      8  F   UNL     1      43.054   2.902  11.244  0.00  0.00    +0.000 F 
ATOM      9  C   UNL     1      44.591   4.483  10.334  0.00  0.00    +0.000 A 
ATOM     10  C   UNL     1      45.591   5.431  10.574  0.00  0.00    +0.000 A 
BRANCH   9  11
ATOM     11  O   UNL     1      44.209   4.386   9.021  0.00  0.00    +0.000 OA
BRANCH  11  12
ATOM     12  C   UNL     1      44.606   3.241   8.234  0.00  0.00    +0.000 C 
ATOM     13  C   UNL     1      45.306   2.079   8.977  0.00  0.00    +0.000 C 
ATOM     14  C   UNL     1      46.432   2.104   7.936  0.00  0.00    +0.000 C 
ATOM     15  C   UNL     1      45.926   3.466   7.454  0.00  0.00    +0.000 C 
ENDBRANCH  11  12
ENDBRANCH   9  11
ENDBRANCH   1   4
BRANCH   1  16
ATOM     16  C   UNL     1      48.130   6.278  13.155  0.00  0.00    +0.000 C 
BRANCH  16  17
ATOM     17  N   UNL     1      47.939   6.855  14.493  0.00  0.00    +0.000 N 
ATOM     18  H   UNL     1      48.130   7.855  14.557  0.00  0.00    +0.000 HD
BRANCH  17  22
ATOM     19  C   UNL     1      48.841   4.890  18.110  0.00  0.00    +0.000 A 
ATOM     20  C   UNL     1      47.961   4.294  17.205  0.00  0.00    +0.000 A 
ATOM     21  C   UNL     1      47.669   4.923  15.992  0.00  0.00    +0.000 A 
ATOM     22  C   UNL     1      48.265   6.141  15.641  0.00  0.00    +0.000 A 
ATOM     23  C   UNL     1      49.132   6.734  16.570  0.00  0.00    +0.000 A 
ATOM     24  C   UNL     1      49.416   6.123  17.795  0.00  0.00    +0.000 A 
BRANCH  19  26
ATOM     25  N   UNL     1      48.412   3.178  19.786  0.00  0.00    +0.000 N 
ATOM     26  C   UNL     1      49.151   4.272  19.425  0.00  0.00    +0.000 C 
ATOM     27  O   UNL     1      50.047   4.692  20.141  0.00  0.00    +0.000 OA
ATOM     28  H   UNL     1      48.702   2.705  20.633  0.00  0.00    +0.000 HD
ATOM     29  H   UNL     1      47.854   2.659  19.124  0.00  0.00    +0.000 HD
ENDBRANCH  19  26
ENDBRANCH  17  22
ENDBRANCH  16  17
ENDBRANCH   1  16
TORSDOF 7
ENDMDL
MODEL 7
REMARK VINA RESULT:    -6.359      3.522      4.898
REMARK INTER + INTRA:         -10.246
REMARK INTER:                  -8.852
REMARK INTRA:                  -1.394
REMARK UNBOUND:                -1.285
REMARK  Name = 
REMARK  7 active torsions:
REMARK  status: ('A' for Active; 'I' for Inactive)
REMARK    1  A    between atoms: C_2  and  C_4
REMARK    2  A    between atoms: C_7  and  N_8
REMARK    3  A    between atoms: N_8  and  C_9
REMARK    4  A    between atoms: C_9  and  C_10
REMARK    5  A    between atoms: C_10  and  C_13
REMARK    6  A    between atoms: C_18  and  O_19
REMARK    7  A    between atoms: O_19  and  C_20
REMARK                            x       y       z     vdW  Elec       q    Type
REMARK                         _______ _______ _______ _____ _____    ______ ____
ROOT
ATOM      1  C   UNL     1      48.315   8.389  12.545  0.00  0.00    +0.000 C 
ATOM      2  F   UNL     1      48.426   7.217  11.855  0.00  0.00    +0.000 F 
ATOM      3  F   UNL     1      49.104   9.282  11.872  0.00  0.00    +0.000 F 
ENDROOT
BRANCH   1   4
ATOM      4  C   UNL     1      48.731   8.238  13.996  0.00  0.00    +0.000 A 
ATOM      5  C   UNL     1      48.871   9.360  14.826  0.00  0.00    +0.000 A 
ATOM      6  C   UNL     1      49.187   9.199  16.176  0.00  0.00    +0.000 A 
ATOM      7  C   UNL     1      49.372   7.922  16.708  0.00  0.00    +0.000 A 
ATOM      8  F   UNL     1      49.637   7.817  18.017  0.00  0.00    +0.000 F 
ATOM      9  C   UNL     1      49.250   6.793  15.898  0.00  0.00    +0.000 A 
ATOM     10  C   UNL     1      48.928   6.960  14.547  0.00  0.00    +0.000 A 
BRANCH   9  11
ATOM     11  O   UNL     1      49.352   5.485  16.297  0.00  0.00    +0.000 OA
BRANCH  11  12
ATOM     12  C   UNL     1      48.364   4.921  17.187  0.00  0.00    +0.000 C 
ATOM     13  C   UNL     1      48.723   3.593  17.893  0.00  0.00    +0.000 C 
ATOM     14  C   UNL     1      47.390   2.995  17.426  0.00  0.00    +0.000 C 
ATOM     15  C   UNL     1      47.238   4.159  16.444  0.00  0.00    +0.000 C 
ENDBRANCH  11  12
ENDBRANCH   9  11
ENDBRANCH   1   4
BRANCH   1  16
ATOM     16  C   UNL     1      46.849   8.890  12.470  0.00  0.00    +0.000 C 
BRANCH  16  17
ATOM     17  N   UNL     1      45.905   8.038  13.209  0.00  0.00    +0.000 N 
ATOM     18  H   UNL     1      46.045   8.024  14.220  0.00  0.00    +0.000 HD
BRANCH  17  22
ATOM     19  C   UNL     1      44.439   4.332  11.841  0.00  0.00    +0.000 A 
ATOM     20  C   UNL     1      44.050   5.506  11.194  0.00  0.00    +0.000 A 
ATOM     21  C   UNL     1      44.544   6.741  11.622  0.00  0.00    +0.000 A 
ATOM     22  C   UNL     1      45.456   6.833  12.682  0.00  0.00    +0.000 A 
ATOM     23  C   UNL     1      45.822   5.645  13.332  0.00  0.00    +0.000 A 
ATOM     24  C   UNL     1      45.318   4.406  12.924  0.00  0.00    +0.000 A 
BRANCH  19  26
ATOM     25  N   UNL     1      43.599   2.130  12.448  0.00  0.00    +0.000 N 
ATOM     26  C   UNL     1      43.909   3.003  11.441  0.00  0.00    +0.000 C 
ATOM     27  O   UNL     1      43.720   2.709  10.270  0.00  0.00    +0.000 OA
ATOM     28  H   UNL     1      43.143   1.271  12.167  0.00  0.00    +0.000 HD
ATOM     29  H   UNL     1      43.500   2.424  13.409  0.00  0.00    +0.000 HD
ENDBRANCH  19  26
ENDBRANCH  17  22
ENDBRANCH  16  17
ENDBRANCH   1  16
TORSDOF 7
ENDMDL
MODEL 8
REMARK VINA RESULT:    -6.149      3.240      4.963
REMARK INTER + INTRA:          -9.951
REMARK INTER:                  -8.809
REMARK INTRA:                  -1.141
REMARK UNBOUND:                -1.285
REMARK  Name = 
REMARK  7 active torsions:
REMARK  status: ('A' for Active; 'I' for Inactive)
REMARK    1  A    between atoms: C_2  and  C_4
REMARK    2  A    between atoms: C_7  and  N_8
REMARK    3  A    between atoms: N_8  and  C_9
REMARK    4  A    between atoms: C_9  and  C_10
REMARK    5  A    between atoms: C_10  and  C_13
REMARK    6  A    between atoms: C_18  and  O_19
REMARK    7  A    between atoms: O_19  and  C_20
REMARK                            x       y       z     vdW  Elec       q    Type
REMARK                         _______ _______ _______ _____ _____    ______ ____
ROOT
ATOM      1  C   UNL     1      49.071   7.542  13.498  0.00  0.00    +0.000 C 
ATOM      2  F   UNL     1      49.374   6.629  12.529  0.00  0.00    +0.000 F 
ATOM      3  F   UNL     1      49.625   8.719  13.071  0.00  0.00    +0.000 F 
ENDROOT
BRANCH   1   4
ATOM      4  C   UNL     1      49.595   7.123  14.858  0.00  0.00    +0.000 A 
ATOM      5  C   UNL     1      50.894   7.464  15.265  0.00  0.00    +0.000 A 
ATOM      6  C   UNL     1      51.336   7.131  16.546  0.00  0.00    +0.000 A 
ATOM      7  C   UNL     1      50.493   6.453  17.429  0.00  0.00    +0.000 A 
ATOM      8  F   UNL     1      50.951   6.189  18.660  0.00  0.00    +0.000 F 
ATOM      9  C   UNL     1      49.204   6.094  17.040  0.00  0.00    +0.000 A 
ATOM     10  C   UNL     1      48.762   6.435  15.757  0.00  0.00    +0.000 A 
BRANCH   9  11
ATOM     11  O   UNL     1      48.257   5.477  17.816  0.00  0.00    +0.000 OA
BRANCH  11  12
ATOM     12  C   UNL     1      48.234   4.037  17.922  0.00  0.00    +0.000 C 
ATOM     13  C   UNL     1      49.527   3.277  17.543  0.00  0.00    +0.000 C 
ATOM     14  C   UNL     1      48.709   2.364  16.621  0.00  0.00    +0.000 C 
ATOM     15  C   UNL     1      47.541   3.348  16.718  0.00  0.00    +0.000 C 
ENDBRANCH  11  12
ENDBRANCH   9  11
ENDBRANCH   1   4
BRANCH   1  16
ATOM     16  C   UNL     1      47.533   7.728  13.562  0.00  0.00    +0.000 C 
BRANCH  16  17
ATOM     17  N   UNL     1      46.868   7.527  12.267  0.00  0.00    +0.000 N 
ATOM     18  H   UNL     1      46.509   8.379  11.835  0.00  0.00    +0.000 HD
BRANCH  17  22
ATOM     19  C   UNL     1      44.701   4.032  11.346  0.00  0.00    +0.000 A 
ATOM     20  C   UNL     1      45.120   4.255  12.659  0.00  0.00    +0.000 A 
ATOM     21  C   UNL     1      45.821   5.420  12.984  0.00  0.00    +0.000 A 
ATOM     22  C   UNL     1      46.094   6.398  12.020  0.00  0.00    +0.000 A 
ATOM     23  C   UNL     1      45.682   6.150  10.703  0.00  0.00    +0.000 A 
ATOM     24  C   UNL     1      44.997   4.978  10.363  0.00  0.00    +0.000 A 
BRANCH  19  26
ATOM     25  N   UNL     1      44.487   2.100   9.881  0.00  0.00    +0.000 N 
ATOM     26  C   UNL     1      43.985   2.791  10.951  0.00  0.00    +0.000 C 
ATOM     27  O   UNL     1      43.016   2.380  11.571  0.00  0.00    +0.000 OA
ATOM     28  H   UNL     1      44.054   1.205   9.689  0.00  0.00    +0.000 HD
ATOM     29  H   UNL     1      45.413   2.265   9.516  0.00  0.00    +0.000 HD
ENDBRANCH  19  26
ENDBRANCH  17  22
ENDBRANCH  16  17
ENDBRANCH   1  16
TORSDOF 7
ENDMDL
MODEL 9
REMARK VINA RESULT:    -6.092      3.821      5.911
REMARK INTER + INTRA:          -9.870
REMARK INTER:                  -8.368
REMARK INTRA:                  -1.503
REMARK UNBOUND:                -1.285
REMARK  Name = 
REMARK  7 active torsions:
REMARK  status: ('A' for Active; 'I' for Inactive)
REMARK    1  A    between atoms: C_2  and  C_4
REMARK    2  A    between atoms: C_7  and  N_8
REMARK    3  A    between atoms: N_8  and  C_9
REMARK    4  A    between atoms: C_9  and  C_10
REMARK    5  A    between atoms: C_10  and  C_13
REMARK    6  A    between atoms: C_18  and  O_19
REMARK    7  A    between atoms: O_19  and  C_20
REMARK                            x       y       z     vdW  Elec       q    Type
REMARK                         _______ _______ _______ _____ _____    ______ ____
ROOT
ATOM      1  C   UNL     1      49.030   8.762  15.420  0.00  0.00    +0.000 C 
ATOM      2  F   UNL     1      50.131   9.562  15.525  0.00  0.00    +0.000 F 
ATOM      3  F   UNL     1      48.070   9.544  14.836  0.00  0.00    +0.000 F 
ENDROOT
BRANCH   1   4
ATOM      4  C   UNL     1      48.588   8.221  16.766  0.00  0.00    +0.000 A 
ATOM      5  C   UNL     1      47.957   9.053  17.704  0.00  0.00    +0.000 A 
ATOM      6  C   UNL     1      47.495   8.524  18.909  0.00  0.00    +0.000 A 
ATOM      7  C   UNL     1      47.661   7.167  19.194  0.00  0.00    +0.000 A 
ATOM      8  F   UNL     1      47.167   6.700  20.349  0.00  0.00    +0.000 F 
ATOM      9  C   UNL     1      48.297   6.326  18.282  0.00  0.00    +0.000 A 
ATOM     10  C   UNL     1      48.754   6.860  17.072  0.00  0.00    +0.000 A 
BRANCH   9  11
ATOM     11  O   UNL     1      48.481   4.974  18.407  0.00  0.00    +0.000 OA
BRANCH  11  12
ATOM     12  C   UNL     1      48.847   4.184  17.254  0.00  0.00    +0.000 C 
ATOM     13  C   UNL     1      48.025   2.902  16.983  0.00  0.00    +0.000 C 
ATOM     14  C   UNL     1      49.329   2.101  16.872  0.00  0.00    +0.000 C 
ATOM     15  C   UNL     1      50.079   3.277  17.502  0.00  0.00    +0.000 C 
ENDBRANCH  11  12
ENDBRANCH   9  11
ENDBRANCH   1   4
BRANCH   1  16
ATOM     16  C   UNL     1      49.343   7.586  14.459  0.00  0.00    +0.000 C 
BRANCH  16  17
ATOM     17  N   UNL     1      48.479   7.560  13.270  0.00  0.00    +0.000 N 
ATOM     18  H   UNL     1      48.198   8.480  12.927  0.00  0.00    +0.000 HD
BRANCH  17  22
ATOM     19  C   UNL     1      45.670   4.507  12.531  0.00  0.00    +0.000 A 
ATOM     20  C   UNL     1      46.443   4.463  13.693  0.00  0.00    +0.000 A 
ATOM     21  C   UNL     1      47.363   5.480  13.962  0.00  0.00    +0.000 A 
ATOM     22  C   UNL     1      47.515   6.573  13.099  0.00  0.00    +0.000 A 
ATOM     23  C   UNL     1      46.743   6.591  11.929  0.00  0.00    +0.000 A 
ATOM     24  C   UNL     1      45.833   5.569  11.640  0.00  0.00    +0.000 A 
BRANCH  19  26
ATOM     25  N   UNL     1      44.894   2.786  10.996  0.00  0.00    +0.000 N 
ATOM     26  C   UNL     1      44.706   3.429  12.189  0.00  0.00    +0.000 C 
ATOM     27  O   UNL     1      43.808   3.101  12.950  0.00  0.00    +0.000 OA
ATOM     28  H   UNL     1      44.297   1.986  10.824  0.00  0.00    +0.000 HD
ATOM     29  H   UNL     1      45.755   2.851  10.474  0.00  0.00    +0.000 HD
ENDBRANCH  19  26
ENDBRANCH  17  22
ENDBRANCH  16  17
ENDBRANCH   1  16
TORSDOF 7
ENDMDL
