MODEL 1
REMARK VINA RESULT:    -8.889      0.000      0.000
REMARK INTER + INTRA:         -11.500
REMARK INTER:                 -11.487
REMARK INTRA:                  -0.013
REMARK UNBOUND:                -0.013
REMARK  Name = 
REMARK  6 active torsions:
REMARK  status: ('A' for Active; 'I' for Inactive)
REMARK    1  A    between atoms: C_1  and  C_2
REMARK    2  A    between atoms: C_4  and  C_5
REMARK    3  A    between atoms: C_10  and  N_11
REMARK    4  A    between atoms: N_11  and  C_12
REMARK    5  A    between atoms: C_12  and  C_13
REMARK    6  A    between atoms: C_17  and  C_18
REMARK                            x       y       z     vdW  Elec       q    Type
REMARK                         _______ _______ _______ _____ _____    ______ ____
ROOT
ATOM      1  N   UNL     1      44.054   5.120   9.984  0.00  0.00    +0.000 N 
ATOM      2  H   UNL     1      44.263   6.077   9.726  0.00  0.00    +0.000 HD
ENDROOT
BRANCH   1   9
ATOM      3  C   UNL     1      43.908   2.218  10.553  0.00  0.00    +0.000 C 
ATOM      4  C   UNL     1      44.777   2.834   9.497  0.00  0.00    +0.000 A 
ATOM      5  C   UNL     1      45.615   1.976   8.758  0.00  0.00    +0.000 A 
ATOM      6  C   UNL     1      46.456   2.476   7.767  0.00  0.00    +0.000 A 
ATOM      7  C   UNL     1      46.412   3.841   7.556  0.00  0.00    +0.000 A 
ATOM      8  N   UNL     1      45.618   4.700   8.251  0.00  0.00    +0.000 NA
ATOM      9  C   UNL     1      44.802   4.210   9.213  0.00  0.00    +0.000 A 
BRANCH   6  10
ATOM     10  C   UNL     1      47.332   1.536   7.029  0.00  0.00    +0.000 C 
ATOM     11  N   UNL     1      48.470   2.013   6.437  0.00  0.00    +0.000 N 
ATOM     12  O   UNL     1      47.059   0.347   6.937  0.00  0.00    +0.000 OA
ATOM     13  H   UNL     1      48.804   2.963   6.455  0.00  0.00    +0.000 HD
ATOM     14  H   UNL     1      49.039   1.326   5.955  0.00  0.00    +0.000 HD
ENDBRANCH   6  10
ENDBRANCH   1   9
BRANCH   1  15
ATOM     15  C   UNL     1      44.153   4.900  11.428  0.00  0.00    +0.000 C 
BRANCH  15  16
ATOM     16  C   UNL     1      45.440   5.484  11.977  0.00  0.00    +0.000 A 
ATOM     17  C   UNL     1      46.134   6.474  11.270  0.00  0.00    +0.000 A 
ATOM     18  C   UNL     1      47.328   6.992  11.768  0.00  0.00    +0.000 A 
ATOM     19  C   UNL     1      47.829   6.548  12.993  0.00  0.00    +0.000 A 
ATOM     20  C   UNL     1      47.148   5.577  13.752  0.00  0.00    +0.000 A 
ATOM     21  C   UNL     1      45.962   5.042  13.206  0.00  0.00    +0.000 A 
BRANCH  20  22
ATOM     22  C   UNL     1      47.636   5.170  15.087  0.00  0.00    +0.000 A 
ATOM     23  C   UNL     1      47.236   3.976  15.705  0.00  0.00    +0.000 A 
ATOM     24  C   UNL     1      47.682   3.656  16.988  0.00  0.00    +0.000 A 
ATOM     25  C   UNL     1      48.536   4.540  17.618  0.00  0.00    +0.000 A 
ATOM     26 CL   UNL     1      49.130   4.222  19.195  0.00  0.00    +0.000 Cl
ATOM     27  N   UNL     1      48.967   5.693  17.077  0.00  0.00    +0.000 NA
ATOM     28  C   UNL     1      48.503   5.978  15.836  0.00  0.00    +0.000 A 
ENDBRANCH  20  22
ENDBRANCH  15  16
ENDBRANCH   1  15
TORSDOF 5
ENDMDL
MODEL 2
REMARK VINA RESULT:    -8.818      2.357      3.288
REMARK INTER + INTRA:         -11.408
REMARK INTER:                 -10.434
REMARK INTRA:                  -0.974
REMARK UNBOUND:                -0.013
REMARK  Name = 
REMARK  6 active torsions:
REMARK  status: ('A' for Active; 'I' for Inactive)
REMARK    1  A    between atoms: C_1  and  C_2
REMARK    2  A    between atoms: C_4  and  C_5
REMARK    3  A    between atoms: C_10  and  N_11
REMARK    4  A    between atoms: N_11  and  C_12
REMARK    5  A    between atoms: C_12  and  C_13
REMARK    6  A    between atoms: C_17  and  C_18
REMARK                            x       y       z     vdW  Elec       q    Type
REMARK                         _______ _______ _______ _____ _____    ______ ____
ROOT
ATOM      1  N   UNL     1      44.021   5.017  10.061  0.00  0.00    +0.000 N 
ATOM      2  H   UNL     1      43.116   5.197   9.642  0.00  0.00    +0.000 HD
ENDROOT
BRANCH   1   9
ATOM      3  C   UNL     1      43.961   2.084  10.461  0.00  0.00    +0.000 C 
ATOM      4  C   UNL     1      44.817   2.786   9.448  0.00  0.00    +0.000 A 
ATOM      5  C   UNL     1      45.685   1.999   8.668  0.00  0.00    +0.000 A 
ATOM      6  C   UNL     1      46.516   2.581   7.714  0.00  0.00    +0.000 A 
ATOM      7  C   UNL     1      46.432   3.953   7.582  0.00  0.00    +0.000 A 
ATOM      8  N   UNL     1      45.608   4.746   8.319  0.00  0.00    +0.000 NA
ATOM      9  C   UNL     1      44.802   4.177   9.244  0.00  0.00    +0.000 A 
BRANCH   6  10
ATOM     10  C   UNL     1      47.425   1.711   6.930  0.00  0.00    +0.000 C 
ATOM     11  N   UNL     1      48.532   2.264   6.344  0.00  0.00    +0.000 N 
ATOM     12  O   UNL     1      47.207   0.515   6.794  0.00  0.00    +0.000 OA
ATOM     13  H   UNL     1      48.822   3.227   6.396  0.00  0.00    +0.000 HD
ATOM     14  H   UNL     1      49.126   1.624   5.829  0.00  0.00    +0.000 HD
ENDBRANCH   6  10
ENDBRANCH   1   9
BRANCH   1  15
ATOM     15  C   UNL     1      44.698   6.250  10.467  0.00  0.00    +0.000 C 
BRANCH  15  16
ATOM     16  C   UNL     1      45.627   5.998  11.638  0.00  0.00    +0.000 A 
ATOM     17  C   UNL     1      45.304   5.045  12.613  0.00  0.00    +0.000 A 
ATOM     18  C   UNL     1      46.149   4.831  13.699  0.00  0.00    +0.000 A 
ATOM     19  C   UNL     1      47.344   5.546  13.810  0.00  0.00    +0.000 A 
ATOM     20  C   UNL     1      47.723   6.490  12.838  0.00  0.00    +0.000 A 
ATOM     21  C   UNL     1      46.830   6.715  11.769  0.00  0.00    +0.000 A 
BRANCH  20  22
ATOM     22  C   UNL     1      49.025   7.185  12.914  0.00  0.00    +0.000 A 
ATOM     23  C   UNL     1      49.738   7.582  11.772  0.00  0.00    +0.000 A 
ATOM     24  C   UNL     1      50.989   8.188  11.890  0.00  0.00    +0.000 A 
ATOM     25  C   UNL     1      51.492   8.399  13.159  0.00  0.00    +0.000 A 
ATOM     26 CL   UNL     1      53.021   9.139  13.392  0.00  0.00    +0.000 Cl
ATOM     27  N   UNL     1      50.856   8.055  14.293  0.00  0.00    +0.000 NA
ATOM     28  C   UNL     1      49.650   7.455  14.140  0.00  0.00    +0.000 A 
ENDBRANCH  20  22
ENDBRANCH  15  16
ENDBRANCH   1  15
TORSDOF 5
ENDMDL
MODEL 3
REMARK VINA RESULT:    -8.761      4.224      7.435
REMARK INTER + INTRA:         -11.334
REMARK INTER:                 -10.078
REMARK INTRA:                  -1.256
REMARK UNBOUND:                -0.013
REMARK  Name = 
REMARK  6 active torsions:
REMARK  status: ('A' for Active; 'I' for Inactive)
REMARK    1  A    between atoms: C_1  and  C_2
REMARK    2  A    between atoms: C_4  and  C_5
REMARK    3  A    between atoms: C_10  and  N_11
REMARK    4  A    between atoms: N_11  and  C_12
REMARK    5  A    between atoms: C_12  and  C_13
REMARK    6  A    between atoms: C_17  and  C_18
REMARK                            x       y       z     vdW  Elec       q    Type
REMARK                         _______ _______ _______ _____ _____    ______ ____
ROOT
ATOM      1  N   UNL     1      44.834   6.838  13.101  0.00  0.00    +0.000 N 
ATOM      2  H   UNL     1      44.730   6.082  13.767  0.00  0.00    +0.000 HD
ENDROOT
BRANCH   1   9
ATOM      3  C   UNL     1      46.859   4.761  13.695  0.00  0.00    +0.000 C 
ATOM      4  C   UNL     1      47.170   6.109  13.114  0.00  0.00    +0.000 A 
ATOM      5  C   UNL     1      48.522   6.424  12.880  0.00  0.00    +0.000 A 
ATOM      6  C   UNL     1      48.888   7.659  12.351  0.00  0.00    +0.000 A 
ATOM      7  C   UNL     1      47.859   8.537  12.072  0.00  0.00    +0.000 A 
ATOM      8  N   UNL     1      46.542   8.269  12.287  0.00  0.00    +0.000 NA
ATOM      9  C   UNL     1      46.190   7.068  12.801  0.00  0.00    +0.000 A 
BRANCH   6  10
ATOM     10  C   UNL     1      50.326   7.950  12.139  0.00  0.00    +0.000 C 
ATOM     11  N   UNL     1      50.955   7.424  11.043  0.00  0.00    +0.000 N 
ATOM     12  O   UNL     1      50.959   8.646  12.920  0.00  0.00    +0.000 OA
ATOM     13  H   UNL     1      50.538   6.852  10.327  0.00  0.00    +0.000 HD
ATOM     14  H   UNL     1      51.935   7.663  10.939  0.00  0.00    +0.000 HD
ENDBRANCH   6  10
ENDBRANCH   1   9
BRANCH   1  15
ATOM     15  C   UNL     1      43.984   6.660  11.923  0.00  0.00    +0.000 C 
BRANCH  15  16
ATOM     16  C   UNL     1      44.004   5.217  11.454  0.00  0.00    +0.000 A 
ATOM     17  C   UNL     1      43.240   4.244  12.109  0.00  0.00    +0.000 A 
ATOM     18  C   UNL     1      43.278   2.916  11.689  0.00  0.00    +0.000 A 
ATOM     19  C   UNL     1      44.057   2.549  10.590  0.00  0.00    +0.000 A 
ATOM     20  C   UNL     1      44.815   3.500   9.882  0.00  0.00    +0.000 A 
ATOM     21  C   UNL     1      44.789   4.831  10.353  0.00  0.00    +0.000 A 
BRANCH  20  22
ATOM     22  C   UNL     1      45.573   3.126   8.670  0.00  0.00    +0.000 A 
ATOM     23  C   UNL     1      46.007   1.814   8.425  0.00  0.00    +0.000 A 
ATOM     24  C   UNL     1      46.764   1.515   7.292  0.00  0.00    +0.000 A 
ATOM     25  C   UNL     1      47.057   2.543   6.417  0.00  0.00    +0.000 A 
ATOM     26 CL   UNL     1      47.981   2.261   5.001  0.00  0.00    +0.000 Cl
ATOM     27  N   UNL     1      46.662   3.817   6.586  0.00  0.00    +0.000 NA
ATOM     28  C   UNL     1      45.940   4.073   7.704  0.00  0.00    +0.000 A 
ENDBRANCH  20  22
ENDBRANCH  15  16
ENDBRANCH   1  15
TORSDOF 5
ENDMDL
MODEL 4
REMARK VINA RESULT:    -7.906      4.151      8.314
REMARK INTER + INTRA:         -10.230
REMARK INTER:                  -9.545
REMARK INTRA:                  -0.685
REMARK UNBOUND:                -0.013
REMARK  Name = 
REMARK  6 active torsions:
REMARK  status: ('A' for Active; 'I' for Inactive)
REMARK    1  A    between atoms: C_1  and  C_2
REMARK    2  A    between atoms: C_4  and  C_5
REMARK    3  A    between atoms: C_10  and  N_11
REMARK    4  A    between atoms: N_11  and  C_12
REMARK    5  A    between atoms: C_12  and  C_13
REMARK    6  A    between atoms: C_17  and  C_18
REMARK                            x       y       z     vdW  Elec       q    Type
REMARK                         _______ _______ _______ _____ _____    ______ ____
ROOT
ATOM      1  N   UNL     1      47.124   6.003  13.363  0.00  0.00    +0.000 N 
ATOM      2  H   UNL     1      47.702   6.791  13.097  0.00  0.00    +0.000 HD
ENDROOT
BRANCH   1   9
ATOM      3  C   UNL     1      48.871   7.577  15.162  0.00  0.00    +0.000 C 
ATOM      4  C   UNL     1      48.397   6.182  15.445  0.00  0.00    +0.000 A 
ATOM      5  C   UNL     1      48.852   5.563  16.625  0.00  0.00    +0.000 A 
ATOM      6  C   UNL     1      48.461   4.266  16.950  0.00  0.00    +0.000 A 
ATOM      7  C   UNL     1      47.611   3.640  16.060  0.00  0.00    +0.000 A 
ATOM      8  N   UNL     1      47.152   4.205  14.910  0.00  0.00    +0.000 NA
ATOM      9  C   UNL     1      47.533   5.465  14.598  0.00  0.00    +0.000 A 
BRANCH   6  10
ATOM     10  C   UNL     1      48.982   3.651  18.194  0.00  0.00    +0.000 C 
ATOM     11  N   UNL     1      50.140   2.924  18.141  0.00  0.00    +0.000 N 
ATOM     12  O   UNL     1      48.399   3.779  19.262  0.00  0.00    +0.000 OA
ATOM     13  H   UNL     1      50.712   2.761  17.328  0.00  0.00    +0.000 HD
ATOM     14  H   UNL     1      50.459   2.535  19.022  0.00  0.00    +0.000 HD
ENDBRANCH   6  10
ENDBRANCH   1   9
BRANCH   1  15
ATOM     15  C   UNL     1      45.695   6.317  13.294  0.00  0.00    +0.000 C 
BRANCH  15  16
ATOM     16  C   UNL     1      44.967   5.334  12.397  0.00  0.00    +0.000 A 
ATOM     17  C   UNL     1      43.681   4.887  12.723  0.00  0.00    +0.000 A 
ATOM     18  C   UNL     1      43.024   3.968  11.908  0.00  0.00    +0.000 A 
ATOM     19  C   UNL     1      43.634   3.505  10.740  0.00  0.00    +0.000 A 
ATOM     20  C   UNL     1      44.912   3.951  10.357  0.00  0.00    +0.000 A 
ATOM     21  C   UNL     1      45.571   4.852  11.221  0.00  0.00    +0.000 A 
BRANCH  20  22
ATOM     22  C   UNL     1      45.520   3.524   9.079  0.00  0.00    +0.000 A 
ATOM     23  C   UNL     1      45.763   2.176   8.772  0.00  0.00    +0.000 A 
ATOM     24  C   UNL     1      46.387   1.822   7.575  0.00  0.00    +0.000 A 
ATOM     25  C   UNL     1      46.740   2.833   6.702  0.00  0.00    +0.000 A 
ATOM     26 CL   UNL     1      47.509   2.483   5.210  0.00  0.00    +0.000 Cl
ATOM     27  N   UNL     1      46.524   4.141   6.930  0.00  0.00    +0.000 NA
ATOM     28  C   UNL     1      45.930   4.448   8.109  0.00  0.00    +0.000 A 
ENDBRANCH  20  22
ENDBRANCH  15  16
ENDBRANCH   1  15
TORSDOF 5
ENDMDL
MODEL 5
REMARK VINA RESULT:    -7.886      4.263      7.978
REMARK INTER + INTRA:         -10.204
REMARK INTER:                  -9.194
REMARK INTRA:                  -1.010
REMARK UNBOUND:                -0.013
REMARK  Name = 
REMARK  6 active torsions:
REMARK  status: ('A' for Active; 'I' for Inactive)
REMARK    1  A    between atoms: C_1  and  C_2
REMARK    2  A    between atoms: C_4  and  C_5
REMARK    3  A    between atoms: C_10  and  N_11
REMARK    4  A    between atoms: N_11  and  C_12
REMARK    5  A    between atoms: C_12  and  C_13
REMARK    6  A    between atoms: C_17  and  C_18
REMARK                            x       y       z     vdW  Elec       q    Type
REMARK                         _______ _______ _______ _____ _____    ______ ____
ROOT
ATOM      1  N   UNL     1      48.727   5.957  17.474  0.00  0.00    +0.000 N 
ATOM      2  H   UNL     1      47.795   5.729  17.147  0.00  0.00    +0.000 HD
ENDROOT
BRANCH   1   9
ATOM      3  C   UNL     1      47.575   3.262  17.050  0.00  0.00    +0.000 C 
ATOM      4  C   UNL     1      49.032   3.536  17.287  0.00  0.00    +0.000 A 
ATOM      5  C   UNL     1      49.902   2.431  17.359  0.00  0.00    +0.000 A 
ATOM      6  C   UNL     1      51.265   2.607  17.584  0.00  0.00    +0.000 A 
ATOM      7  C   UNL     1      51.700   3.910  17.726  0.00  0.00    +0.000 A 
ATOM      8  N   UNL     1      50.890   5.001  17.665  0.00  0.00    +0.000 NA
ATOM      9  C   UNL     1      49.566   4.826  17.445  0.00  0.00    +0.000 A 
BRANCH   6  10
ATOM     10  C   UNL     1      52.137   1.412  17.670  0.00  0.00    +0.000 C 
ATOM     11  N   UNL     1      51.600   0.227  18.095  0.00  0.00    +0.000 N 
ATOM     12  O   UNL     1      53.322   1.463  17.370  0.00  0.00    +0.000 OA
ATOM     13  H   UNL     1      50.642   0.060  18.355  0.00  0.00    +0.000 HD
ATOM     14  H   UNL     1      52.237  -0.562  18.124  0.00  0.00    +0.000 HD
ENDBRANCH   6  10
ENDBRANCH   1   9
BRANCH   1  15
ATOM     15  C   UNL     1      49.281   7.129  16.793  0.00  0.00    +0.000 C 
BRANCH  15  16
ATOM     16  C   UNL     1      49.068   7.036  15.294  0.00  0.00    +0.000 A 
ATOM     17  C   UNL     1      49.936   7.687  14.409  0.00  0.00    +0.000 A 
ATOM     18  C   UNL     1      49.725   7.618  13.034  0.00  0.00    +0.000 A 
ATOM     19  C   UNL     1      48.660   6.872  12.524  0.00  0.00    +0.000 A 
ATOM     20  C   UNL     1      47.782   6.177  13.376  0.00  0.00    +0.000 A 
ATOM     21  C   UNL     1      47.996   6.296  14.766  0.00  0.00    +0.000 A 
BRANCH  20  22
ATOM     22  C   UNL     1      46.706   5.321  12.831  0.00  0.00    +0.000 A 
ATOM     23  C   UNL     1      45.872   5.733  11.780  0.00  0.00    +0.000 A 
ATOM     24  C   UNL     1      44.836   4.914  11.333  0.00  0.00    +0.000 A 
ATOM     25  C   UNL     1      44.669   3.686  11.943  0.00  0.00    +0.000 A 
ATOM     26 CL   UNL     1      43.420   2.619  11.452  0.00  0.00    +0.000 Cl
ATOM     27  N   UNL     1      45.439   3.226  12.944  0.00  0.00    +0.000 NA
ATOM     28  C   UNL     1      46.427   4.055  13.363  0.00  0.00    +0.000 A 
ENDBRANCH  20  22
ENDBRANCH  15  16
ENDBRANCH   1  15
TORSDOF 5
ENDMDL
MODEL 6
REMARK VINA RESULT:    -7.559      4.361      8.241
REMARK INTER + INTRA:          -9.780
REMARK INTER:                  -8.892
REMARK INTRA:                  -0.888
REMARK UNBOUND:                -0.013
REMARK  Name = 
REMARK  6 active torsions:
REMARK  status: ('A' for Active; 'I' for Inactive)
REMARK    1  A    between atoms: C_1  and  C_2
REMARK    2  A    between atoms: C_4  and  C_5
REMARK    3  A    between atoms: C_10  and  N_11
REMARK    4  A    between atoms: N_11  and  C_12
REMARK    5  A    between atoms: C_12  and  C_13
REMARK    6  A    between atoms: C_17  and  C_18
REMARK                            x       y       z     vdW  Elec       q    Type
REMARK                         _______ _______ _______ _____ _____    ______ ____
ROOT
ATOM      1  N   UNL     1      47.182   4.746  13.817  0.00  0.00    +0.000 N 
ATOM      2  H   UNL     1      47.347   4.549  12.837  0.00  0.00    +0.000 HD
ENDROOT
BRANCH   1   9
ATOM      3  C   UNL     1      47.590   7.021  11.966  0.00  0.00    +0.000 C 
ATOM      4  C   UNL     1      48.146   6.948  13.358  0.00  0.00    +0.000 A 
ATOM      5  C   UNL     1      48.955   8.014  13.795  0.00  0.00    +0.000 A 
ATOM      6  C   UNL     1      49.512   8.012  15.072  0.00  0.00    +0.000 A 
ATOM      7  C   UNL     1      49.222   6.921  15.866  0.00  0.00    +0.000 A 
ATOM      8  N   UNL     1      48.448   5.872  15.477  0.00  0.00    +0.000 NA
ATOM      9  C   UNL     1      47.907   5.878  14.237  0.00  0.00    +0.000 A 
BRANCH   6  10
ATOM     10  C   UNL     1      50.371   9.149  15.479  0.00  0.00    +0.000 C 
ATOM     11  N   UNL     1      51.066   9.834  14.520  0.00  0.00    +0.000 N 
ATOM     12  O   UNL     1      50.474   9.485  16.651  0.00  0.00    +0.000 OA
ATOM     13  H   UNL     1      51.052   9.661  13.528  0.00  0.00    +0.000 HD
ATOM     14  H   UNL     1      51.629  10.610  14.850  0.00  0.00    +0.000 HD
ENDBRANCH   6  10
ENDBRANCH   1   9
BRANCH   1  15
ATOM     15  C   UNL     1      45.755   4.799  14.139  0.00  0.00    +0.000 C 
BRANCH  15  16
ATOM     16  C   UNL     1      44.912   4.695  12.883  0.00  0.00    +0.000 A 
ATOM     17  C   UNL     1      43.573   5.106  12.886  0.00  0.00    +0.000 A 
ATOM     18  C   UNL     1      42.795   4.990  11.737  0.00  0.00    +0.000 A 
ATOM     19  C   UNL     1      43.354   4.488  10.559  0.00  0.00    +0.000 A 
ATOM     20  C   UNL     1      44.703   4.093  10.502  0.00  0.00    +0.000 A 
ATOM     21  C   UNL     1      45.458   4.186  11.691  0.00  0.00    +0.000 A 
BRANCH  20  22
ATOM     22  C   UNL     1      45.315   3.642   9.234  0.00  0.00    +0.000 A 
ATOM     23  C   UNL     1      45.518   2.286   8.934  0.00  0.00    +0.000 A 
ATOM     24  C   UNL     1      46.146   1.908   7.747  0.00  0.00    +0.000 A 
ATOM     25  C   UNL     1      46.543   2.903   6.876  0.00  0.00    +0.000 A 
ATOM     26 CL   UNL     1      47.321   2.523   5.396  0.00  0.00    +0.000 Cl
ATOM     27  N   UNL     1      46.367   4.217   7.096  0.00  0.00    +0.000 NA
ATOM     28  C   UNL     1      45.766   4.549   8.266  0.00  0.00    +0.000 A 
ENDBRANCH  20  22
ENDBRANCH  15  16
ENDBRANCH   1  15
TORSDOF 5
ENDMDL
MODEL 7
REMARK VINA RESULT:    -7.479      4.303      8.309
REMARK INTER + INTRA:          -9.678
REMARK INTER:                  -9.043
REMARK INTRA:                  -0.635
REMARK UNBOUND:                -0.013
REMARK  Name = 
REMARK  6 active torsions:
REMARK  status: ('A' for Active; 'I' for Inactive)
REMARK    1  A    between atoms: C_1  and  C_2
REMARK    2  A    between atoms: C_4  and  C_5
REMARK    3  A    between atoms: C_10  and  N_11
REMARK    4  A    between atoms: N_11  and  C_12
REMARK    5  A    between atoms: C_12  and  C_13
REMARK    6  A    between atoms: C_17  and  C_18
REMARK                            x       y       z     vdW  Elec       q    Type
REMARK                         _______ _______ _______ _____ _____    ______ ____
ROOT
ATOM      1  N   UNL     1      46.667   3.978  14.199  0.00  0.00    +0.000 N 
ATOM      2  H   UNL     1      46.953   3.928  13.228  0.00  0.00    +0.000 HD
ENDROOT
BRANCH   1   9
ATOM      3  C   UNL     1      47.380   3.256  16.980  0.00  0.00    +0.000 C 
ATOM      4  C   UNL     1      47.849   4.496  16.278  0.00  0.00    +0.000 A 
ATOM      5  C   UNL     1      48.645   5.400  17.008  0.00  0.00    +0.000 A 
ATOM      6  C   UNL     1      49.110   6.576  16.425  0.00  0.00    +0.000 A 
ATOM      7  C   UNL     1      48.751   6.792  15.108  0.00  0.00    +0.000 A 
ATOM      8  N   UNL     1      47.983   5.944  14.373  0.00  0.00    +0.000 NA
ATOM      9  C   UNL     1      47.534   4.802  14.942  0.00  0.00    +0.000 A 
BRANCH   6  10
ATOM     10  C   UNL     1      49.929   7.504  17.240  0.00  0.00    +0.000 C 
ATOM     11  N   UNL     1      50.729   8.415  16.606  0.00  0.00    +0.000 N 
ATOM     12  O   UNL     1      49.906   7.471  18.462  0.00  0.00    +0.000 OA
ATOM     13  H   UNL     1      50.822   8.545  15.611  0.00  0.00    +0.000 HD
ATOM     14  H   UNL     1      51.260   9.034  17.209  0.00  0.00    +0.000 HD
ENDBRANCH   6  10
ENDBRANCH   1   9
BRANCH   1  15
ATOM     15  C   UNL     1      45.250   4.321  14.342  0.00  0.00    +0.000 C 
BRANCH  15  16
ATOM     16  C   UNL     1      44.595   4.496  12.985  0.00  0.00    +0.000 A 
ATOM     17  C   UNL     1      43.383   5.185  12.862  0.00  0.00    +0.000 A 
ATOM     18  C   UNL     1      42.773   5.326  11.617  0.00  0.00    +0.000 A 
ATOM     19  C   UNL     1      43.383   4.803  10.474  0.00  0.00    +0.000 A 
ATOM     20  C   UNL     1      44.616   4.130  10.548  0.00  0.00    +0.000 A 
ATOM     21  C   UNL     1      45.193   3.969  11.826  0.00  0.00    +0.000 A 
BRANCH  20  22
ATOM     22  C   UNL     1      45.300   3.652   9.328  0.00  0.00    +0.000 A 
ATOM     23  C   UNL     1      45.515   2.289   9.067  0.00  0.00    +0.000 A 
ATOM     24  C   UNL     1      46.210   1.885   7.927  0.00  0.00    +0.000 A 
ATOM     25  C   UNL     1      46.664   2.862   7.062  0.00  0.00    +0.000 A 
ATOM     26 CL   UNL     1      47.526   2.450   5.639  0.00  0.00    +0.000 Cl
ATOM     27  N   UNL     1      46.481   4.181   7.246  0.00  0.00    +0.000 NA
ATOM     28  C   UNL     1      45.813   4.538   8.371  0.00  0.00    +0.000 A 
ENDBRANCH  20  22
ENDBRANCH  15  16
ENDBRANCH   1  15
TORSDOF 5
ENDMDL
MODEL 8
REMARK VINA RESULT:    -7.349      3.407      5.717
REMARK INTER + INTRA:          -9.509
REMARK INTER:                  -8.931
REMARK INTRA:                  -0.578
REMARK UNBOUND:                -0.013
REMARK  Name = 
REMARK  6 active torsions:
REMARK  status: ('A' for Active; 'I' for Inactive)
REMARK    1  A    between atoms: C_1  and  C_2
REMARK    2  A    between atoms: C_4  and  C_5
REMARK    3  A    between atoms: C_10  and  N_11
REMARK    4  A    between atoms: N_11  and  C_12
REMARK    5  A    between atoms: C_12  and  C_13
REMARK    6  A    between atoms: C_17  and  C_18
REMARK                            x       y       z     vdW  Elec       q    Type
REMARK                         _______ _______ _______ _____ _____    ______ ____
ROOT
ATOM      1  N   UNL     1      47.156   5.288  14.934  0.00  0.00    +0.000 N 
ATOM      2  H   UNL     1      48.111   5.579  14.760  0.00  0.00    +0.000 HD
ENDROOT
BRANCH   1   9
ATOM      3  C   UNL     1      46.458   7.342  12.919  0.00  0.00    +0.000 C 
ATOM      4  C   UNL     1      46.137   5.881  12.790  0.00  0.00    +0.000 A 
ATOM      5  C   UNL     1      45.414   5.469  11.655  0.00  0.00    +0.000 A 
ATOM      6  C   UNL     1      45.072   4.131  11.471  0.00  0.00    +0.000 A 
ATOM      7  C   UNL     1      45.485   3.252  12.453  0.00  0.00    +0.000 A 
ATOM      8  N   UNL     1      46.182   3.614  13.564  0.00  0.00    +0.000 NA
ATOM      9  C   UNL     1      46.513   4.914  13.738  0.00  0.00    +0.000 A 
BRANCH   6  10
ATOM     10  C   UNL     1      44.294   3.749  10.269  0.00  0.00    +0.000 C 
ATOM     11  N   UNL     1      44.128   4.665   9.267  0.00  0.00    +0.000 N 
ATOM     12  O   UNL     1      43.799   2.636  10.155  0.00  0.00    +0.000 OA
ATOM     13  H   UNL     1      44.497   5.602   9.241  0.00  0.00    +0.000 HD
ATOM     14  H   UNL     1      43.597   4.350   8.462  0.00  0.00    +0.000 HD
ENDBRANCH   6  10
ENDBRANCH   1   9
BRANCH   1  15
ATOM     15  C   UNL     1      47.067   4.284  15.997  0.00  0.00    +0.000 C 
BRANCH  15  16
ATOM     16  C   UNL     1      48.184   4.465  17.007  0.00  0.00    +0.000 A 
ATOM     17  C   UNL     1      48.069   5.406  18.037  0.00  0.00    +0.000 A 
ATOM     18  C   UNL     1      49.106   5.584  18.951  0.00  0.00    +0.000 A 
ATOM     19  C   UNL     1      50.260   4.803  18.863  0.00  0.00    +0.000 A 
ATOM     20  C   UNL     1      50.405   3.823  17.863  0.00  0.00    +0.000 A 
ATOM     21  C   UNL     1      49.356   3.691  16.928  0.00  0.00    +0.000 A 
BRANCH  20  22
ATOM     22  C   UNL     1      51.590   2.941  17.823  0.00  0.00    +0.000 A 
ATOM     23  C   UNL     1      51.517   1.595  17.431  0.00  0.00    +0.000 A 
ATOM     24  C   UNL     1      52.653   0.785  17.458  0.00  0.00    +0.000 A 
ATOM     25  C   UNL     1      53.845   1.351  17.865  0.00  0.00    +0.000 A 
ATOM     26 CL   UNL     1      55.286   0.425  17.926  0.00  0.00    +0.000 Cl
ATOM     27  N   UNL     1      53.985   2.634  18.240  0.00  0.00    +0.000 NA
ATOM     28  C   UNL     1      52.859   3.388  18.215  0.00  0.00    +0.000 A 
ENDBRANCH  20  22
ENDBRANCH  15  16
ENDBRANCH   1  15
TORSDOF 5
ENDMDL
MODEL 9
REMARK VINA RESULT:    -7.168      1.539      2.240
REMARK INTER + INTRA:          -9.276
REMARK INTER:                  -8.468
REMARK INTRA:                  -0.807
REMARK UNBOUND:                -0.013
REMARK  Name = 
REMARK  6 active torsions:
REMARK  status: ('A' for Active; 'I' for Inactive)
REMARK    1  A    between atoms: C_1  and  C_2
REMARK    2  A    between atoms: C_4  and  C_5
REMARK    3  A    between atoms: C_10  and  N_11
REMARK    4  A    between atoms: N_11  and  C_12
REMARK    5  A    between atoms: C_12  and  C_13
REMARK    6  A    between atoms: C_17  and  C_18
REMARK                            x       y       z     vdW  Elec       q    Type
REMARK                         _______ _______ _______ _____ _____    ______ ____
ROOT
ATOM      1  N   UNL     1      44.297   6.632  11.870  0.00  0.00    +0.000 N 
ATOM      2  H   UNL     1      43.325   6.919  11.859  0.00  0.00    +0.000 HD
ENDROOT
BRANCH   1   9
ATOM      3  C   UNL     1      43.516   3.960  12.882  0.00  0.00    +0.000 C 
ATOM      4  C   UNL     1      44.172   4.208  11.555  0.00  0.00    +0.000 A 
ATOM      5  C   UNL     1      44.479   3.089  10.758  0.00  0.00    +0.000 A 
ATOM      6  C   UNL     1      45.096   3.240   9.518  0.00  0.00    +0.000 A 
ATOM      7  C   UNL     1      45.377   4.534   9.127  0.00  0.00    +0.000 A 
ATOM      8  N   UNL     1      45.098   5.639   9.870  0.00  0.00    +0.000 NA
ATOM      9  C   UNL     1      44.498   5.488  11.074  0.00  0.00    +0.000 A 
BRANCH   6  10
ATOM     10  C   UNL     1      45.414   2.030   8.724  0.00  0.00    +0.000 C 
ATOM     11  N   UNL     1      46.486   2.057   7.874  0.00  0.00    +0.000 N 
ATOM     12  O   UNL     1      44.741   1.012   8.812  0.00  0.00    +0.000 OA
ATOM     13  H   UNL     1      47.118   2.827   7.726  0.00  0.00    +0.000 HD
ATOM     14  H   UNL     1      46.667   1.200   7.363  0.00  0.00    +0.000 HD
ENDBRANCH   6  10
ENDBRANCH   1   9
BRANCH   1  15
ATOM     15  C   UNL     1      45.205   7.739  11.565  0.00  0.00    +0.000 C 
BRANCH  15  16
ATOM     16  C   UNL     1      46.547   7.541  12.243  0.00  0.00    +0.000 A 
ATOM     17  C   UNL     1      47.682   8.228  11.793  0.00  0.00    +0.000 A 
ATOM     18  C   UNL     1      48.918   8.028  12.404  0.00  0.00    +0.000 A 
ATOM     19  C   UNL     1      49.029   7.160  13.493  0.00  0.00    +0.000 A 
ATOM     20  C   UNL     1      47.909   6.474  13.998  0.00  0.00    +0.000 A 
ATOM     21  C   UNL     1      46.678   6.666  13.336  0.00  0.00    +0.000 A 
BRANCH  20  22
ATOM     22  C   UNL     1      48.014   5.622  15.202  0.00  0.00    +0.000 A 
ATOM     23  C   UNL     1      48.899   5.905  16.253  0.00  0.00    +0.000 A 
ATOM     24  C   UNL     1      49.001   5.044  17.347  0.00  0.00    +0.000 A 
ATOM     25  C   UNL     1      48.197   3.921  17.367  0.00  0.00    +0.000 A 
ATOM     26 CL   UNL     1      48.261   2.814  18.674  0.00  0.00    +0.000 Cl
ATOM     27  N   UNL     1      47.321   3.600  16.400  0.00  0.00    +0.000 NA
ATOM     28  C   UNL     1      47.258   4.451  15.347  0.00  0.00    +0.000 A 
ENDBRANCH  20  22
ENDBRANCH  15  16
ENDBRANCH   1  15
TORSDOF 5
ENDMDL
