MODEL 1
REMARK VINA RESULT:    -6.880      0.000      0.000
REMARK INTER + INTRA:          -9.721
REMARK INTER:                  -9.093
REMARK INTRA:                  -0.628
REMARK UNBOUND:                -0.628
REMARK  Name = 
REMARK  7 active torsions:
REMARK  status: ('A' for Active; 'I' for Inactive)
REMARK    1  A    between atoms: C_1  and  O_2
REMARK    2  A    between atoms: O_2  and  C_3
REMARK    3  A    between atoms: C_5  and  C_6
REMARK    4  A    between atoms: N_14  and  C_15
REMARK    5  A    between atoms: C_15  and  C_16
REMARK    6  A    between atoms: C_20  and  C_21
REMARK    7  A    between atoms: C_21  and  N_22
REMARK                            x       y       z     vdW  Elec       q    Type
REMARK                         _______ _______ _______ _____ _____    ______ ____
ROOT
ATOM      1  C   UNL     1      47.556   6.221  14.255  0.00  0.00    +0.000 A 
ATOM      2  C   UNL     1      47.249   7.512  13.838  0.00  0.00    +0.000 A 
ATOM      3  C   UNL     1      46.270   7.691  12.865  0.00  0.00    +0.000 A 
ATOM      4  N   UNL     1      45.556   6.704  12.243  0.00  0.00    +0.000 NA
ATOM      5  C   UNL     1      45.904   5.467  12.671  0.00  0.00    +0.000 A 
ATOM      6  C   UNL     1      46.859   5.162  13.642  0.00  0.00    +0.000 A 
ATOM      7  C   UNL     1      46.883   3.745  13.773  0.00  0.00    +0.000 A 
ATOM      8  C   UNL     1      45.970   3.225  12.885  0.00  0.00    +0.000 A 
ATOM      9  N   UNL     1      45.399   4.274  12.202  0.00  0.00    +0.000 N 
ENDROOT
BRANCH   3  10
ATOM     10  C   UNL     1      45.972   9.102  12.437  0.00  0.00    +0.000 C 
ATOM     11  N   UNL     1      44.724   9.570  12.742  0.00  0.00    +0.000 N 
ATOM     12  O   UNL     1      46.789   9.804  11.856  0.00  0.00    +0.000 OA
ATOM     13  H   UNL     1      44.078   8.997  13.267  0.00  0.00    +0.000 HD
ATOM     14  H   UNL     1      44.491  10.523  12.500  0.00  0.00    +0.000 HD
ENDBRANCH   3  10
BRANCH   1  16
ATOM     15  C   UNL     1      49.422   6.951  15.522  0.00  0.00    +0.000 C 
ATOM     16  O   UNL     1      48.516   5.906  15.180  0.00  0.00    +0.000 OA
ENDBRANCH   1  16
BRANCH   9  17
ATOM     17  C   UNL     1      44.412   4.117  11.143  0.00  0.00    +0.000 C 
BRANCH  17  18
ATOM     18  C   UNL     1      45.071   3.803   9.821  0.00  0.00    +0.000 A 
ATOM     19  C   UNL     1      45.488   4.832   8.980  0.00  0.00    +0.000 A 
ATOM     20  C   UNL     1      46.142   4.514   7.796  0.00  0.00    +0.000 A 
ATOM     21  C   UNL     1      46.357   3.180   7.475  0.00  0.00    +0.000 A 
ATOM     22  C   UNL     1      45.896   2.194   8.342  0.00  0.00    +0.000 A 
ATOM     23  N   UNL     1      45.256   2.491   9.506  0.00  0.00    +0.000 NA
BRANCH  22  24
ATOM     24  C   UNL     1      46.135   0.731   8.025  0.00  0.00    +0.000 C 
BRANCH  24  25
ATOM     25  N   UNL     1      47.216   0.513   7.055  0.00  0.00    +0.000 NA
ATOM     26  H   UNL     1      48.009   1.091   7.332  0.00  0.00    +0.000 HD
ATOM     27  H   UNL     1      46.913   0.869   6.150  0.00  0.00    +0.000 HD
ENDBRANCH  24  25
ENDBRANCH  22  24
ENDBRANCH  17  18
ENDBRANCH   9  17
TORSDOF 6
ENDMDL
MODEL 2
REMARK VINA RESULT:    -6.593      1.969      2.582
REMARK INTER + INTRA:          -9.341
REMARK INTER:                  -9.076
REMARK INTRA:                  -0.265
REMARK UNBOUND:                -0.628
REMARK  Name = 
REMARK  7 active torsions:
REMARK  status: ('A' for Active; 'I' for Inactive)
REMARK    1  A    between atoms: C_1  and  O_2
REMARK    2  A    between atoms: O_2  and  C_3
REMARK    3  A    between atoms: C_5  and  C_6
REMARK    4  A    between atoms: N_14  and  C_15
REMARK    5  A    between atoms: C_15  and  C_16
REMARK    6  A    between atoms: C_20  and  C_21
REMARK    7  A    between atoms: C_21  and  N_22
REMARK                            x       y       z     vdW  Elec       q    Type
REMARK                         _______ _______ _______ _____ _____    ______ ____
ROOT
ATOM      1  C   UNL     1      46.531   4.917  14.168  0.00  0.00    +0.000 A 
ATOM      2  C   UNL     1      47.532   5.834  13.858  0.00  0.00    +0.000 A 
ATOM      3  C   UNL     1      47.620   6.320  12.557  0.00  0.00    +0.000 A 
ATOM      4  N   UNL     1      46.811   5.980  11.508  0.00  0.00    +0.000 NA
ATOM      5  C   UNL     1      45.866   5.075  11.857  0.00  0.00    +0.000 A 
ATOM      6  C   UNL     1      45.672   4.522  13.123  0.00  0.00    +0.000 A 
ATOM      7  C   UNL     1      44.567   3.631  13.026  0.00  0.00    +0.000 A 
ATOM      8  C   UNL     1      44.127   3.648  11.722  0.00  0.00    +0.000 A 
ATOM      9  N   UNL     1      44.937   4.505  11.014  0.00  0.00    +0.000 N 
ENDROOT
BRANCH   3  10
ATOM     10  C   UNL     1      48.719   7.304  12.261  0.00  0.00    +0.000 C 
ATOM     11  N   UNL     1      49.775   7.303  13.129  0.00  0.00    +0.000 N 
ATOM     12  O   UNL     1      48.688   8.062  11.301  0.00  0.00    +0.000 OA
ATOM     13  H   UNL     1      49.811   6.636  13.889  0.00  0.00    +0.000 HD
ATOM     14  H   UNL     1      50.549   7.927  12.952  0.00  0.00    +0.000 HD
ENDBRANCH   3  10
BRANCH   1  16
ATOM     15  C   UNL     1      47.534   3.893  16.056  0.00  0.00    +0.000 C 
ATOM     16  O   UNL     1      46.353   4.341  15.397  0.00  0.00    +0.000 OA
ENDBRANCH   1  16
BRANCH   9  17
ATOM     17  C   UNL     1      44.809   4.754   9.584  0.00  0.00    +0.000 C 
BRANCH  17  18
ATOM     18  C   UNL     1      45.436   3.641   8.777  0.00  0.00    +0.000 A 
ATOM     19  C   UNL     1      45.418   2.332   9.250  0.00  0.00    +0.000 A 
ATOM     20  C   UNL     1      45.953   1.321   8.462  0.00  0.00    +0.000 A 
ATOM     21  C   UNL     1      46.498   1.639   7.224  0.00  0.00    +0.000 A 
ATOM     22  C   UNL     1      46.510   2.970   6.815  0.00  0.00    +0.000 A 
ATOM     23  N   UNL     1      45.989   3.969   7.577  0.00  0.00    +0.000 NA
BRANCH  22  24
ATOM     24  C   UNL     1      47.082   3.342   5.461  0.00  0.00    +0.000 C 
BRANCH  24  25
ATOM     25  N   UNL     1      48.266   2.556   5.091  0.00  0.00    +0.000 NA
ATOM     26  H   UNL     1      48.807   2.383   5.938  0.00  0.00    +0.000 HD
ATOM     27  H   UNL     1      48.859   3.129   4.493  0.00  0.00    +0.000 HD
ENDBRANCH  24  25
ENDBRANCH  22  24
ENDBRANCH  17  18
ENDBRANCH   9  17
TORSDOF 6
ENDMDL
MODEL 3
REMARK VINA RESULT:    -6.570      1.726      2.342
REMARK INTER + INTRA:          -9.310
REMARK INTER:                  -8.715
REMARK INTRA:                  -0.595
REMARK UNBOUND:                -0.628
REMARK  Name = 
REMARK  7 active torsions:
REMARK  status: ('A' for Active; 'I' for Inactive)
REMARK    1  A    between atoms: C_1  and  O_2
REMARK    2  A    between atoms: O_2  and  C_3
REMARK    3  A    between atoms: C_5  and  C_6
REMARK    4  A    between atoms: N_14  and  C_15
REMARK    5  A    between atoms: C_15  and  C_16
REMARK    6  A    between atoms: C_20  and  C_21
REMARK    7  A    between atoms: C_21  and  N_22
REMARK                            x       y       z     vdW  Elec       q    Type
REMARK                         _______ _______ _______ _____ _____    ______ ____
ROOT
ATOM      1  C   UNL     1      46.539   8.252  13.223  0.00  0.00    +0.000 A 
ATOM      2  C   UNL     1      45.892   9.341  12.649  0.00  0.00    +0.000 A 
ATOM      3  C   UNL     1      44.859   9.111  11.745  0.00  0.00    +0.000 A 
ATOM      4  N   UNL     1      44.398   7.890  11.335  0.00  0.00    +0.000 NA
ATOM      5  C   UNL     1      45.071   6.864  11.910  0.00  0.00    +0.000 A 
ATOM      6  C   UNL     1      46.113   6.968  12.832  0.00  0.00    +0.000 A 
ATOM      7  C   UNL     1      46.507   5.642  13.168  0.00  0.00    +0.000 A 
ATOM      8  C   UNL     1      45.721   4.775  12.445  0.00  0.00    +0.000 A 
ATOM      9  N   UNL     1      44.871   5.524  11.664  0.00  0.00    +0.000 N 
ENDROOT
BRANCH   3  10
ATOM     10  C   UNL     1      44.189  10.315  11.141  0.00  0.00    +0.000 C 
ATOM     11  N   UNL     1      43.695  10.156   9.877  0.00  0.00    +0.000 N 
ATOM     12  O   UNL     1      44.079  11.379  11.736  0.00  0.00    +0.000 OA
ATOM     13  H   UNL     1      43.748   9.256   9.417  0.00  0.00    +0.000 HD
ATOM     14  H   UNL     1      43.210  10.929   9.444  0.00  0.00    +0.000 HD
ENDBRANCH   3  10
BRANCH   1  16
ATOM     15  C   UNL     1      48.879   8.488  13.523  0.00  0.00    +0.000 C 
ATOM     16  O   UNL     1      47.586   8.340  14.102  0.00  0.00    +0.000 OA
ENDBRANCH   1  16
BRANCH   9  17
ATOM     17  C   UNL     1      43.913   4.957  10.725  0.00  0.00    +0.000 C 
BRANCH  17  18
ATOM     18  C   UNL     1      44.563   3.924   9.836  0.00  0.00    +0.000 A 
ATOM     19  C   UNL     1      44.234   2.576   9.965  0.00  0.00    +0.000 A 
ATOM     20  C   UNL     1      44.806   1.655   9.097  0.00  0.00    +0.000 A 
ATOM     21  C   UNL     1      45.696   2.096   8.127  0.00  0.00    +0.000 A 
ATOM     22  C   UNL     1      46.006   3.452   8.061  0.00  0.00    +0.000 A 
ATOM     23  N   UNL     1      45.452   4.365   8.905  0.00  0.00    +0.000 NA
BRANCH  22  24
ATOM     24  C   UNL     1      46.960   3.962   6.999  0.00  0.00    +0.000 C 
BRANCH  24  25
ATOM     25  N   UNL     1      48.015   3.001   6.653  0.00  0.00    +0.000 NA
ATOM     26  H   UNL     1      48.910   3.489   6.687  0.00  0.00    +0.000 HD
ATOM     27  H   UNL     1      47.888   2.720   5.681  0.00  0.00    +0.000 HD
ENDBRANCH  24  25
ENDBRANCH  22  24
ENDBRANCH  17  18
ENDBRANCH   9  17
TORSDOF 6
ENDMDL
MODEL 4
REMARK VINA RESULT:    -6.455      1.818      3.587
REMARK INTER + INTRA:          -9.158
REMARK INTER:                  -8.634
REMARK INTRA:                  -0.524
REMARK UNBOUND:                -0.628
REMARK  Name = 
REMARK  7 active torsions:
REMARK  status: ('A' for Active; 'I' for Inactive)
REMARK    1  A    between atoms: C_1  and  O_2
REMARK    2  A    between atoms: O_2  and  C_3
REMARK    3  A    between atoms: C_5  and  C_6
REMARK    4  A    between atoms: N_14  and  C_15
REMARK    5  A    between atoms: C_15  and  C_16
REMARK    6  A    between atoms: C_20  and  C_21
REMARK    7  A    between atoms: C_21  and  N_22
REMARK                            x       y       z     vdW  Elec       q    Type
REMARK                         _______ _______ _______ _____ _____    ______ ____
ROOT
ATOM      1  C   UNL     1      47.504   7.479  13.678  0.00  0.00    +0.000 A 
ATOM      2  C   UNL     1      47.730   6.281  14.349  0.00  0.00    +0.000 A 
ATOM      3  C   UNL     1      46.887   5.202  14.103  0.00  0.00    +0.000 A 
ATOM      4  N   UNL     1      45.817   5.187  13.251  0.00  0.00    +0.000 NA
ATOM      5  C   UNL     1      45.630   6.379  12.636  0.00  0.00    +0.000 A 
ATOM      6  C   UNL     1      46.409   7.526  12.794  0.00  0.00    +0.000 A 
ATOM      7  C   UNL     1      45.851   8.529  11.951  0.00  0.00    +0.000 A 
ATOM      8  C   UNL     1      44.755   7.986  11.321  0.00  0.00    +0.000 A 
ATOM      9  N   UNL     1      44.612   6.690  11.762  0.00  0.00    +0.000 N 
ENDROOT
BRANCH   3  10
ATOM     10  C   UNL     1      47.161   3.927  14.854  0.00  0.00    +0.000 C 
ATOM     11  N   UNL     1      46.958   3.970  16.205  0.00  0.00    +0.000 N 
ATOM     12  O   UNL     1      47.537   2.901  14.301  0.00  0.00    +0.000 OA
ATOM     13  H   UNL     1      46.599   4.809  16.640  0.00  0.00    +0.000 HD
ATOM     14  H   UNL     1      47.101   3.128  16.744  0.00  0.00    +0.000 HD
ENDBRANCH   3  10
BRANCH   1  16
ATOM     15  C   UNL     1      48.479   9.014  15.198  0.00  0.00    +0.000 C 
ATOM     16  O   UNL     1      48.239   8.622  13.850  0.00  0.00    +0.000 OA
ENDBRANCH   1  16
BRANCH   9  17
ATOM     17  C   UNL     1      43.533   5.803  11.349  0.00  0.00    +0.000 C 
BRANCH  17  18
ATOM     18  C   UNL     1      44.064   4.616  10.580  0.00  0.00    +0.000 A 
ATOM     19  C   UNL     1      43.683   3.323  10.930  0.00  0.00    +0.000 A 
ATOM     20  C   UNL     1      44.143   2.254  10.171  0.00  0.00    +0.000 A 
ATOM     21  C   UNL     1      44.976   2.499   9.086  0.00  0.00    +0.000 A 
ATOM     22  C   UNL     1      45.343   3.811   8.799  0.00  0.00    +0.000 A 
ATOM     23  N   UNL     1      44.899   4.866   9.535  0.00  0.00    +0.000 NA
BRANCH  22  24
ATOM     24  C   UNL     1      46.236   4.106   7.611  0.00  0.00    +0.000 C 
BRANCH  24  25
ATOM     25  N   UNL     1      47.096   2.978   7.231  0.00  0.00    +0.000 NA
ATOM     26  H   UNL     1      47.979   3.355   6.889  0.00  0.00    +0.000 HD
ATOM     27  H   UNL     1      46.669   2.501   6.438  0.00  0.00    +0.000 HD
ENDBRANCH  24  25
ENDBRANCH  22  24
ENDBRANCH  17  18
ENDBRANCH   9  17
TORSDOF 6
ENDMDL
MODEL 5
REMARK VINA RESULT:    -6.119      3.595      7.252
REMARK INTER + INTRA:          -8.714
REMARK INTER:                  -8.395
REMARK INTRA:                  -0.319
REMARK UNBOUND:                -0.628
REMARK  Name = 
REMARK  7 active torsions:
REMARK  status: ('A' for Active; 'I' for Inactive)
REMARK    1  A    between atoms: C_1  and  O_2
REMARK    2  A    between atoms: O_2  and  C_3
REMARK    3  A    between atoms: C_5  and  C_6
REMARK    4  A    between atoms: N_14  and  C_15
REMARK    5  A    between atoms: C_15  and  C_16
REMARK    6  A    between atoms: C_20  and  C_21
REMARK    7  A    between atoms: C_21  and  N_22
REMARK                            x       y       z     vdW  Elec       q    Type
REMARK                         _______ _______ _______ _____ _____    ______ ____
ROOT
ATOM      1  C   UNL     1      46.478   7.398  12.849  0.00  0.00    +0.000 A 
ATOM      2  C   UNL     1      46.241   6.027  12.858  0.00  0.00    +0.000 A 
ATOM      3  C   UNL     1      47.037   5.211  13.656  0.00  0.00    +0.000 A 
ATOM      4  N   UNL     1      48.069   5.618  14.456  0.00  0.00    +0.000 NA
ATOM      5  C   UNL     1      48.270   6.957  14.399  0.00  0.00    +0.000 A 
ATOM      6  C   UNL     1      47.536   7.875  13.647  0.00  0.00    +0.000 A 
ATOM      7  C   UNL     1      48.091   9.161  13.902  0.00  0.00    +0.000 A 
ATOM      8  C   UNL     1      49.141   9.000  14.776  0.00  0.00    +0.000 A 
ATOM      9  N   UNL     1      49.259   7.658  15.052  0.00  0.00    +0.000 N 
ENDROOT
BRANCH   3  10
ATOM     10  C   UNL     1      46.753   3.734  13.632  0.00  0.00    +0.000 C 
ATOM     11  N   UNL     1      45.702   3.337  12.854  0.00  0.00    +0.000 N 
ATOM     12  O   UNL     1      47.418   2.922  14.262  0.00  0.00    +0.000 OA
ATOM     13  H   UNL     1      45.193   4.013  12.300  0.00  0.00    +0.000 HD
ATOM     14  H   UNL     1      45.494   2.351  12.785  0.00  0.00    +0.000 HD
ENDBRANCH   3  10
BRANCH   1  16
ATOM     15  C   UNL     1      44.621   7.817  11.437  0.00  0.00    +0.000 C 
ATOM     16  O   UNL     1      45.790   8.305  12.088  0.00  0.00    +0.000 OA
ENDBRANCH   1  16
BRANCH   9  17
ATOM     17  C   UNL     1      50.290   7.089  15.910  0.00  0.00    +0.000 C 
BRANCH  17  18
ATOM     18  C   UNL     1      49.708   6.075  16.867  0.00  0.00    +0.000 A 
ATOM     19  C   UNL     1      48.762   6.460  17.812  0.00  0.00    +0.000 A 
ATOM     20  C   UNL     1      48.203   5.496  18.642  0.00  0.00    +0.000 A 
ATOM     21  C   UNL     1      48.607   4.173  18.515  0.00  0.00    +0.000 A 
ATOM     22  C   UNL     1      49.575   3.851  17.568  0.00  0.00    +0.000 A 
ATOM     23  N   UNL     1      50.129   4.785  16.749  0.00  0.00    +0.000 NA
BRANCH  22  24
ATOM     24  C   UNL     1      50.019   2.411  17.396  0.00  0.00    +0.000 C 
BRANCH  24  25
ATOM     25  N   UNL     1      49.562   1.806  16.138  0.00  0.00    +0.000 NA
ATOM     26  H   UNL     1      48.739   2.319  15.822  0.00  0.00    +0.000 HD
ATOM     27  H   UNL     1      49.242   0.859  16.335  0.00  0.00    +0.000 HD
ENDBRANCH  24  25
ENDBRANCH  22  24
ENDBRANCH  17  18
ENDBRANCH   9  17
TORSDOF 6
ENDMDL
MODEL 6
REMARK VINA RESULT:    -6.037      3.737      7.343
REMARK INTER + INTRA:          -8.606
REMARK INTER:                  -8.252
REMARK INTRA:                  -0.354
REMARK UNBOUND:                -0.628
REMARK  Name = 
REMARK  7 active torsions:
REMARK  status: ('A' for Active; 'I' for Inactive)
REMARK    1  A    between atoms: C_1  and  O_2
REMARK    2  A    between atoms: O_2  and  C_3
REMARK    3  A    between atoms: C_5  and  C_6
REMARK    4  A    between atoms: N_14  and  C_15
REMARK    5  A    between atoms: C_15  and  C_16
REMARK    6  A    between atoms: C_20  and  C_21
REMARK    7  A    between atoms: C_21  and  N_22
REMARK                            x       y       z     vdW  Elec       q    Type
REMARK                         _______ _______ _______ _____ _____    ______ ____
ROOT
ATOM      1  C   UNL     1      45.816   6.515  12.097  0.00  0.00    +0.000 A 
ATOM      2  C   UNL     1      44.881   5.577  11.671  0.00  0.00    +0.000 A 
ATOM      3  C   UNL     1      44.767   4.376  12.364  0.00  0.00    +0.000 A 
ATOM      4  N   UNL     1      45.503   3.995  13.452  0.00  0.00    +0.000 NA
ATOM      5  C   UNL     1      46.409   4.934  13.817  0.00  0.00    +0.000 A 
ATOM      6  C   UNL     1      46.611   6.173  13.209  0.00  0.00    +0.000 A 
ATOM      7  C   UNL     1      47.652   6.826  13.928  0.00  0.00    +0.000 A 
ATOM      8  C   UNL     1      48.064   5.980  14.931  0.00  0.00    +0.000 A 
ATOM      9  N   UNL     1      47.324   4.824  14.840  0.00  0.00    +0.000 N 
ENDROOT
BRANCH   3  10
ATOM     10  C   UNL     1      43.748   3.387  11.867  0.00  0.00    +0.000 C 
ATOM     11  N   UNL     1      43.721   2.180  12.509  0.00  0.00    +0.000 N 
ATOM     12  O   UNL     1      42.978   3.635  10.948  0.00  0.00    +0.000 OA
ATOM     13  H   UNL     1      44.329   2.008  13.298  0.00  0.00    +0.000 HD
ATOM     14  H   UNL     1      43.033   1.497  12.227  0.00  0.00    +0.000 HD
ENDBRANCH   3  10
BRANCH   1  16
ATOM     15  C   UNL     1      45.092   8.744  11.741  0.00  0.00    +0.000 C 
ATOM     16  O   UNL     1      46.049   7.719  11.488  0.00  0.00    +0.000 OA
ENDBRANCH   1  16
BRANCH   9  17
ATOM     17  C   UNL     1      47.504   3.670  15.710  0.00  0.00    +0.000 C 
BRANCH  17  18
ATOM     18  C   UNL     1      48.279   4.036  16.954  0.00  0.00    +0.000 A 
ATOM     19  C   UNL     1      47.635   4.640  18.032  0.00  0.00    +0.000 A 
ATOM     20  C   UNL     1      48.360   4.916  19.184  0.00  0.00    +0.000 A 
ATOM     21  C   UNL     1      49.710   4.591  19.232  0.00  0.00    +0.000 A 
ATOM     22  C   UNL     1      50.305   4.011  18.115  0.00  0.00    +0.000 A 
ATOM     23  N   UNL     1      49.606   3.735  16.981  0.00  0.00    +0.000 NA
BRANCH  22  24
ATOM     24  C   UNL     1      51.772   3.629  18.148  0.00  0.00    +0.000 C 
BRANCH  24  25
ATOM     25  N   UNL     1      51.999   2.180  18.090  0.00  0.00    +0.000 NA
ATOM     26  H   UNL     1      51.093   1.722  17.997  0.00  0.00    +0.000 HD
ATOM     27  H   UNL     1      52.376   1.877  18.987  0.00  0.00    +0.000 HD
ENDBRANCH  24  25
ENDBRANCH  22  24
ENDBRANCH  17  18
ENDBRANCH   9  17
TORSDOF 6
ENDMDL
MODEL 7
REMARK VINA RESULT:    -6.034      3.531      5.508
REMARK INTER + INTRA:          -8.602
REMARK INTER:                  -7.906
REMARK INTRA:                  -0.696
REMARK UNBOUND:                -0.628
REMARK  Name = 
REMARK  7 active torsions:
REMARK  status: ('A' for Active; 'I' for Inactive)
REMARK    1  A    between atoms: C_1  and  O_2
REMARK    2  A    between atoms: O_2  and  C_3
REMARK    3  A    between atoms: C_5  and  C_6
REMARK    4  A    between atoms: N_14  and  C_15
REMARK    5  A    between atoms: C_15  and  C_16
REMARK    6  A    between atoms: C_20  and  C_21
REMARK    7  A    between atoms: C_21  and  N_22
REMARK                            x       y       z     vdW  Elec       q    Type
REMARK                         _______ _______ _______ _____ _____    ______ ____
ROOT
ATOM      1  C   UNL     1      48.649   6.847  17.732  0.00  0.00    +0.000 A 
ATOM      2  C   UNL     1      48.303   5.510  17.900  0.00  0.00    +0.000 A 
ATOM      3  C   UNL     1      48.104   4.718  16.773  0.00  0.00    +0.000 A 
ATOM      4  N   UNL     1      48.207   5.123  15.470  0.00  0.00    +0.000 NA
ATOM      5  C   UNL     1      48.530   6.434  15.360  0.00  0.00    +0.000 A 
ATOM      6  C   UNL     1      48.761   7.323  16.411  0.00  0.00    +0.000 A 
ATOM      7  C   UNL     1      49.076   8.584  15.830  0.00  0.00    +0.000 A 
ATOM      8  C   UNL     1      49.017   8.442  14.463  0.00  0.00    +0.000 A 
ATOM      9  N   UNL     1      48.659   7.143  14.186  0.00  0.00    +0.000 N 
ENDROOT
BRANCH   3  10
ATOM     10  C   UNL     1      47.724   3.280  16.997  0.00  0.00    +0.000 C 
ATOM     11  N   UNL     1      48.695   2.355  16.735  0.00  0.00    +0.000 N 
ATOM     12  O   UNL     1      46.617   2.943  17.397  0.00  0.00    +0.000 OA
ATOM     13  H   UNL     1      49.620   2.651  16.454  0.00  0.00    +0.000 HD
ATOM     14  H   UNL     1      48.493   1.379  16.900  0.00  0.00    +0.000 HD
ENDBRANCH   3  10
BRANCH   1  16
ATOM     15  C   UNL     1      47.666   8.272  19.351  0.00  0.00    +0.000 C 
ATOM     16  O   UNL     1      48.844   7.737  18.754  0.00  0.00    +0.000 OA
ENDBRANCH   1  16
BRANCH   9  17
ATOM     17  C   UNL     1      48.453   6.621  12.842  0.00  0.00    +0.000 C 
BRANCH  17  18
ATOM     18  C   UNL     1      46.982   6.544  12.505  0.00  0.00    +0.000 A 
ATOM     19  C   UNL     1      46.284   7.690  12.133  0.00  0.00    +0.000 A 
ATOM     20  C   UNL     1      44.946   7.580  11.775  0.00  0.00    +0.000 A 
ATOM     21  C   UNL     1      44.335   6.333  11.802  0.00  0.00    +0.000 A 
ATOM     22  C   UNL     1      45.077   5.226  12.205  0.00  0.00    +0.000 A 
ATOM     23  N   UNL     1      46.388   5.320  12.558  0.00  0.00    +0.000 NA
BRANCH  22  24
ATOM     24  C   UNL     1      44.440   3.851  12.225  0.00  0.00    +0.000 C 
BRANCH  24  25
ATOM     25  N   UNL     1      45.378   2.778  12.579  0.00  0.00    +0.000 NA
ATOM     26  H   UNL     1      45.537   2.817  13.585  0.00  0.00    +0.000 HD
ATOM     27  H   UNL     1      46.277   2.981  12.145  0.00  0.00    +0.000 HD
ENDBRANCH  24  25
ENDBRANCH  22  24
ENDBRANCH  17  18
ENDBRANCH   9  17
TORSDOF 6
ENDMDL
MODEL 8
REMARK VINA RESULT:    -5.919      3.592      6.319
REMARK INTER + INTRA:          -8.449
REMARK INTER:                  -7.737
REMARK INTRA:                  -0.713
REMARK UNBOUND:                -0.628
REMARK  Name = 
REMARK  7 active torsions:
REMARK  status: ('A' for Active; 'I' for Inactive)
REMARK    1  A    between atoms: C_1  and  O_2
REMARK    2  A    between atoms: O_2  and  C_3
REMARK    3  A    between atoms: C_5  and  C_6
REMARK    4  A    between atoms: N_14  and  C_15
REMARK    5  A    between atoms: C_15  and  C_16
REMARK    6  A    between atoms: C_20  and  C_21
REMARK    7  A    between atoms: C_21  and  N_22
REMARK                            x       y       z     vdW  Elec       q    Type
REMARK                         _______ _______ _______ _____ _____    ______ ____
ROOT
ATOM      1  C   UNL     1      45.280   4.105  12.067  0.00  0.00    +0.000 A 
ATOM      2  C   UNL     1      46.021   3.631  13.145  0.00  0.00    +0.000 A 
ATOM      3  C   UNL     1      46.589   4.546  14.026  0.00  0.00    +0.000 A 
ATOM      4  N   UNL     1      46.506   5.909  13.945  0.00  0.00    +0.000 NA
ATOM      5  C   UNL     1      45.789   6.320  12.871  0.00  0.00    +0.000 A 
ATOM      6  C   UNL     1      45.167   5.502  11.926  0.00  0.00    +0.000 A 
ATOM      7  C   UNL     1      44.526   6.361  10.989  0.00  0.00    +0.000 A 
ATOM      8  C   UNL     1      44.779   7.659  11.367  0.00  0.00    +0.000 A 
ATOM      9  N   UNL     1      45.568   7.626  12.494  0.00  0.00    +0.000 N 
ENDROOT
BRANCH   3  10
ATOM     10  C   UNL     1      47.388   3.993  15.175  0.00  0.00    +0.000 C 
ATOM     11  N   UNL     1      47.529   4.815  16.258  0.00  0.00    +0.000 N 
ATOM     12  O   UNL     1      47.883   2.874  15.158  0.00  0.00    +0.000 OA
ATOM     13  H   UNL     1      47.072   5.717  16.278  0.00  0.00    +0.000 HD
ATOM     14  H   UNL     1      48.032   4.472  17.064  0.00  0.00    +0.000 HD
ENDBRANCH   3  10
BRANCH   1  16
ATOM     15  C   UNL     1      43.390   2.830  11.418  0.00  0.00    +0.000 C 
ATOM     16  O   UNL     1      44.694   3.316  11.114  0.00  0.00    +0.000 OA
ENDBRANCH   1  16
BRANCH   9  17
ATOM     17  C   UNL     1      46.081   8.812  13.166  0.00  0.00    +0.000 C 
BRANCH  17  18
ATOM     18  C   UNL     1      47.155   9.485  12.346  0.00  0.00    +0.000 A 
ATOM     19  C   UNL     1      46.921  10.729  11.765  0.00  0.00    +0.000 A 
ATOM     20  C   UNL     1      47.946  11.350  11.062  0.00  0.00    +0.000 A 
ATOM     21  C   UNL     1      49.176  10.715  10.950  0.00  0.00    +0.000 A 
ATOM     22  C   UNL     1      49.344   9.461  11.531  0.00  0.00    +0.000 A 
ATOM     23  N   UNL     1      48.349   8.842  12.223  0.00  0.00    +0.000 NA
BRANCH  22  24
ATOM     24  C   UNL     1      50.682   8.755  11.440  0.00  0.00    +0.000 C 
BRANCH  24  25
ATOM     25  N   UNL     1      50.608   7.322  11.752  0.00  0.00    +0.000 NA
ATOM     26  H   UNL     1      49.663   7.002  11.545  0.00  0.00    +0.000 HD
ATOM     27  H   UNL     1      50.729   7.205  12.757  0.00  0.00    +0.000 HD
ENDBRANCH  24  25
ENDBRANCH  22  24
ENDBRANCH  17  18
ENDBRANCH   9  17
TORSDOF 6
ENDMDL
MODEL 9
REMARK VINA RESULT:    -5.753      3.530      6.459
REMARK INTER + INTRA:          -8.231
REMARK INTER:                  -8.174
REMARK INTRA:                  -0.056
REMARK UNBOUND:                -0.628
REMARK  Name = 
REMARK  7 active torsions:
REMARK  status: ('A' for Active; 'I' for Inactive)
REMARK    1  A    between atoms: C_1  and  O_2
REMARK    2  A    between atoms: O_2  and  C_3
REMARK    3  A    between atoms: C_5  and  C_6
REMARK    4  A    between atoms: N_14  and  C_15
REMARK    5  A    between atoms: C_15  and  C_16
REMARK    6  A    between atoms: C_20  and  C_21
REMARK    7  A    between atoms: C_21  and  N_22
REMARK                            x       y       z     vdW  Elec       q    Type
REMARK                         _______ _______ _______ _____ _____    ______ ____
ROOT
ATOM      1  C   UNL     1      44.753   5.939  11.560  0.00  0.00    +0.000 A 
ATOM      2  C   UNL     1      44.734   7.329  11.485  0.00  0.00    +0.000 A 
ATOM      3  C   UNL     1      45.574   8.060  12.319  0.00  0.00    +0.000 A 
ATOM      4  N   UNL     1      46.442   7.550  13.244  0.00  0.00    +0.000 NA
ATOM      5  C   UNL     1      46.412   6.196  13.290  0.00  0.00    +0.000 A 
ATOM      6  C   UNL     1      45.622   5.357  12.503  0.00  0.00    +0.000 A 
ATOM      7  C   UNL     1      45.925   4.019  12.886  0.00  0.00    +0.000 A 
ATOM      8  C   UNL     1      46.864   4.072  13.890  0.00  0.00    +0.000 A 
ATOM      9  N   UNL     1      47.134   5.396  14.148  0.00  0.00    +0.000 N 
ENDROOT
BRANCH   3  10
ATOM     10  C   UNL     1      45.518   9.560  12.212  0.00  0.00    +0.000 C 
ATOM     11  N   UNL     1      44.320  10.140  12.522  0.00  0.00    +0.000 N 
ATOM     12  O   UNL     1      46.482  10.235  11.875  0.00  0.00    +0.000 OA
ATOM     13  H   UNL     1      43.548   9.573  12.847  0.00  0.00    +0.000 HD
ATOM     14  H   UNL     1      44.246  11.146  12.492  0.00  0.00    +0.000 HD
ENDBRANCH   3  10
BRANCH   1  16
ATOM     15  C   UNL     1      42.680   4.806  11.371  0.00  0.00    +0.000 C 
ATOM     16  O   UNL     1      43.959   5.106  10.819  0.00  0.00    +0.000 OA
ENDBRANCH   1  16
BRANCH   9  17
ATOM     17  C   UNL     1      48.052   5.856  15.181  0.00  0.00    +0.000 C 
BRANCH  17  18
ATOM     18  C   UNL     1      48.230   4.812  16.259  0.00  0.00    +0.000 A 
ATOM     19  C   UNL     1      47.120   4.235  16.871  0.00  0.00    +0.000 A 
ATOM     20  C   UNL     1      47.313   3.239  17.820  0.00  0.00    +0.000 A 
ATOM     21  C   UNL     1      48.606   2.846  18.140  0.00  0.00    +0.000 A 
ATOM     22  C   UNL     1      49.678   3.475  17.513  0.00  0.00    +0.000 A 
ATOM     23  N   UNL     1      49.502   4.452  16.582  0.00  0.00    +0.000 NA
BRANCH  22  24
ATOM     24  C   UNL     1      51.098   3.052  17.831  0.00  0.00    +0.000 C 
BRANCH  24  25
ATOM     25  N   UNL     1      51.302   1.599  17.770  0.00  0.00    +0.000 NA
ATOM     26  H   UNL     1      52.003   1.349  18.467  0.00  0.00    +0.000 HD
ATOM     27  H   UNL     1      51.712   1.370  16.866  0.00  0.00    +0.000 HD
ENDBRANCH  24  25
ENDBRANCH  22  24
ENDBRANCH  17  18
ENDBRANCH   9  17
TORSDOF 6
ENDMDL
