MODEL 1
REMARK VINA RESULT:    -8.466      0.000      0.000
REMARK INTER + INTRA:         -11.654
REMARK INTER:                 -10.940
REMARK INTRA:                  -0.714
REMARK UNBOUND:                -0.714
REMARK  Name = 
REMARK  5 active torsions:
REMARK  status: ('A' for Active; 'I' for Inactive)
REMARK    1  A    between atoms: C_2  and  C_3
REMARK    2  A    between atoms: C_6  and  N_7
REMARK    3  A    between atoms: N_7  and  C_8
REMARK    4  A    between atoms: C_8  and  C_9
REMARK    5  A    between atoms: C_11  and  C_12
REMARK                            x       y       z     vdW  Elec       q    Type
REMARK                         _______ _______ _______ _____ _____    ______ ____
ROOT
ATOM      1  C   UNL     1      43.898   4.883  11.296  0.00  0.00    +0.000 C 
ATOM      2  C   UNL     1      42.651   5.035  12.162  0.00  0.00    +0.000 C 
ATOM      3  C   UNL     1      43.081   6.166  11.288  0.00  0.00    +0.000 C 
ENDROOT
BRANCH   1   4
ATOM      4  C   UNL     1      45.242   4.963  12.037  0.00  0.00    +0.000 A 
ATOM      5  C   UNL     1      46.118   6.008  11.742  0.00  0.00    +0.000 A 
ATOM      6  C   UNL     1      47.182   6.334  12.590  0.00  0.00    +0.000 A 
ATOM      7  C   UNL     1      47.360   5.519  13.711  0.00  0.00    +0.000 A 
ATOM      8  C   UNL     1      46.519   4.433  13.895  0.00  0.00    +0.000 A 
ATOM      9  N   UNL     1      45.477   4.142  13.090  0.00  0.00    +0.000 NA
BRANCH   6  10
ATOM     10  C   UNL     1      48.053   7.490  12.284  0.00  0.00    +0.000 A 
ATOM     11  C   UNL     1      47.528   8.797  12.162  0.00  0.00    +0.000 A 
ATOM     12  C   UNL     1      48.321   9.874  11.753  0.00  0.00    +0.000 A 
ATOM     13  C   UNL     1      49.669   9.674  11.488  0.00  0.00    +0.000 A 
ATOM     14  C   UNL     1      50.211   8.408  11.651  0.00  0.00    +0.000 A 
ATOM     15  F   UNL     1      51.514   8.212  11.408  0.00  0.00    +0.000 F 
ATOM     16  C   UNL     1      49.426   7.326  12.043  0.00  0.00    +0.000 A 
ENDBRANCH   6  10
ENDBRANCH   1   4
BRANCH   1  17
ATOM     17  N   UNL     1      43.792   3.889  10.227  0.00  0.00    +0.000 N 
ATOM     18  H   UNL     1      43.039   3.209  10.265  0.00  0.00    +0.000 HD
BRANCH  17  22
ATOM     19  C   UNL     1      46.565   2.526   7.526  0.00  0.00    +0.000 A 
ATOM     20  C   UNL     1      45.951   1.702   8.449  0.00  0.00    +0.000 A 
ATOM     21  N   UNL     1      45.051   2.163   9.354  0.00  0.00    +0.000 NA
ATOM     22  C   UNL     1      44.754   3.483   9.316  0.00  0.00    +0.000 A 
ATOM     23  C   UNL     1      45.378   4.296   8.368  0.00  0.00    +0.000 A 
ATOM     24  N   UNL     1      46.294   3.855   7.467  0.00  0.00    +0.000 NA
BRANCH  19  26
ATOM     25  N   UNL     1      48.282   1.593   5.820  0.00  0.00    +0.000 NA
ATOM     26  C   UNL     1      47.494   1.992   6.580  0.00  0.00    +0.000 C 
ENDBRANCH  19  26
ENDBRANCH  17  22
ENDBRANCH   1  17
TORSDOF 5
ENDMDL
MODEL 2
REMARK VINA RESULT:    -8.199      3.470      7.119
REMARK INTER + INTRA:         -11.310
REMARK INTER:                 -10.568
REMARK INTRA:                  -0.741
REMARK UNBOUND:                -0.714
REMARK  Name = 
REMARK  5 active torsions:
REMARK  status: ('A' for Active; 'I' for Inactive)
REMARK    1  A    between atoms: C_2  and  C_3
REMARK    2  A    between atoms: C_6  and  N_7
REMARK    3  A    between atoms: N_7  and  C_8
REMARK    4  A    between atoms: C_8  and  C_9
REMARK    5  A    between atoms: C_11  and  C_12
REMARK                            x       y       z     vdW  Elec       q    Type
REMARK                         _______ _______ _______ _____ _____    ______ ____
ROOT
ATOM      1  C   UNL     1      46.146   7.062  12.163  0.00  0.00    +0.000 C 
ATOM      2  C   UNL     1      46.333   8.519  11.750  0.00  0.00    +0.000 C 
ATOM      3  C   UNL     1      45.449   8.191  12.907  0.00  0.00    +0.000 C 
ENDROOT
BRANCH   1   4
ATOM      4  C   UNL     1      45.243   6.218  11.252  0.00  0.00    +0.000 A 
ATOM      5  C   UNL     1      45.827   5.432  10.258  0.00  0.00    +0.000 A 
ATOM      6  C   UNL     1      45.119   4.404   9.625  0.00  0.00    +0.000 A 
ATOM      7  C   UNL     1      43.780   4.248   9.996  0.00  0.00    +0.000 A 
ATOM      8  C   UNL     1      43.228   5.127  10.914  0.00  0.00    +0.000 A 
ATOM      9  N   UNL     1      43.924   6.097  11.542  0.00  0.00    +0.000 NA
BRANCH   6  10
ATOM     10  C   UNL     1      45.786   3.545   8.624  0.00  0.00    +0.000 A 
ATOM     11  C   UNL     1      46.339   4.084   7.440  0.00  0.00    +0.000 A 
ATOM     12  C   UNL     1      46.861   3.268   6.432  0.00  0.00    +0.000 A 
ATOM     13  C   UNL     1      46.873   1.890   6.600  0.00  0.00    +0.000 A 
ATOM     14  C   UNL     1      46.381   1.347   7.778  0.00  0.00    +0.000 A 
ATOM     15  F   UNL     1      46.401   0.019   7.950  0.00  0.00    +0.000 F 
ATOM     16  C   UNL     1      45.844   2.151   8.780  0.00  0.00    +0.000 A 
ENDBRANCH   6  10
ENDBRANCH   1   4
BRANCH   1  17
ATOM     17  N   UNL     1      47.346   6.410  12.692  0.00  0.00    +0.000 N 
ATOM     18  H   UNL     1      48.119   6.223  12.060  0.00  0.00    +0.000 HD
BRANCH  17  22
ATOM     19  C   UNL     1      47.818   4.393  16.234  0.00  0.00    +0.000 A 
ATOM     20  C   UNL     1      48.446   5.595  15.968  0.00  0.00    +0.000 A 
ATOM     21  N   UNL     1      48.303   6.245  14.786  0.00  0.00    +0.000 NA
ATOM     22  C   UNL     1      47.497   5.677  13.859  0.00  0.00    +0.000 A 
ATOM     23  C   UNL     1      46.864   4.468  14.153  0.00  0.00    +0.000 A 
ATOM     24  N   UNL     1      47.010   3.795  15.323  0.00  0.00    +0.000 NA
BRANCH  19  26
ATOM     25  N   UNL     1      48.168   3.233  18.528  0.00  0.00    +0.000 NA
ATOM     26  C   UNL     1      47.985   3.752  17.501  0.00  0.00    +0.000 C 
ENDBRANCH  19  26
ENDBRANCH  17  22
ENDBRANCH   1  17
TORSDOF 5
ENDMDL
MODEL 3
REMARK VINA RESULT:    -8.137      3.316      7.066
REMARK INTER + INTRA:         -11.229
REMARK INTER:                 -10.467
REMARK INTRA:                  -0.761
REMARK UNBOUND:                -0.714
REMARK  Name = 
REMARK  5 active torsions:
REMARK  status: ('A' for Active; 'I' for Inactive)
REMARK    1  A    between atoms: C_2  and  C_3
REMARK    2  A    between atoms: C_6  and  N_7
REMARK    3  A    between atoms: N_7  and  C_8
REMARK    4  A    between atoms: C_8  and  C_9
REMARK    5  A    between atoms: C_11  and  C_12
REMARK                            x       y       z     vdW  Elec       q    Type
REMARK                         _______ _______ _______ _____ _____    ______ ____
ROOT
ATOM      1  C   UNL     1      46.144   7.089  12.180  0.00  0.00    +0.000 C 
ATOM      2  C   UNL     1      46.400   8.522  11.719  0.00  0.00    +0.000 C 
ATOM      3  C   UNL     1      45.547   8.277  12.920  0.00  0.00    +0.000 C 
ENDROOT
BRANCH   1   4
ATOM      4  C   UNL     1      45.154   6.278  11.329  0.00  0.00    +0.000 A 
ATOM      5  C   UNL     1      45.648   5.428  10.340  0.00  0.00    +0.000 A 
ATOM      6  C   UNL     1      44.853   4.430   9.767  0.00  0.00    +0.000 A 
ATOM      7  C   UNL     1      43.523   4.370  10.191  0.00  0.00    +0.000 A 
ATOM      8  C   UNL     1      43.063   5.309  11.102  0.00  0.00    +0.000 A 
ATOM      9  N   UNL     1      43.842   6.250  11.672  0.00  0.00    +0.000 NA
BRANCH   6  10
ATOM     10  C   UNL     1      45.426   3.501   8.768  0.00  0.00    +0.000 A 
ATOM     11  C   UNL     1      45.560   2.120   9.037  0.00  0.00    +0.000 A 
ATOM     12  C   UNL     1      46.211   1.257   8.150  0.00  0.00    +0.000 A 
ATOM     13  C   UNL     1      46.715   1.751   6.954  0.00  0.00    +0.000 A 
ATOM     14  C   UNL     1      46.548   3.094   6.652  0.00  0.00    +0.000 A 
ATOM     15  F   UNL     1      47.022   3.574   5.495  0.00  0.00    +0.000 F 
ATOM     16  C   UNL     1      45.915   3.965   7.537  0.00  0.00    +0.000 A 
ENDBRANCH   6  10
ENDBRANCH   1   4
BRANCH   1  17
ATOM     17  N   UNL     1      47.324   6.379  12.678  0.00  0.00    +0.000 N 
ATOM     18  H   UNL     1      48.067   6.151  12.025  0.00  0.00    +0.000 HD
BRANCH  17  22
ATOM     19  C   UNL     1      47.790   4.357  16.217  0.00  0.00    +0.000 A 
ATOM     20  C   UNL     1      48.445   5.541  15.941  0.00  0.00    +0.000 A 
ATOM     21  N   UNL     1      48.303   6.193  14.759  0.00  0.00    +0.000 NA
ATOM     22  C   UNL     1      47.471   5.645  13.844  0.00  0.00    +0.000 A 
ATOM     23  C   UNL     1      46.811   4.453  14.149  0.00  0.00    +0.000 A 
ATOM     24  N   UNL     1      46.955   3.778  15.318  0.00  0.00    +0.000 NA
BRANCH  19  26
ATOM     25  N   UNL     1      48.134   3.172  18.500  0.00  0.00    +0.000 NA
ATOM     26  C   UNL     1      47.957   3.713  17.483  0.00  0.00    +0.000 C 
ENDBRANCH  19  26
ENDBRANCH  17  22
ENDBRANCH   1  17
TORSDOF 5
ENDMDL
MODEL 4
REMARK VINA RESULT:    -7.983      2.585      3.927
REMARK INTER + INTRA:         -11.030
REMARK INTER:                 -11.079
REMARK INTRA:                   0.049
REMARK UNBOUND:                -0.714
REMARK  Name = 
REMARK  5 active torsions:
REMARK  status: ('A' for Active; 'I' for Inactive)
REMARK    1  A    between atoms: C_2  and  C_3
REMARK    2  A    between atoms: C_6  and  N_7
REMARK    3  A    between atoms: N_7  and  C_8
REMARK    4  A    between atoms: C_8  and  C_9
REMARK    5  A    between atoms: C_11  and  C_12
REMARK                            x       y       z     vdW  Elec       q    Type
REMARK                         _______ _______ _______ _____ _____    ______ ____
ROOT
ATOM      1  C   UNL     1      44.040   4.959  11.595  0.00  0.00    +0.000 C 
ATOM      2  C   UNL     1      43.506   3.799  12.432  0.00  0.00    +0.000 C 
ATOM      3  C   UNL     1      42.792   5.110  12.452  0.00  0.00    +0.000 C 
ENDROOT
BRANCH   1   4
ATOM      4  C   UNL     1      45.299   5.652  12.136  0.00  0.00    +0.000 A 
ATOM      5  C   UNL     1      45.770   5.309  13.404  0.00  0.00    +0.000 A 
ATOM      6  C   UNL     1      47.066   5.639  13.818  0.00  0.00    +0.000 A 
ATOM      7  C   UNL     1      47.838   6.383  12.922  0.00  0.00    +0.000 A 
ATOM      8  C   UNL     1      47.277   6.783  11.719  0.00  0.00    +0.000 A 
ATOM      9  N   UNL     1      46.038   6.437  11.313  0.00  0.00    +0.000 NA
BRANCH   6  10
ATOM     10  C   UNL     1      47.559   5.202  15.142  0.00  0.00    +0.000 A 
ATOM     11  C   UNL     1      48.576   5.911  15.821  0.00  0.00    +0.000 A 
ATOM     12  C   UNL     1      49.134   5.438  17.013  0.00  0.00    +0.000 A 
ATOM     13  C   UNL     1      48.662   4.259  17.573  0.00  0.00    +0.000 A 
ATOM     14  C   UNL     1      47.629   3.577  16.946  0.00  0.00    +0.000 A 
ATOM     15  F   UNL     1      47.162   2.445  17.489  0.00  0.00    +0.000 F 
ATOM     16  C   UNL     1      47.079   4.032  15.750  0.00  0.00    +0.000 A 
ENDBRANCH   6  10
ENDBRANCH   1   4
BRANCH   1  17
ATOM     17  N   UNL     1      43.965   4.762  10.146  0.00  0.00    +0.000 N 
ATOM     18  H   UNL     1      43.095   4.976   9.668  0.00  0.00    +0.000 HD
BRANCH  17  22
ATOM     19  C   UNL     1      46.498   2.642   7.711  0.00  0.00    +0.000 A 
ATOM     20  C   UNL     1      46.367   4.015   7.639  0.00  0.00    +0.000 A 
ATOM     21  N   UNL     1      45.511   4.708   8.432  0.00  0.00    +0.000 NA
ATOM     22  C   UNL     1      44.783   3.999   9.327  0.00  0.00    +0.000 A 
ATOM     23  C   UNL     1      44.940   2.614   9.390  0.00  0.00    +0.000 A 
ATOM     24  N   UNL     1      45.778   1.902   8.592  0.00  0.00    +0.000 NA
BRANCH  19  26
ATOM     25  N   UNL     1      48.189   1.438   6.155  0.00  0.00    +0.000 NA
ATOM     26  C   UNL     1      47.426   1.956   6.866  0.00  0.00    +0.000 C 
ENDBRANCH  19  26
ENDBRANCH  17  22
ENDBRANCH   1  17
TORSDOF 5
ENDMDL
MODEL 5
REMARK VINA RESULT:    -6.889      5.311      8.443
REMARK INTER + INTRA:          -9.616
REMARK INTER:                  -9.293
REMARK INTRA:                  -0.323
REMARK UNBOUND:                -0.714
REMARK  Name = 
REMARK  5 active torsions:
REMARK  status: ('A' for Active; 'I' for Inactive)
REMARK    1  A    between atoms: C_2  and  C_3
REMARK    2  A    between atoms: C_6  and  N_7
REMARK    3  A    between atoms: N_7  and  C_8
REMARK    4  A    between atoms: C_8  and  C_9
REMARK    5  A    between atoms: C_11  and  C_12
REMARK                            x       y       z     vdW  Elec       q    Type
REMARK                         _______ _______ _______ _____ _____    ______ ____
ROOT
ATOM      1  C   UNL     1      48.206   4.460  16.939  0.00  0.00    +0.000 C 
ATOM      2  C   UNL     1      47.157   4.805  17.993  0.00  0.00    +0.000 C 
ATOM      3  C   UNL     1      47.195   3.429  17.417  0.00  0.00    +0.000 C 
ENDROOT
BRANCH   1   4
ATOM      4  C   UNL     1      47.955   5.027  15.533  0.00  0.00    +0.000 A 
ATOM      5  C   UNL     1      46.869   4.554  14.796  0.00  0.00    +0.000 A 
ATOM      6  C   UNL     1      46.388   5.243  13.677  0.00  0.00    +0.000 A 
ATOM      7  C   UNL     1      47.089   6.391  13.300  0.00  0.00    +0.000 A 
ATOM      8  C   UNL     1      48.223   6.752  14.012  0.00  0.00    +0.000 A 
ATOM      9  N   UNL     1      48.664   6.101  15.107  0.00  0.00    +0.000 NA
BRANCH   6  10
ATOM     10  C   UNL     1      45.193   4.752  12.956  0.00  0.00    +0.000 A 
ATOM     11  C   UNL     1      45.188   3.497  12.306  0.00  0.00    +0.000 A 
ATOM     12  C   UNL     1      44.109   3.079  11.520  0.00  0.00    +0.000 A 
ATOM     13  C   UNL     1      42.993   3.896  11.393  0.00  0.00    +0.000 A 
ATOM     14  C   UNL     1      42.961   5.108  12.065  0.00  0.00    +0.000 A 
ATOM     15  F   UNL     1      41.882   5.895  11.956  0.00  0.00    +0.000 F 
ATOM     16  C   UNL     1      44.038   5.540  12.837  0.00  0.00    +0.000 A 
ENDBRANCH   6  10
ENDBRANCH   1   4
BRANCH   1  17
ATOM     17  N   UNL     1      49.590   4.468  17.417  0.00  0.00    +0.000 N 
ATOM     18  H   UNL     1      50.075   5.358  17.493  0.00  0.00    +0.000 HD
BRANCH  17  22
ATOM     19  C   UNL     1      52.354   1.451  17.721  0.00  0.00    +0.000 A 
ATOM     20  C   UNL     1      52.605   2.741  18.145  0.00  0.00    +0.000 A 
ATOM     21  N   UNL     1      51.695   3.739  18.021  0.00  0.00    +0.000 NA
ATOM     22  C   UNL     1      50.499   3.424  17.470  0.00  0.00    +0.000 A 
ATOM     23  C   UNL     1      50.262   2.111  17.059  0.00  0.00    +0.000 A 
ATOM     24  N   UNL     1      51.168   1.104  17.158  0.00  0.00    +0.000 NA
BRANCH  19  26
ATOM     25  N   UNL     1      54.120  -0.419  18.064  0.00  0.00    +0.000 NA
ATOM     26  C   UNL     1      53.338   0.427  17.887  0.00  0.00    +0.000 C 
ENDBRANCH  19  26
ENDBRANCH  17  22
ENDBRANCH   1  17
TORSDOF 5
ENDMDL
MODEL 6
REMARK VINA RESULT:    -6.719      1.791      2.403
REMARK INTER + INTRA:          -9.397
REMARK INTER:                  -8.686
REMARK INTRA:                  -0.711
REMARK UNBOUND:                -0.714
REMARK  Name = 
REMARK  5 active torsions:
REMARK  status: ('A' for Active; 'I' for Inactive)
REMARK    1  A    between atoms: C_2  and  C_3
REMARK    2  A    between atoms: C_6  and  N_7
REMARK    3  A    between atoms: N_7  and  C_8
REMARK    4  A    between atoms: C_8  and  C_9
REMARK    5  A    between atoms: C_11  and  C_12
REMARK                            x       y       z     vdW  Elec       q    Type
REMARK                         _______ _______ _______ _____ _____    ______ ____
ROOT
ATOM      1  C   UNL     1      43.934   5.369  11.976  0.00  0.00    +0.000 C 
ATOM      2  C   UNL     1      42.867   5.023  13.011  0.00  0.00    +0.000 C 
ATOM      3  C   UNL     1      42.452   5.532  11.671  0.00  0.00    +0.000 C 
ENDROOT
BRANCH   1   4
ATOM      4  C   UNL     1      44.704   6.675  12.219  0.00  0.00    +0.000 A 
ATOM      5  C   UNL     1      45.930   6.627  12.883  0.00  0.00    +0.000 A 
ATOM      6  C   UNL     1      46.828   7.699  12.845  0.00  0.00    +0.000 A 
ATOM      7  C   UNL     1      46.407   8.842  12.161  0.00  0.00    +0.000 A 
ATOM      8  C   UNL     1      45.135   8.868  11.609  0.00  0.00    +0.000 A 
ATOM      9  N   UNL     1      44.286   7.820  11.624  0.00  0.00    +0.000 NA
BRANCH   6  10
ATOM     10  C   UNL     1      48.148   7.591  13.503  0.00  0.00    +0.000 A 
ATOM     11  C   UNL     1      48.308   6.900  14.726  0.00  0.00    +0.000 A 
ATOM     12  C   UNL     1      49.524   6.897  15.417  0.00  0.00    +0.000 A 
ATOM     13  C   UNL     1      50.621   7.559  14.882  0.00  0.00    +0.000 A 
ATOM     14  C   UNL     1      50.494   8.200  13.658  0.00  0.00    +0.000 A 
ATOM     15  F   UNL     1      51.553   8.830  13.132  0.00  0.00    +0.000 F 
ATOM     16  C   UNL     1      49.283   8.222  12.971  0.00  0.00    +0.000 A 
ENDBRANCH   6  10
ENDBRANCH   1   4
BRANCH   1  17
ATOM     17  N   UNL     1      44.706   4.229  11.479  0.00  0.00    +0.000 N 
ATOM     18  H   UNL     1      45.178   3.629  12.149  0.00  0.00    +0.000 HD
BRANCH  17  22
ATOM     19  C   UNL     1      46.063   3.417   7.692  0.00  0.00    +0.000 A 
ATOM     20  C   UNL     1      45.595   2.436   8.545  0.00  0.00    +0.000 A 
ATOM     21  N   UNL     1      45.168   2.709   9.804  0.00  0.00    +0.000 NA
ATOM     22  C   UNL     1      45.202   4.001  10.204  0.00  0.00    +0.000 A 
ATOM     23  C   UNL     1      45.668   4.977   9.322  0.00  0.00    +0.000 A 
ATOM     24  N   UNL     1      46.116   4.720   8.066  0.00  0.00    +0.000 NA
BRANCH  19  26
ATOM     25  N   UNL     1      46.852   2.776   5.305  0.00  0.00    +0.000 NA
ATOM     26  C   UNL     1      46.486   3.085   6.368  0.00  0.00    +0.000 C 
ENDBRANCH  19  26
ENDBRANCH  17  22
ENDBRANCH   1  17
TORSDOF 5
ENDMDL
MODEL 7
REMARK VINA RESULT:    -6.656      3.497      7.037
REMARK INTER + INTRA:          -9.315
REMARK INTER:                  -8.824
REMARK INTRA:                  -0.492
REMARK UNBOUND:                -0.714
REMARK  Name = 
REMARK  5 active torsions:
REMARK  status: ('A' for Active; 'I' for Inactive)
REMARK    1  A    between atoms: C_2  and  C_3
REMARK    2  A    between atoms: C_6  and  N_7
REMARK    3  A    between atoms: N_7  and  C_8
REMARK    4  A    between atoms: C_8  and  C_9
REMARK    5  A    between atoms: C_11  and  C_12
REMARK                            x       y       z     vdW  Elec       q    Type
REMARK                         _______ _______ _______ _____ _____    ______ ____
ROOT
ATOM      1  C   UNL     1      48.239   8.152  12.474  0.00  0.00    +0.000 C 
ATOM      2  C   UNL     1      49.126   9.029  11.594  0.00  0.00    +0.000 C 
ATOM      3  C   UNL     1      48.491   9.614  12.811  0.00  0.00    +0.000 C 
ENDROOT
BRANCH   1   4
ATOM      4  C   UNL     1      46.843   7.836  11.916  0.00  0.00    +0.000 A 
ATOM      5  C   UNL     1      46.670   6.699  11.126  0.00  0.00    +0.000 A 
ATOM      6  C   UNL     1      45.400   6.172  10.867  0.00  0.00    +0.000 A 
ATOM      7  C   UNL     1      44.313   6.880  11.387  0.00  0.00    +0.000 A 
ATOM      8  C   UNL     1      44.544   8.060  12.076  0.00  0.00    +0.000 A 
ATOM      9  N   UNL     1      45.772   8.547  12.347  0.00  0.00    +0.000 NA
BRANCH   6  10
ATOM     10  C   UNL     1      45.254   4.928  10.082  0.00  0.00    +0.000 A 
ATOM     11  C   UNL     1      44.720   3.752  10.656  0.00  0.00    +0.000 A 
ATOM     12  C   UNL     1      44.692   2.539   9.960  0.00  0.00    +0.000 A 
ATOM     13  C   UNL     1      45.169   2.482   8.657  0.00  0.00    +0.000 A 
ATOM     14  C   UNL     1      45.651   3.638   8.062  0.00  0.00    +0.000 A 
ATOM     15  F   UNL     1      46.101   3.592   6.801  0.00  0.00    +0.000 F 
ATOM     16  C   UNL     1      45.697   4.847   8.753  0.00  0.00    +0.000 A 
ENDBRANCH   6  10
ENDBRANCH   1   4
BRANCH   1  17
ATOM     17  N   UNL     1      48.935   7.066  13.167  0.00  0.00    +0.000 N 
ATOM     18  H   UNL     1      49.758   6.659  12.733  0.00  0.00    +0.000 HD
BRANCH  17  22
ATOM     19  C   UNL     1      47.566   4.485  16.049  0.00  0.00    +0.000 A 
ATOM     20  C   UNL     1      47.294   4.318  14.705  0.00  0.00    +0.000 A 
ATOM     21  N   UNL     1      47.731   5.188  13.759  0.00  0.00    +0.000 NA
ATOM     22  C   UNL     1      48.472   6.240  14.179  0.00  0.00    +0.000 A 
ATOM     23  C   UNL     1      48.744   6.383  15.540  0.00  0.00    +0.000 A 
ATOM     24  N   UNL     1      48.300   5.533  16.502  0.00  0.00    +0.000 NA
BRANCH  19  26
ATOM     25  N   UNL     1      46.714   2.793  17.821  0.00  0.00    +0.000 NA
ATOM     26  C   UNL     1      47.099   3.533  17.008  0.00  0.00    +0.000 C 
ENDBRANCH  19  26
ENDBRANCH  17  22
ENDBRANCH   1  17
TORSDOF 5
ENDMDL
MODEL 8
REMARK VINA RESULT:    -6.446      3.426      7.046
REMARK INTER + INTRA:          -9.044
REMARK INTER:                  -8.464
REMARK INTRA:                  -0.580
REMARK UNBOUND:                -0.714
REMARK  Name = 
REMARK  5 active torsions:
REMARK  status: ('A' for Active; 'I' for Inactive)
REMARK    1  A    between atoms: C_2  and  C_3
REMARK    2  A    between atoms: C_6  and  N_7
REMARK    3  A    between atoms: N_7  and  C_8
REMARK    4  A    between atoms: C_8  and  C_9
REMARK    5  A    between atoms: C_11  and  C_12
REMARK                            x       y       z     vdW  Elec       q    Type
REMARK                         _______ _______ _______ _____ _____    ______ ____
ROOT
ATOM      1  C   UNL     1      46.126   5.634  12.923  0.00  0.00    +0.000 C 
ATOM      2  C   UNL     1      45.919   4.766  14.160  0.00  0.00    +0.000 C 
ATOM      3  C   UNL     1      47.155   4.594  13.342  0.00  0.00    +0.000 C 
ENDROOT
BRANCH   1   4
ATOM      4  C   UNL     1      45.279   5.265  11.695  0.00  0.00    +0.000 A 
ATOM      5  C   UNL     1      45.886   4.607  10.625  0.00  0.00    +0.000 A 
ATOM      6  C   UNL     1      45.132   3.954   9.644  0.00  0.00    +0.000 A 
ATOM      7  C   UNL     1      43.742   4.051   9.756  0.00  0.00    +0.000 A 
ATOM      8  C   UNL     1      43.200   4.807  10.784  0.00  0.00    +0.000 A 
ATOM      9  N   UNL     1      43.931   5.409  11.744  0.00  0.00    +0.000 NA
BRANCH   6  10
ATOM     10  C   UNL     1      45.805   3.208   8.559  0.00  0.00    +0.000 A 
ATOM     11  C   UNL     1      46.254   3.855   7.386  0.00  0.00    +0.000 A 
ATOM     12  C   UNL     1      46.780   3.141   6.305  0.00  0.00    +0.000 A 
ATOM     13  C   UNL     1      46.900   1.760   6.387  0.00  0.00    +0.000 A 
ATOM     14  C   UNL     1      46.511   1.114   7.550  0.00  0.00    +0.000 A 
ATOM     15  F   UNL     1      46.636  -0.217   7.638  0.00  0.00    +0.000 F 
ATOM     16  C   UNL     1      45.972   1.815   8.626  0.00  0.00    +0.000 A 
ENDBRANCH   6  10
ENDBRANCH   1   4
BRANCH   1  17
ATOM     17  N   UNL     1      46.313   7.061  13.192  0.00  0.00    +0.000 N 
ATOM     18  H   UNL     1      45.554   7.580  13.624  0.00  0.00    +0.000 HD
BRANCH  17  22
ATOM     19  C   UNL     1      49.029   9.761  11.718  0.00  0.00    +0.000 A 
ATOM     20  C   UNL     1      47.952  10.134  12.498  0.00  0.00    +0.000 A 
ATOM     21  N   UNL     1      47.045   9.238  12.964  0.00  0.00    +0.000 NA
ATOM     22  C   UNL     1      47.239   7.937  12.647  0.00  0.00    +0.000 A 
ATOM     23  C   UNL     1      48.340   7.581  11.866  0.00  0.00    +0.000 A 
ATOM     24  N   UNL     1      49.247   8.466  11.377  0.00  0.00    +0.000 NA
BRANCH  19  26
ATOM     25  N   UNL     1      50.771  11.505  10.907  0.00  0.00    +0.000 NA
ATOM     26  C   UNL     1      49.970  10.738  11.264  0.00  0.00    +0.000 C 
ENDBRANCH  19  26
ENDBRANCH  17  22
ENDBRANCH   1  17
TORSDOF 5
ENDMDL
MODEL 9
REMARK VINA RESULT:    -6.268      4.240      8.054
REMARK INTER + INTRA:          -8.813
REMARK INTER:                  -8.115
REMARK INTRA:                  -0.698
REMARK UNBOUND:                -0.714
REMARK  Name = 
REMARK  5 active torsions:
REMARK  status: ('A' for Active; 'I' for Inactive)
REMARK    1  A    between atoms: C_2  and  C_3
REMARK    2  A    between atoms: C_6  and  N_7
REMARK    3  A    between atoms: N_7  and  C_8
REMARK    4  A    between atoms: C_8  and  C_9
REMARK    5  A    between atoms: C_11  and  C_12
REMARK                            x       y       z     vdW  Elec       q    Type
REMARK                         _______ _______ _______ _____ _____    ______ ____
ROOT
ATOM      1  C   UNL     1      49.447   8.072  12.618  0.00  0.00    +0.000 C 
ATOM      2  C   UNL     1      50.348   8.056  11.387  0.00  0.00    +0.000 C 
ATOM      3  C   UNL     1      50.164   9.328  12.147  0.00  0.00    +0.000 C 
ENDROOT
BRANCH   1   4
ATOM      4  C   UNL     1      47.936   8.034  12.343  0.00  0.00    +0.000 A 
ATOM      5  C   UNL     1      47.378   6.888  11.775  0.00  0.00    +0.000 A 
ATOM      6  C   UNL     1      45.999   6.652  11.805  0.00  0.00    +0.000 A 
ATOM      7  C   UNL     1      45.206   7.652  12.375  0.00  0.00    +0.000 A 
ATOM      8  C   UNL     1      45.810   8.814  12.829  0.00  0.00    +0.000 A 
ATOM      9  N   UNL     1      47.142   9.023  12.824  0.00  0.00    +0.000 NA
BRANCH   6  10
ATOM     10  C   UNL     1      45.445   5.396  11.254  0.00  0.00    +0.000 A 
ATOM     11  C   UNL     1      45.472   5.124   9.867  0.00  0.00    +0.000 A 
ATOM     12  C   UNL     1      44.843   3.999   9.325  0.00  0.00    +0.000 A 
ATOM     13  C   UNL     1      44.199   3.100  10.164  0.00  0.00    +0.000 A 
ATOM     14  C   UNL     1      44.206   3.326  11.532  0.00  0.00    +0.000 A 
ATOM     15  F   UNL     1      43.596   2.455  12.347  0.00  0.00    +0.000 F 
ATOM     16  C   UNL     1      44.816   4.452  12.080  0.00  0.00    +0.000 A 
ENDBRANCH   6  10
ENDBRANCH   1   4
BRANCH   1  17
ATOM     17  N   UNL     1      49.932   7.280  13.751  0.00  0.00    +0.000 N 
ATOM     18  H   UNL     1      50.553   6.498  13.569  0.00  0.00    +0.000 HD
BRANCH  17  22
ATOM     19  C   UNL     1      48.479   6.857  17.565  0.00  0.00    +0.000 A 
ATOM     20  C   UNL     1      48.604   5.795  16.690  0.00  0.00    +0.000 A 
ATOM     21  N   UNL     1      49.064   5.946  15.422  0.00  0.00    +0.000 NA
ATOM     22  C   UNL     1      49.420   7.193  15.036  0.00  0.00    +0.000 A 
ATOM     23  C   UNL     1      49.295   8.250  15.940  0.00  0.00    +0.000 A 
ATOM     24  N   UNL     1      48.820   8.120  17.205  0.00  0.00    +0.000 NA
BRANCH  19  26
ATOM     25  N   UNL     1      47.661   6.490  20.000  0.00  0.00    +0.000 NA
ATOM     26  C   UNL     1      48.005   6.648  18.897  0.00  0.00    +0.000 C 
ENDBRANCH  19  26
ENDBRANCH  17  22
ENDBRANCH   1  17
TORSDOF 5
ENDMDL
