MODEL 1
REMARK VINA RESULT:    -7.670      0.000      0.000
REMARK INTER + INTRA:         -11.471
REMARK INTER:                 -10.361
REMARK INTRA:                  -1.111
REMARK UNBOUND:                -1.111
REMARK  Name = 
REMARK  7 active torsions:
REMARK  status: ('A' for Active; 'I' for Inactive)
REMARK    1  A    between atoms: C_1  and  C_2
REMARK    2  A    between atoms: C_2  and  N_3
REMARK    3  A    between atoms: C_2  and  C_16
REMARK    4  A    between atoms: C_4  and  C_6
REMARK    5  A    between atoms: C_19  and  C_20
REMARK    6  A    between atoms: C_20  and  N_21
REMARK    7  A    between atoms: C_22  and  C_24
REMARK                            x       y       z     vdW  Elec       q    Type
REMARK                         _______ _______ _______ _____ _____    ______ ____
ROOT
ATOM      1  C   UNL     1      47.993   9.016  12.802  0.00  0.00    +0.000 C 
ATOM      2  C   UNL     1      47.276   7.944  13.630  0.00  0.00    +0.000 C 
ENDROOT
BRANCH   2   3
ATOM      3  C   UNL     1      46.391   7.013  12.814  0.00  0.00    +0.000 A 
ATOM      4  C   UNL     1      46.492   5.625  13.017  0.00  0.00    +0.000 A 
ATOM      5  C   UNL     1      45.677   4.727  12.316  0.00  0.00    +0.000 A 
ATOM      6  C   UNL     1      44.751   5.189  11.375  0.00  0.00    +0.000 A 
ATOM      7  C   UNL     1      44.647   6.571  11.167  0.00  0.00    +0.000 A 
ATOM      8  C   UNL     1      45.467   7.470  11.866  0.00  0.00    +0.000 A 
BRANCH   6   9
ATOM      9  C   UNL     1      43.911   4.225  10.576  0.00  0.00    +0.000 C 
BRANCH   9  10
ATOM     10  N   UNL     1      44.688   3.247   9.861  0.00  0.00    +0.000 N 
ATOM     11  C   UNL     1      45.344   3.574   8.695  0.00  0.00    +0.000 C 
ATOM     12  O   UNL     1      45.308   4.696   8.191  0.00  0.00    +0.000 OA
ATOM     13  H   UNL     1      44.841   2.312  10.225  0.00  0.00    +0.000 HD
BRANCH  11  14
ATOM     14  C   UNL     1      46.095   2.460   8.093  0.00  0.00    +0.000 A 
ATOM     15  C   UNL     1      47.080   2.545   7.073  0.00  0.00    +0.000 A 
ATOM     16  C   UNL     1      47.473   1.250   6.832  0.00  0.00    +0.000 A 
ATOM     17  N   UNL     1      46.740   0.475   7.679  0.00  0.00    +0.000 N 
ATOM     18  N   UNL     1      45.906   1.176   8.469  0.00  0.00    +0.000 NA
ATOM     19  H   UNL     1      46.754  -0.534   7.771  0.00  0.00    +0.000 HD
ENDBRANCH  11  14
ENDBRANCH   9  10
ENDBRANCH   6   9
ENDBRANCH   2   3
BRANCH   2  20
ATOM     20  N   UNL     1      48.229   7.192  14.431  0.00  0.00    +0.000 N 
ATOM     21  C   UNL     1      48.686   7.684  15.632  0.00  0.00    +0.000 C 
ATOM     22  O   UNL     1      48.271   8.741  16.101  0.00  0.00    +0.000 OA
ATOM     23  H   UNL     1      48.725   6.428  13.981  0.00  0.00    +0.000 HD
BRANCH  21  24
ATOM     24  C   UNL     1      49.655   6.867  16.371  0.00  0.00    +0.000 A 
ATOM     25  C   UNL     1      50.888   7.413  16.704  0.00  0.00    +0.000 A 
ATOM     26  S   UNL     1      51.914   6.337  17.537  0.00  0.00    +0.000 S 
ATOM     27  C   UNL     1      50.764   5.088  17.444  0.00  0.00    +0.000 A 
ATOM     28  N   UNL     1      51.038   3.849  17.932  0.00  0.00    +0.000 NA
ATOM     29  C   UNL     1      50.092   2.988  17.763  0.00  0.00    +0.000 A 
ATOM     30  N   UNL     1      48.887   3.259  17.166  0.00  0.00    +0.000 N 
ATOM     31  C   UNL     1      48.546   4.510  16.702  0.00  0.00    +0.000 A 
ATOM     32  O   UNL     1      47.431   4.747  16.249  0.00  0.00    +0.000 OA
ATOM     33  C   UNL     1      49.596   5.501  16.827  0.00  0.00    +0.000 A 
ATOM     34  H   UNL     1      48.178   2.545  17.089  0.00  0.00    +0.000 HD
ENDBRANCH  21  24
ENDBRANCH   2  20
TORSDOF 6
ENDMDL
MODEL 2
REMARK VINA RESULT:    -7.468      2.800      3.583
REMARK INTER + INTRA:         -11.198
REMARK INTER:                  -9.999
REMARK INTRA:                  -1.199
REMARK UNBOUND:                -1.111
REMARK  Name = 
REMARK  7 active torsions:
REMARK  status: ('A' for Active; 'I' for Inactive)
REMARK    1  A    between atoms: C_1  and  C_2
REMARK    2  A    between atoms: C_2  and  N_3
REMARK    3  A    between atoms: C_2  and  C_16
REMARK    4  A    between atoms: C_4  and  C_6
REMARK    5  A    between atoms: C_19  and  C_20
REMARK    6  A    between atoms: C_20  and  N_21
REMARK    7  A    between atoms: C_22  and  C_24
REMARK                            x       y       z     vdW  Elec       q    Type
REMARK                         _______ _______ _______ _____ _____    ______ ____
ROOT
ATOM      1  C   UNL     1      47.412   3.827  16.352  0.00  0.00    +0.000 C 
ATOM      2  C   UNL     1      47.830   4.868  15.308  0.00  0.00    +0.000 C 
ENDROOT
BRANCH   2   3
ATOM      3  C   UNL     1      46.987   4.855  14.041  0.00  0.00    +0.000 A 
ATOM      4  C   UNL     1      46.410   3.645  13.617  0.00  0.00    +0.000 A 
ATOM      5  C   UNL     1      45.599   3.586  12.476  0.00  0.00    +0.000 A 
ATOM      6  C   UNL     1      45.358   4.734  11.713  0.00  0.00    +0.000 A 
ATOM      7  C   UNL     1      45.931   5.942  12.129  0.00  0.00    +0.000 A 
ATOM      8  C   UNL     1      46.747   6.000  13.268  0.00  0.00    +0.000 A 
BRANCH   6   9
ATOM      9  C   UNL     1      44.532   4.666  10.453  0.00  0.00    +0.000 C 
BRANCH   9  10
ATOM     10  N   UNL     1      45.307   4.372   9.277  0.00  0.00    +0.000 N 
ATOM     11  C   UNL     1      45.422   3.083   8.804  0.00  0.00    +0.000 C 
ATOM     12  O   UNL     1      44.887   2.115   9.344  0.00  0.00    +0.000 OA
ATOM     13  H   UNL     1      45.731   5.103   8.716  0.00  0.00    +0.000 HD
BRANCH  11  14
ATOM     14  C   UNL     1      46.246   2.956   7.591  0.00  0.00    +0.000 A 
ATOM     15  C   UNL     1      46.952   1.804   7.153  0.00  0.00    +0.000 A 
ATOM     16  C   UNL     1      47.585   2.179   5.993  0.00  0.00    +0.000 A 
ATOM     17  N   UNL     1      47.249   3.484   5.791  0.00  0.00    +0.000 N 
ATOM     18  N   UNL     1      46.426   3.982   6.732  0.00  0.00    +0.000 NA
ATOM     19  H   UNL     1      47.544   4.094   5.037  0.00  0.00    +0.000 HD
ENDBRANCH  11  14
ENDBRANCH   9  10
ENDBRANCH   6   9
ENDBRANCH   2   3
BRANCH   2  20
ATOM     20  N   UNL     1      47.870   6.198  15.896  0.00  0.00    +0.000 N 
ATOM     21  C   UNL     1      49.069   6.812  16.174  0.00  0.00    +0.000 C 
ATOM     22  O   UNL     1      50.146   6.292  15.889  0.00  0.00    +0.000 OA
ATOM     23  H   UNL     1      47.015   6.555  16.312  0.00  0.00    +0.000 HD
BRANCH  21  24
ATOM     24  C   UNL     1      49.021   8.148  16.777  0.00  0.00    +0.000 A 
ATOM     25  C   UNL     1      49.642   9.208  16.128  0.00  0.00    +0.000 A 
ATOM     26  S   UNL     1      49.523  10.689  16.962  0.00  0.00    +0.000 S 
ATOM     27  C   UNL     1      48.676   9.958  18.243  0.00  0.00    +0.000 A 
ATOM     28  N   UNL     1      48.310  10.677  19.337  0.00  0.00    +0.000 NA
ATOM     29  C   UNL     1      47.707   9.991  20.248  0.00  0.00    +0.000 A 
ATOM     30  N   UNL     1      47.419   8.653  20.156  0.00  0.00    +0.000 N 
ATOM     31  C   UNL     1      47.726   7.896  19.047  0.00  0.00    +0.000 A 
ATOM     32  O   UNL     1      47.382   6.722  18.954  0.00  0.00    +0.000 OA
ATOM     33  C   UNL     1      48.447   8.613  18.015  0.00  0.00    +0.000 A 
ATOM     34  H   UNL     1      46.920   8.181  20.895  0.00  0.00    +0.000 HD
ENDBRANCH  21  24
ENDBRANCH   2  20
TORSDOF 6
ENDMDL
MODEL 3
REMARK VINA RESULT:    -7.367      3.967      4.551
REMARK INTER + INTRA:         -11.062
REMARK INTER:                  -9.885
REMARK INTRA:                  -1.178
REMARK UNBOUND:                -1.111
REMARK  Name = 
REMARK  7 active torsions:
REMARK  status: ('A' for Active; 'I' for Inactive)
REMARK    1  A    between atoms: C_1  and  C_2
REMARK    2  A    between atoms: C_2  and  N_3
REMARK    3  A    between atoms: C_2  and  C_16
REMARK    4  A    between atoms: C_4  and  C_6
REMARK    5  A    between atoms: C_19  and  C_20
REMARK    6  A    between atoms: C_20  and  N_21
REMARK    7  A    between atoms: C_22  and  C_24
REMARK                            x       y       z     vdW  Elec       q    Type
REMARK                         _______ _______ _______ _____ _____    ______ ____
ROOT
ATOM      1  C   UNL     1      45.058   9.909  12.378  0.00  0.00    +0.000 C 
ATOM      2  C   UNL     1      46.039   8.762  12.641  0.00  0.00    +0.000 C 
ENDROOT
BRANCH   2   3
ATOM      3  C   UNL     1      45.514   7.387  12.251  0.00  0.00    +0.000 A 
ATOM      4  C   UNL     1      46.320   6.258  12.481  0.00  0.00    +0.000 A 
ATOM      5  C   UNL     1      45.871   4.969  12.171  0.00  0.00    +0.000 A 
ATOM      6  C   UNL     1      44.608   4.772  11.600  0.00  0.00    +0.000 A 
ATOM      7  C   UNL     1      43.802   5.893  11.366  0.00  0.00    +0.000 A 
ATOM      8  C   UNL     1      44.254   7.185  11.673  0.00  0.00    +0.000 A 
BRANCH   6   9
ATOM      9  C   UNL     1      44.141   3.392  11.211  0.00  0.00    +0.000 C 
BRANCH   9  10
ATOM     10  N   UNL     1      45.034   2.721  10.304  0.00  0.00    +0.000 N 
ATOM     11  C   UNL     1      45.068   3.049   8.966  0.00  0.00    +0.000 C 
ATOM     12  O   UNL     1      44.351   3.914   8.464  0.00  0.00    +0.000 OA
ATOM     13  H   UNL     1      45.716   2.042  10.625  0.00  0.00    +0.000 HD
BRANCH  11  14
ATOM     14  C   UNL     1      46.038   2.271   8.178  0.00  0.00    +0.000 A 
ATOM     15  C   UNL     1      46.980   2.776   7.242  0.00  0.00    +0.000 A 
ATOM     16  C   UNL     1      47.640   1.673   6.754  0.00  0.00    +0.000 A 
ATOM     17  N   UNL     1      47.092   0.600   7.389  0.00  0.00    +0.000 N 
ATOM     18  N   UNL     1      46.129   0.927   8.271  0.00  0.00    +0.000 NA
ATOM     19  H   UNL     1      47.323  -0.380   7.271  0.00  0.00    +0.000 HD
ENDBRANCH  11  14
ENDBRANCH   9  10
ENDBRANCH   6   9
ENDBRANCH   2   3
BRANCH   2  20
ATOM     20  N   UNL     1      47.322   9.030  12.010  0.00  0.00    +0.000 N 
ATOM     21  C   UNL     1      48.283   9.776  12.652  0.00  0.00    +0.000 C 
ATOM     22  O   UNL     1      48.123  10.196  13.796  0.00  0.00    +0.000 OA
ATOM     23  H   UNL     1      47.400   8.865  11.011  0.00  0.00    +0.000 HD
BRANCH  21  24
ATOM     24  C   UNL     1      49.545  10.009  11.941  0.00  0.00    +0.000 A 
ATOM     25  C   UNL     1      49.940  11.313  11.671  0.00  0.00    +0.000 A 
ATOM     26  S   UNL     1      51.411  11.423  10.818  0.00  0.00    +0.000 S 
ATOM     27  C   UNL     1      51.550   9.730  10.738  0.00  0.00    +0.000 A 
ATOM     28  N   UNL     1      52.584   9.145  10.077  0.00  0.00    +0.000 NA
ATOM     29  C   UNL     1      52.546   7.855  10.063  0.00  0.00    +0.000 A 
ATOM     30  N   UNL     1      51.577   7.096  10.667  0.00  0.00    +0.000 N 
ATOM     31  C   UNL     1      50.539   7.642  11.389  0.00  0.00    +0.000 A 
ATOM     32  O   UNL     1      49.733   6.940  11.991  0.00  0.00    +0.000 OA
ATOM     33  C   UNL     1      50.512   9.091  11.394  0.00  0.00    +0.000 A 
ATOM     34  H   UNL     1      51.621   6.088  10.642  0.00  0.00    +0.000 HD
ENDBRANCH  21  24
ENDBRANCH   2  20
TORSDOF 6
ENDMDL
MODEL 4
REMARK VINA RESULT:    -7.262      2.843      4.211
REMARK INTER + INTRA:         -10.919
REMARK INTER:                  -9.891
REMARK INTRA:                  -1.028
REMARK UNBOUND:                -1.111
REMARK  Name = 
REMARK  7 active torsions:
REMARK  status: ('A' for Active; 'I' for Inactive)
REMARK    1  A    between atoms: C_1  and  C_2
REMARK    2  A    between atoms: C_2  and  N_3
REMARK    3  A    between atoms: C_2  and  C_16
REMARK    4  A    between atoms: C_4  and  C_6
REMARK    5  A    between atoms: C_19  and  C_20
REMARK    6  A    between atoms: C_20  and  N_21
REMARK    7  A    between atoms: C_22  and  C_24
REMARK                            x       y       z     vdW  Elec       q    Type
REMARK                         _______ _______ _______ _____ _____    ______ ____
ROOT
ATOM      1  C   UNL     1      47.794   3.211  16.455  0.00  0.00    +0.000 C 
ATOM      2  C   UNL     1      47.988   4.611  15.861  0.00  0.00    +0.000 C 
ENDROOT
BRANCH   2   3
ATOM      3  C   UNL     1      47.218   4.856  14.571  0.00  0.00    +0.000 A 
ATOM      4  C   UNL     1      47.343   6.099  13.928  0.00  0.00    +0.000 A 
ATOM      5  C   UNL     1      46.682   6.363  12.721  0.00  0.00    +0.000 A 
ATOM      6  C   UNL     1      45.859   5.397  12.133  0.00  0.00    +0.000 A 
ATOM      7  C   UNL     1      45.729   4.156  12.771  0.00  0.00    +0.000 A 
ATOM      8  C   UNL     1      46.387   3.894  13.981  0.00  0.00    +0.000 A 
BRANCH   6   9
ATOM      9  C   UNL     1      45.100   5.694  10.865  0.00  0.00    +0.000 C 
BRANCH   9  10
ATOM     10  N   UNL     1      45.691   5.102   9.693  0.00  0.00    +0.000 N 
ATOM     11  C   UNL     1      45.217   3.914   9.180  0.00  0.00    +0.000 C 
ATOM     12  O   UNL     1      44.282   3.289   9.679  0.00  0.00    +0.000 OA
ATOM     13  H   UNL     1      46.420   5.569   9.164  0.00  0.00    +0.000 HD
BRANCH  11  14
ATOM     14  C   UNL     1      45.929   3.449   7.979  0.00  0.00    +0.000 A 
ATOM     15  C   UNL     1      46.265   2.109   7.649  0.00  0.00    +0.000 A 
ATOM     16  C   UNL     1      46.938   2.181   6.453  0.00  0.00    +0.000 A 
ATOM     17  N   UNL     1      46.976   3.504   6.128  0.00  0.00    +0.000 N 
ATOM     18  N   UNL     1      46.361   4.299   7.023  0.00  0.00    +0.000 NA
ATOM     19  H   UNL     1      47.405   3.935   5.317  0.00  0.00    +0.000 HD
ENDBRANCH  11  14
ENDBRANCH   9  10
ENDBRANCH   6   9
ENDBRANCH   2   3
BRANCH   2  20
ATOM     20  N   UNL     1      47.687   5.634  16.852  0.00  0.00    +0.000 N 
ATOM     21  C   UNL     1      48.670   6.473  17.321  0.00  0.00    +0.000 C 
ATOM     22  O   UNL     1      49.820   6.433  16.889  0.00  0.00    +0.000 OA
ATOM     23  H   UNL     1      46.810   5.557  17.357  0.00  0.00    +0.000 HD
BRANCH  21  24
ATOM     24  C   UNL     1      48.285   7.469  18.327  0.00  0.00    +0.000 A 
ATOM     25  C   UNL     1      48.067   7.061  19.637  0.00  0.00    +0.000 A 
ATOM     26  S   UNL     1      47.601   8.324  20.682  0.00  0.00    +0.000 S 
ATOM     27  C   UNL     1      47.629   9.454  19.411  0.00  0.00    +0.000 A 
ATOM     28  N   UNL     1      47.270  10.748  19.621  0.00  0.00    +0.000 NA
ATOM     29  C   UNL     1      47.302  11.488  18.564  0.00  0.00    +0.000 A 
ATOM     30  N   UNL     1      47.678  11.055  17.319  0.00  0.00    +0.000 N 
ATOM     31  C   UNL     1      48.097   9.766  17.069  0.00  0.00    +0.000 A 
ATOM     32  O   UNL     1      48.509   9.425  15.965  0.00  0.00    +0.000 OA
ATOM     33  C   UNL     1      48.033   8.884  18.217  0.00  0.00    +0.000 A 
ATOM     34  H   UNL     1      47.706  11.692  16.537  0.00  0.00    +0.000 HD
ENDBRANCH  21  24
ENDBRANCH   2  20
TORSDOF 6
ENDMDL
MODEL 5
REMARK VINA RESULT:    -6.934      2.343      4.011
REMARK INTER + INTRA:         -10.477
REMARK INTER:                  -9.410
REMARK INTRA:                  -1.067
REMARK UNBOUND:                -1.111
REMARK  Name = 
REMARK  7 active torsions:
REMARK  status: ('A' for Active; 'I' for Inactive)
REMARK    1  A    between atoms: C_1  and  C_2
REMARK    2  A    between atoms: C_2  and  N_3
REMARK    3  A    between atoms: C_2  and  C_16
REMARK    4  A    between atoms: C_4  and  C_6
REMARK    5  A    between atoms: C_19  and  C_20
REMARK    6  A    between atoms: C_20  and  N_21
REMARK    7  A    between atoms: C_22  and  C_24
REMARK                            x       y       z     vdW  Elec       q    Type
REMARK                         _______ _______ _______ _____ _____    ______ ____
ROOT
ATOM      1  C   UNL     1      47.228   4.084  16.635  0.00  0.00    +0.000 C 
ATOM      2  C   UNL     1      47.825   4.784  15.410  0.00  0.00    +0.000 C 
ENDROOT
BRANCH   2   3
ATOM      3  C   UNL     1      46.968   4.691  14.156  0.00  0.00    +0.000 A 
ATOM      4  C   UNL     1      46.664   5.868  13.448  0.00  0.00    +0.000 A 
ATOM      5  C   UNL     1      45.907   5.833  12.271  0.00  0.00    +0.000 A 
ATOM      6  C   UNL     1      45.411   4.621  11.777  0.00  0.00    +0.000 A 
ATOM      7  C   UNL     1      45.709   3.445  12.480  0.00  0.00    +0.000 A 
ATOM      8  C   UNL     1      46.463   3.481  13.661  0.00  0.00    +0.000 A 
BRANCH   6   9
ATOM      9  C   UNL     1      44.548   4.582  10.542  0.00  0.00    +0.000 C 
BRANCH   9  10
ATOM     10  N   UNL     1      45.286   4.310   9.337  0.00  0.00    +0.000 N 
ATOM     11  C   UNL     1      45.390   3.028   8.841  0.00  0.00    +0.000 C 
ATOM     12  O   UNL     1      44.878   2.051   9.383  0.00  0.00    +0.000 OA
ATOM     13  H   UNL     1      45.688   5.052   8.774  0.00  0.00    +0.000 HD
BRANCH  11  14
ATOM     14  C   UNL     1      46.176   2.924   7.601  0.00  0.00    +0.000 A 
ATOM     15  C   UNL     1      46.731   1.745   7.037  0.00  0.00    +0.000 A 
ATOM     16  C   UNL     1      47.389   2.153   5.901  0.00  0.00    +0.000 A 
ATOM     17  N   UNL     1      47.209   3.502   5.833  0.00  0.00    +0.000 N 
ATOM     18  N   UNL     1      46.465   4.001   6.838  0.00  0.00    +0.000 NA
ATOM     19  H   UNL     1      47.564   4.145   5.133  0.00  0.00    +0.000 HD
ENDBRANCH  11  14
ENDBRANCH   9  10
ENDBRANCH   6   9
ENDBRANCH   2   3
BRANCH   2  20
ATOM     20  N   UNL     1      48.153   6.168  15.719  0.00  0.00    +0.000 N 
ATOM     21  C   UNL     1      49.379   6.504  16.242  0.00  0.00    +0.000 C 
ATOM     22  O   UNL     1      50.263   5.667  16.417  0.00  0.00    +0.000 OA
ATOM     23  H   UNL     1      47.387   6.834  15.767  0.00  0.00    +0.000 HD
BRANCH  21  24
ATOM     24  C   UNL     1      49.624   7.921  16.535  0.00  0.00    +0.000 A 
ATOM     25  C   UNL     1      49.646   8.346  17.857  0.00  0.00    +0.000 A 
ATOM     26  S   UNL     1      49.915  10.019  18.037  0.00  0.00    +0.000 S 
ATOM     27  C   UNL     1      49.966  10.243  16.352  0.00  0.00    +0.000 A 
ATOM     28  N   UNL     1      50.117  11.484  15.818  0.00  0.00    +0.000 NA
ATOM     29  C   UNL     1      50.102  11.514  14.528  0.00  0.00    +0.000 A 
ATOM     30  N   UNL     1      49.968  10.413  13.722  0.00  0.00    +0.000 N 
ATOM     31  C   UNL     1      49.862   9.132  14.217  0.00  0.00    +0.000 A 
ATOM     32  O   UNL     1      49.828   8.155  13.475  0.00  0.00    +0.000 OA
ATOM     33  C   UNL     1      49.826   9.051  15.664  0.00  0.00    +0.000 A 
ATOM     34  H   UNL     1      49.991  10.503  12.717  0.00  0.00    +0.000 HD
ENDBRANCH  21  24
ENDBRANCH   2  20
TORSDOF 6
ENDMDL
MODEL 6
REMARK VINA RESULT:    -6.775      3.579      8.438
REMARK INTER + INTRA:         -10.262
REMARK INTER:                  -9.086
REMARK INTRA:                  -1.177
REMARK UNBOUND:                -1.111
REMARK  Name = 
REMARK  7 active torsions:
REMARK  status: ('A' for Active; 'I' for Inactive)
REMARK    1  A    between atoms: C_1  and  C_2
REMARK    2  A    between atoms: C_2  and  N_3
REMARK    3  A    between atoms: C_2  and  C_16
REMARK    4  A    between atoms: C_4  and  C_6
REMARK    5  A    between atoms: C_19  and  C_20
REMARK    6  A    between atoms: C_20  and  N_21
REMARK    7  A    between atoms: C_22  and  C_24
REMARK                            x       y       z     vdW  Elec       q    Type
REMARK                         _______ _______ _______ _____ _____    ______ ____
ROOT
ATOM      1  C   UNL     1      48.253   9.045  14.919  0.00  0.00    +0.000 C 
ATOM      2  C   UNL     1      48.445   7.579  14.516  0.00  0.00    +0.000 C 
ENDROOT
BRANCH   2   3
ATOM      3  C   UNL     1      49.008   6.695  15.619  0.00  0.00    +0.000 A 
ATOM      4  C   UNL     1      50.289   6.971  16.129  0.00  0.00    +0.000 A 
ATOM      5  C   UNL     1      50.839   6.209  17.167  0.00  0.00    +0.000 A 
ATOM      6  C   UNL     1      50.131   5.132  17.713  0.00  0.00    +0.000 A 
ATOM      7  C   UNL     1      48.854   4.851  17.208  0.00  0.00    +0.000 A 
ATOM      8  C   UNL     1      48.306   5.612  16.166  0.00  0.00    +0.000 A 
BRANCH   6   9
ATOM      9  C   UNL     1      50.739   4.273  18.792  0.00  0.00    +0.000 C 
BRANCH   9  10
ATOM     10  N   UNL     1      51.430   3.118  18.281  0.00  0.00    +0.000 N 
ATOM     11  C   UNL     1      52.805   3.089  18.202  0.00  0.00    +0.000 C 
ATOM     12  O   UNL     1      53.522   4.027  18.548  0.00  0.00    +0.000 OA
ATOM     13  H   UNL     1      50.940   2.264  18.034  0.00  0.00    +0.000 HD
BRANCH  11  14
ATOM     14  C   UNL     1      53.352   1.834  17.661  0.00  0.00    +0.000 A 
ATOM     15  C   UNL     1      54.681   1.600  17.218  0.00  0.00    +0.000 A 
ATOM     16  C   UNL     1      54.701   0.296  16.784  0.00  0.00    +0.000 A 
ATOM     17  N   UNL     1      53.438  -0.178  16.975  0.00  0.00    +0.000 N 
ATOM     18  N   UNL     1      52.599   0.721  17.519  0.00  0.00    +0.000 NA
ATOM     19  H   UNL     1      53.079  -1.101  16.757  0.00  0.00    +0.000 HD
ENDBRANCH  11  14
ENDBRANCH   9  10
ENDBRANCH   6   9
ENDBRANCH   2   3
BRANCH   2  20
ATOM     20  N   UNL     1      47.209   7.027  13.983  0.00  0.00    +0.000 N 
ATOM     21  C   UNL     1      46.966   7.016  12.629  0.00  0.00    +0.000 C 
ATOM     22  O   UNL     1      47.797   7.415  11.816  0.00  0.00    +0.000 OA
ATOM     23  H   UNL     1      46.442   6.877  14.631  0.00  0.00    +0.000 HD
BRANCH  21  24
ATOM     24  C   UNL     1      45.690   6.452  12.176  0.00  0.00    +0.000 A 
ATOM     25  C   UNL     1      44.740   7.292  11.608  0.00  0.00    +0.000 A 
ATOM     26  S   UNL     1      43.302   6.498  11.157  0.00  0.00    +0.000 S 
ATOM     27  C   UNL     1      43.878   5.010  11.746  0.00  0.00    +0.000 A 
ATOM     28  N   UNL     1      43.098   3.898  11.714  0.00  0.00    +0.000 NA
ATOM     29  C   UNL     1      43.646   2.847  12.226  0.00  0.00    +0.000 A 
ATOM     30  N   UNL     1      44.912   2.804  12.751  0.00  0.00    +0.000 N 
ATOM     31  C   UNL     1      45.756   3.892  12.760  0.00  0.00    +0.000 A 
ATOM     32  O   UNL     1      46.914   3.807  13.158  0.00  0.00    +0.000 OA
ATOM     33  C   UNL     1      45.168   5.110  12.237  0.00  0.00    +0.000 A 
ATOM     34  H   UNL     1      45.291   1.942  13.112  0.00  0.00    +0.000 HD
ENDBRANCH  21  24
ENDBRANCH   2  20
TORSDOF 6
ENDMDL
MODEL 7
REMARK VINA RESULT:    -6.475      2.794      8.413
REMARK INTER + INTRA:          -9.857
REMARK INTER:                 -10.020
REMARK INTRA:                   0.162
REMARK UNBOUND:                -1.111
REMARK  Name = 
REMARK  7 active torsions:
REMARK  status: ('A' for Active; 'I' for Inactive)
REMARK    1  A    between atoms: C_1  and  C_2
REMARK    2  A    between atoms: C_2  and  N_3
REMARK    3  A    between atoms: C_2  and  C_16
REMARK    4  A    between atoms: C_4  and  C_6
REMARK    5  A    between atoms: C_19  and  C_20
REMARK    6  A    between atoms: C_20  and  N_21
REMARK    7  A    between atoms: C_22  and  C_24
REMARK                            x       y       z     vdW  Elec       q    Type
REMARK                         _______ _______ _______ _____ _____    ______ ____
ROOT
ATOM      1  C   UNL     1      46.697   8.794  12.435  0.00  0.00    +0.000 C 
ATOM      2  C   UNL     1      47.661   7.614  12.270  0.00  0.00    +0.000 C 
ENDROOT
BRANCH   2   3
ATOM      3  C   UNL     1      48.507   7.321  13.501  0.00  0.00    +0.000 A 
ATOM      4  C   UNL     1      47.933   6.608  14.569  0.00  0.00    +0.000 A 
ATOM      5  C   UNL     1      48.678   6.284  15.710  0.00  0.00    +0.000 A 
ATOM      6  C   UNL     1      50.015   6.682  15.825  0.00  0.00    +0.000 A 
ATOM      7  C   UNL     1      50.591   7.394  14.765  0.00  0.00    +0.000 A 
ATOM      8  C   UNL     1      49.843   7.723  13.625  0.00  0.00    +0.000 A 
BRANCH   6   9
ATOM      9  C   UNL     1      50.806   6.386  17.074  0.00  0.00    +0.000 C 
BRANCH   9  10
ATOM     10  N   UNL     1      51.345   5.052  17.106  0.00  0.00    +0.000 N 
ATOM     11  C   UNL     1      50.660   4.021  17.711  0.00  0.00    +0.000 C 
ATOM     12  O   UNL     1      49.567   4.166  18.258  0.00  0.00    +0.000 OA
ATOM     13  H   UNL     1      52.205   4.809  16.624  0.00  0.00    +0.000 HD
BRANCH  11  14
ATOM     14  C   UNL     1      51.349   2.722  17.651  0.00  0.00    +0.000 A 
ATOM     15  C   UNL     1      52.685   2.444  18.045  0.00  0.00    +0.000 A 
ATOM     16  C   UNL     1      52.876   1.108  17.782  0.00  0.00    +0.000 A 
ATOM     17  N   UNL     1      51.698   0.660  17.264  0.00  0.00    +0.000 N 
ATOM     18  N   UNL     1      50.746   1.607  17.185  0.00  0.00    +0.000 NA
ATOM     19  H   UNL     1      51.474  -0.276  16.943  0.00  0.00    +0.000 HD
ENDBRANCH  11  14
ENDBRANCH   9  10
ENDBRANCH   6   9
ENDBRANCH   2   3
BRANCH   2  20
ATOM     20  N   UNL     1      46.945   6.426  11.832  0.00  0.00    +0.000 N 
ATOM     21  C   UNL     1      45.623   6.235  12.161  0.00  0.00    +0.000 C 
ATOM     22  O   UNL     1      44.981   7.077  12.785  0.00  0.00    +0.000 OA
ATOM     23  H   UNL     1      47.496   5.642  11.493  0.00  0.00    +0.000 HD
BRANCH  21  24
ATOM     24  C   UNL     1      44.980   5.004  11.688  0.00  0.00    +0.000 A 
ATOM     25  C   UNL     1      44.247   4.235  12.584  0.00  0.00    +0.000 A 
ATOM     26  S   UNL     1      43.583   2.825  11.895  0.00  0.00    +0.000 S 
ATOM     27  C   UNL     1      44.289   3.168  10.387  0.00  0.00    +0.000 A 
ATOM     28  N   UNL     1      44.153   2.309   9.342  0.00  0.00    +0.000 NA
ATOM     29  C   UNL     1      44.770   2.674   8.268  0.00  0.00    +0.000 A 
ATOM     30  N   UNL     1      45.496   3.830   8.139  0.00  0.00    +0.000 N 
ATOM     31  C   UNL     1      45.620   4.753   9.154  0.00  0.00    +0.000 A 
ATOM     32  O   UNL     1      46.203   5.819   8.987  0.00  0.00    +0.000 OA
ATOM     33  C   UNL     1      44.983   4.365  10.397  0.00  0.00    +0.000 A 
ATOM     34  H   UNL     1      45.932   4.070   7.262  0.00  0.00    +0.000 HD
ENDBRANCH  21  24
ENDBRANCH   2  20
TORSDOF 6
ENDMDL
MODEL 8
REMARK VINA RESULT:    -6.451      4.256      9.446
REMARK INTER + INTRA:          -9.824
REMARK INTER:                  -8.770
REMARK INTRA:                  -1.054
REMARK UNBOUND:                -1.111
REMARK  Name = 
REMARK  7 active torsions:
REMARK  status: ('A' for Active; 'I' for Inactive)
REMARK    1  A    between atoms: C_1  and  C_2
REMARK    2  A    between atoms: C_2  and  N_3
REMARK    3  A    between atoms: C_2  and  C_16
REMARK    4  A    between atoms: C_4  and  C_6
REMARK    5  A    between atoms: C_19  and  C_20
REMARK    6  A    between atoms: C_20  and  N_21
REMARK    7  A    between atoms: C_22  and  C_24
REMARK                            x       y       z     vdW  Elec       q    Type
REMARK                         _______ _______ _______ _____ _____    ______ ____
ROOT
ATOM      1  C   UNL     1      47.276   3.104  17.735  0.00  0.00    +0.000 C 
ATOM      2  C   UNL     1      48.404   4.064  17.342  0.00  0.00    +0.000 C 
ENDROOT
BRANCH   2   3
ATOM      3  C   UNL     1      49.803   3.490  17.518  0.00  0.00    +0.000 A 
ATOM      4  C   UNL     1      50.022   2.129  17.244  0.00  0.00    +0.000 A 
ATOM      5  C   UNL     1      51.296   1.560  17.357  0.00  0.00    +0.000 A 
ATOM      6  C   UNL     1      52.388   2.332  17.771  0.00  0.00    +0.000 A 
ATOM      7  C   UNL     1      52.175   3.689  18.048  0.00  0.00    +0.000 A 
ATOM      8  C   UNL     1      50.898   4.257  17.938  0.00  0.00    +0.000 A 
BRANCH   6   9
ATOM      9  C   UNL     1      53.751   1.713  17.950  0.00  0.00    +0.000 C 
BRANCH   9  10
ATOM     10  N   UNL     1      53.717   0.439  18.619  0.00  0.00    +0.000 N 
ATOM     11  C   UNL     1      54.266  -0.683  18.039  0.00  0.00    +0.000 C 
ATOM     12  O   UNL     1      54.806  -0.678  16.934  0.00  0.00    +0.000 OA
ATOM     13  H   UNL     1      53.359   0.337  19.563  0.00  0.00    +0.000 HD
BRANCH  11  14
ATOM     14  C   UNL     1      54.150  -1.902  18.857  0.00  0.00    +0.000 A 
ATOM     15  C   UNL     1      55.072  -2.981  18.919  0.00  0.00    +0.000 A 
ATOM     16  C   UNL     1      54.522  -3.886  19.795  0.00  0.00    +0.000 A 
ATOM     17  N   UNL     1      53.344  -3.337  20.205  0.00  0.00    +0.000 N 
ATOM     18  N   UNL     1      53.094  -2.128  19.669  0.00  0.00    +0.000 NA
ATOM     19  H   UNL     1      52.662  -3.729  20.845  0.00  0.00    +0.000 HD
ENDBRANCH  11  14
ENDBRANCH   9  10
ENDBRANCH   6   9
ENDBRANCH   2   3
BRANCH   2  20
ATOM     20  N   UNL     1      48.208   4.559  15.989  0.00  0.00    +0.000 N 
ATOM     21  C   UNL     1      48.316   5.900  15.704  0.00  0.00    +0.000 C 
ATOM     22  O   UNL     1      48.634   6.722  16.561  0.00  0.00    +0.000 OA
ATOM     23  H   UNL     1      47.761   3.939  15.320  0.00  0.00    +0.000 HD
BRANCH  21  24
ATOM     24  C   UNL     1      48.092   6.317  14.315  0.00  0.00    +0.000 A 
ATOM     25  C   UNL     1      48.866   7.339  13.781  0.00  0.00    +0.000 A 
ATOM     26  S   UNL     1      48.472   7.729  12.170  0.00  0.00    +0.000 S 
ATOM     27  C   UNL     1      47.223   6.575  12.143  0.00  0.00    +0.000 A 
ATOM     28  N   UNL     1      46.432   6.429  11.046  0.00  0.00    +0.000 NA
ATOM     29  C   UNL     1      45.501   5.544  11.175  0.00  0.00    +0.000 A 
ATOM     30  N   UNL     1      45.300   4.779  12.295  0.00  0.00    +0.000 N 
ATOM     31  C   UNL     1      46.105   4.858  13.410  0.00  0.00    +0.000 A 
ATOM     32  O   UNL     1      45.957   4.103  14.366  0.00  0.00    +0.000 OA
ATOM     33  C   UNL     1      47.138   5.872  13.331  0.00  0.00    +0.000 A 
ATOM     34  H   UNL     1      44.568   4.085  12.321  0.00  0.00    +0.000 HD
ENDBRANCH  21  24
ENDBRANCH   2  20
TORSDOF 6
ENDMDL
MODEL 9
REMARK VINA RESULT:    -6.439      2.920      5.271
REMARK INTER + INTRA:          -9.808
REMARK INTER:                  -8.916
REMARK INTRA:                  -0.892
REMARK UNBOUND:                -1.111
REMARK  Name = 
REMARK  7 active torsions:
REMARK  status: ('A' for Active; 'I' for Inactive)
REMARK    1  A    between atoms: C_1  and  C_2
REMARK    2  A    between atoms: C_2  and  N_3
REMARK    3  A    between atoms: C_2  and  C_16
REMARK    4  A    between atoms: C_4  and  C_6
REMARK    5  A    between atoms: C_19  and  C_20
REMARK    6  A    between atoms: C_20  and  N_21
REMARK    7  A    between atoms: C_22  and  C_24
REMARK                            x       y       z     vdW  Elec       q    Type
REMARK                         _______ _______ _______ _____ _____    ______ ____
ROOT
ATOM      1  C   UNL     1      48.279   4.501  19.515  0.00  0.00    +0.000 C 
ATOM      2  C   UNL     1      48.680   3.754  18.239  0.00  0.00    +0.000 C 
ENDROOT
BRANCH   2   3
ATOM      3  C   UNL     1      48.313   4.476  16.950  0.00  0.00    +0.000 A 
ATOM      4  C   UNL     1      48.926   5.708  16.659  0.00  0.00    +0.000 A 
ATOM      5  C   UNL     1      48.649   6.396  15.471  0.00  0.00    +0.000 A 
ATOM      6  C   UNL     1      47.731   5.883  14.548  0.00  0.00    +0.000 A 
ATOM      7  C   UNL     1      47.115   4.657  14.833  0.00  0.00    +0.000 A 
ATOM      8  C   UNL     1      47.390   3.970  16.025  0.00  0.00    +0.000 A 
BRANCH   6   9
ATOM      9  C   UNL     1      47.384   6.646  13.295  0.00  0.00    +0.000 C 
BRANCH   9  10
ATOM     10  N   UNL     1      46.792   5.825  12.271  0.00  0.00    +0.000 N 
ATOM     11  C   UNL     1      45.821   6.325  11.432  0.00  0.00    +0.000 C 
ATOM     12  O   UNL     1      45.397   7.478  11.500  0.00  0.00    +0.000 OA
ATOM     13  H   UNL     1      47.118   4.883  12.083  0.00  0.00    +0.000 HD
BRANCH  11  14
ATOM     14  C   UNL     1      45.324   5.358  10.440  0.00  0.00    +0.000 A 
ATOM     15  C   UNL     1      44.488   4.236  10.685  0.00  0.00    +0.000 A 
ATOM     16  C   UNL     1      44.317   3.630   9.462  0.00  0.00    +0.000 A 
ATOM     17  N   UNL     1      45.028   4.380   8.574  0.00  0.00    +0.000 N 
ATOM     18  N   UNL     1      45.638   5.443   9.129  0.00  0.00    +0.000 NA
ATOM     19  H   UNL     1      45.142   4.226   7.578  0.00  0.00    +0.000 HD
ENDBRANCH  11  14
ENDBRANCH   9  10
ENDBRANCH   6   9
ENDBRANCH   2   3
BRANCH   2  20
ATOM     20  N   UNL     1      50.095   3.418  18.265  0.00  0.00    +0.000 N 
ATOM     21  C   UNL     1      50.600   2.421  17.463  0.00  0.00    +0.000 C 
ATOM     22  O   UNL     1      49.895   1.815  16.658  0.00  0.00    +0.000 OA
ATOM     23  H   UNL     1      50.647   3.761  19.045  0.00  0.00    +0.000 HD
BRANCH  21  24
ATOM     24  C   UNL     1      52.036   2.137  17.559  0.00  0.00    +0.000 A 
ATOM     25  C   UNL     1      52.468   0.817  17.564  0.00  0.00    +0.000 A 
ATOM     26  S   UNL     1      54.157   0.647  17.708  0.00  0.00    +0.000 S 
ATOM     27  C   UNL     1      54.369   2.331  17.813  0.00  0.00    +0.000 A 
ATOM     28  N   UNL     1      55.603   2.869  18.005  0.00  0.00    +0.000 NA
ATOM     29  C   UNL     1      55.614   4.156  18.103  0.00  0.00    +0.000 A 
ATOM     30  N   UNL     1      54.505   4.956  18.008  0.00  0.00    +0.000 N 
ATOM     31  C   UNL     1      53.242   4.460  17.765  0.00  0.00    +0.000 A 
ATOM     32  O   UNL     1      52.280   5.203  17.600  0.00  0.00    +0.000 OA
ATOM     33  C   UNL     1      53.171   3.014  17.694  0.00  0.00    +0.000 A 
ATOM     34  H   UNL     1      54.586   5.960  18.067  0.00  0.00    +0.000 HD
ENDBRANCH  21  24
ENDBRANCH   2  20
TORSDOF 6
ENDMDL
