MODEL 1
REMARK VINA RESULT:    -8.544      0.000      0.000
REMARK INTER + INTRA:         -12.542
REMARK INTER:                 -11.541
REMARK INTRA:                  -1.001
REMARK UNBOUND:                -1.001
REMARK  Name = 
REMARK  6 active torsions:
REMARK  status: ('A' for Active; 'I' for Inactive)
REMARK    1  A    between atoms: C_2  and  C_19
REMARK    2  A    between atoms: N_3  and  C_4
REMARK    3  A    between atoms: C_4  and  C_5
REMARK    4  A    between atoms: C_8  and  O_9
REMARK    5  A    between atoms: O_9  and  C_10
REMARK    6  A    between atoms: C_10  and  C_11
REMARK                            x       y       z     vdW  Elec       q    Type
REMARK                         _______ _______ _______ _____ _____    ______ ____
ROOT
ATOM      1  O   UNL     1      49.198   6.656  13.370  0.00  0.00    +0.000 OA
ATOM      2  C   UNL     1      48.428   6.668  14.326  0.00  0.00    +0.000 C 
ATOM      3  N   UNL     1      47.127   7.086  14.216  0.00  0.00    +0.000 N 
ATOM      4  H   UNL     1      46.567   7.190  15.056  0.00  0.00    +0.000 HD
ENDROOT
BRANCH   2   5
ATOM      5  C   UNL     1      48.847   6.202  15.654  0.00  0.00    +0.000 A 
ATOM      6  C   UNL     1      49.788   6.923  16.376  0.00  0.00    +0.000 A 
ATOM      7  S   UNL     1      50.162   6.232  17.890  0.00  0.00    +0.000 S 
ATOM      8  C   UNL     1      49.046   4.969  17.653  0.00  0.00    +0.000 A 
ATOM      9  N   UNL     1      48.847   4.021  18.607  0.00  0.00    +0.000 NA
ATOM     10  C   UNL     1      47.943   3.148  18.314  0.00  0.00    +0.000 A 
ATOM     11  N   UNL     1      47.222   3.133  17.147  0.00  0.00    +0.000 N 
ATOM     12  C   UNL     1      47.432   4.032  16.130  0.00  0.00    +0.000 A 
ATOM     13  O   UNL     1      46.848   3.926  15.056  0.00  0.00    +0.000 OA
ATOM     14  C   UNL     1      48.414   5.059  16.426  0.00  0.00    +0.000 A 
ATOM     15  H   UNL     1      46.544   2.406  16.969  0.00  0.00    +0.000 HD
ENDBRANCH   2   5
BRANCH   3  16
ATOM     16  C   UNL     1      46.585   7.645  13.004  0.00  0.00    +0.000 C 
BRANCH  16  17
ATOM     17  C   UNL     1      45.962   6.598  12.129  0.00  0.00    +0.000 A 
ATOM     18  C   UNL     1      46.269   6.505  10.769  0.00  0.00    +0.000 A 
ATOM     19  C   UNL     1      45.661   5.527   9.987  0.00  0.00    +0.000 A 
ATOM     20  C   UNL     1      44.789   4.647  10.601  0.00  0.00    +0.000 A 
ATOM     21  N   UNL     1      44.477   4.693  11.914  0.00  0.00    +0.000 NA
ATOM     22  C   UNL     1      45.069   5.667  12.645  0.00  0.00    +0.000 A 
BRANCH  20  23
ATOM     23  O   UNL     1      44.187   3.699   9.797  0.00  0.00    +0.000 OA
BRANCH  23  24
ATOM     24  C   UNL     1      44.485   3.908   8.416  0.00  0.00    +0.000 C 
BRANCH  24  25
ATOM     25  C   UNL     1      45.559   2.943   7.993  0.00  0.00    +0.000 A 
ATOM     26  C   UNL     1      46.561   3.323   7.094  0.00  0.00    +0.000 A 
ATOM     27  C   UNL     1      47.514   2.394   6.689  0.00  0.00    +0.000 A 
ATOM     28  C   UNL     1      47.434   1.109   7.201  0.00  0.00    +0.000 A 
ATOM     29  N   UNL     1      46.484   0.704   8.070  0.00  0.00    +0.000 NA
ATOM     30  C   UNL     1      45.571   1.629   8.447  0.00  0.00    +0.000 A 
ENDBRANCH  24  25
ENDBRANCH  23  24
ENDBRANCH  20  23
ENDBRANCH  16  17
ENDBRANCH   3  16
TORSDOF 6
ENDMDL
MODEL 2
REMARK VINA RESULT:    -7.535      2.638      3.419
REMARK INTER + INTRA:         -11.178
REMARK INTER:                 -10.134
REMARK INTRA:                  -1.045
REMARK UNBOUND:                -1.001
REMARK  Name = 
REMARK  6 active torsions:
REMARK  status: ('A' for Active; 'I' for Inactive)
REMARK    1  A    between atoms: C_2  and  C_19
REMARK    2  A    between atoms: N_3  and  C_4
REMARK    3  A    between atoms: C_4  and  C_5
REMARK    4  A    between atoms: C_8  and  O_9
REMARK    5  A    between atoms: O_9  and  C_10
REMARK    6  A    between atoms: C_10  and  C_11
REMARK                            x       y       z     vdW  Elec       q    Type
REMARK                         _______ _______ _______ _____ _____    ______ ____
ROOT
ATOM      1  O   UNL     1      46.832   8.636  13.579  0.00  0.00    +0.000 OA
ATOM      2  C   UNL     1      47.693   7.769  13.457  0.00  0.00    +0.000 C 
ATOM      3  N   UNL     1      47.386   6.437  13.350  0.00  0.00    +0.000 N 
ATOM      4  H   UNL     1      48.135   5.753  13.371  0.00  0.00    +0.000 HD
ENDROOT
BRANCH   2   5
ATOM      5  C   UNL     1      49.120   8.111  13.386  0.00  0.00    +0.000 A 
ATOM      6  C   UNL     1      49.584   8.938  12.372  0.00  0.00    +0.000 A 
ATOM      7  S   UNL     1      51.264   9.221  12.438  0.00  0.00    +0.000 S 
ATOM      8  C   UNL     1      51.423   8.286  13.852  0.00  0.00    +0.000 A 
ATOM      9  N   UNL     1      52.630   8.138  14.462  0.00  0.00    +0.000 NA
ATOM     10  C   UNL     1      52.597   7.439  15.547  0.00  0.00    +0.000 A 
ATOM     11  N   UNL     1      51.469   6.867  16.073  0.00  0.00    +0.000 N 
ATOM     12  C   UNL     1      50.242   6.937  15.459  0.00  0.00    +0.000 A 
ATOM     13  O   UNL     1      49.274   6.323  15.899  0.00  0.00    +0.000 OA
ATOM     14  C   UNL     1      50.216   7.744  14.253  0.00  0.00    +0.000 A 
ATOM     15  H   UNL     1      51.516   6.310  16.915  0.00  0.00    +0.000 HD
ENDBRANCH   2   5
BRANCH   3  16
ATOM     16  C   UNL     1      46.043   5.931  13.479  0.00  0.00    +0.000 C 
BRANCH  16  17
ATOM     17  C   UNL     1      45.620   5.141  12.276  0.00  0.00    +0.000 A 
ATOM     18  C   UNL     1      45.638   5.695  10.995  0.00  0.00    +0.000 A 
ATOM     19  C   UNL     1      45.226   4.934   9.904  0.00  0.00    +0.000 A 
ATOM     20  C   UNL     1      44.841   3.625  10.129  0.00  0.00    +0.000 A 
ATOM     21  N   UNL     1      44.823   3.047  11.350  0.00  0.00    +0.000 NA
ATOM     22  C   UNL     1      45.211   3.818  12.392  0.00  0.00    +0.000 A 
BRANCH  20  23
ATOM     23  O   UNL     1      44.419   2.900   9.032  0.00  0.00    +0.000 OA
BRANCH  23  24
ATOM     24  C   UNL     1      45.230   1.744   8.815  0.00  0.00    +0.000 C 
BRANCH  24  25
ATOM     25  C   UNL     1      46.178   2.015   7.679  0.00  0.00    +0.000 A 
ATOM     26  C   UNL     1      45.999   3.114   6.832  0.00  0.00    +0.000 A 
ATOM     27  C   UNL     1      46.869   3.312   5.765  0.00  0.00    +0.000 A 
ATOM     28  C   UNL     1      47.896   2.401   5.579  0.00  0.00    +0.000 A 
ATOM     29  N   UNL     1      48.103   1.331   6.375  0.00  0.00    +0.000 NA
ATOM     30  C   UNL     1      47.242   1.164   7.405  0.00  0.00    +0.000 A 
ENDBRANCH  24  25
ENDBRANCH  23  24
ENDBRANCH  20  23
ENDBRANCH  16  17
ENDBRANCH   3  16
TORSDOF 6
ENDMDL
MODEL 3
REMARK VINA RESULT:    -7.232      1.870      2.276
REMARK INTER + INTRA:         -10.769
REMARK INTER:                  -9.819
REMARK INTRA:                  -0.950
REMARK UNBOUND:                -1.001
REMARK  Name = 
REMARK  6 active torsions:
REMARK  status: ('A' for Active; 'I' for Inactive)
REMARK    1  A    between atoms: C_2  and  C_19
REMARK    2  A    between atoms: N_3  and  C_4
REMARK    3  A    between atoms: C_4  and  C_5
REMARK    4  A    between atoms: C_8  and  O_9
REMARK    5  A    between atoms: O_9  and  C_10
REMARK    6  A    between atoms: C_10  and  C_11
REMARK                            x       y       z     vdW  Elec       q    Type
REMARK                         _______ _______ _______ _____ _____    ______ ____
ROOT
ATOM      1  O   UNL     1      48.800   9.407  13.604  0.00  0.00    +0.000 OA
ATOM      2  C   UNL     1      47.986   9.069  14.458  0.00  0.00    +0.000 C 
ATOM      3  N   UNL     1      46.696   8.721  14.149  0.00  0.00    +0.000 N 
ATOM      4  H   UNL     1      46.031   8.565  14.899  0.00  0.00    +0.000 HD
ENDROOT
BRANCH   2   5
ATOM      5  C   UNL     1      48.356   8.983  15.877  0.00  0.00    +0.000 A 
ATOM      6  C   UNL     1      48.282  10.112  16.681  0.00  0.00    +0.000 A 
ATOM      7  S   UNL     1      48.756   9.832  18.295  0.00  0.00    +0.000 S 
ATOM      8  C   UNL     1      49.034   8.182  17.987  0.00  0.00    +0.000 A 
ATOM      9  N   UNL     1      49.440   7.342  18.977  0.00  0.00    +0.000 NA
ATOM     10  C   UNL     1      49.571   6.111  18.614  0.00  0.00    +0.000 A 
ATOM     11  N   UNL     1      49.340   5.642  17.346  0.00  0.00    +0.000 N 
ATOM     12  C   UNL     1      48.989   6.462  16.301  0.00  0.00    +0.000 A 
ATOM     13  O   UNL     1      48.896   6.029  15.157  0.00  0.00    +0.000 OA
ATOM     14  C   UNL     1      48.792   7.853  16.665  0.00  0.00    +0.000 A 
ATOM     15  H   UNL     1      49.485   4.668  17.121  0.00  0.00    +0.000 HD
ENDBRANCH   2   5
BRANCH   3  16
ATOM     16  C   UNL     1      46.156   8.827  12.817  0.00  0.00    +0.000 C 
BRANCH  16  17
ATOM     17  C   UNL     1      45.701   7.499  12.286  0.00  0.00    +0.000 A 
ATOM     18  C   UNL     1      44.473   7.354  11.639  0.00  0.00    +0.000 A 
ATOM     19  C   UNL     1      44.080   6.103  11.170  0.00  0.00    +0.000 A 
ATOM     20  C   UNL     1      44.951   5.040  11.335  0.00  0.00    +0.000 A 
ATOM     21  N   UNL     1      46.153   5.142  11.942  0.00  0.00    +0.000 NA
ATOM     22  C   UNL     1      46.498   6.367  12.403  0.00  0.00    +0.000 A 
BRANCH  20  23
ATOM     23  O   UNL     1      44.526   3.808  10.877  0.00  0.00    +0.000 OA
BRANCH  23  24
ATOM     24  C   UNL     1      44.210   3.838   9.485  0.00  0.00    +0.000 C 
BRANCH  24  25
ATOM     25  C   UNL     1      45.280   3.107   8.722  0.00  0.00    +0.000 A 
ATOM     26  C   UNL     1      46.114   3.777   7.821  0.00  0.00    +0.000 A 
ATOM     27  C   UNL     1      47.064   3.064   7.099  0.00  0.00    +0.000 A 
ATOM     28  C   UNL     1      47.152   1.696   7.302  0.00  0.00    +0.000 A 
ATOM     29  N   UNL     1      46.366   1.014   8.162  0.00  0.00    +0.000 NA
ATOM     30  C   UNL     1      45.451   1.734   8.852  0.00  0.00    +0.000 A 
ENDBRANCH  24  25
ENDBRANCH  23  24
ENDBRANCH  20  23
ENDBRANCH  16  17
ENDBRANCH   3  16
TORSDOF 6
ENDMDL
MODEL 4
REMARK VINA RESULT:    -7.209      2.082      2.816
REMARK INTER + INTRA:         -10.738
REMARK INTER:                  -9.862
REMARK INTRA:                  -0.876
REMARK UNBOUND:                -1.001
REMARK  Name = 
REMARK  6 active torsions:
REMARK  status: ('A' for Active; 'I' for Inactive)
REMARK    1  A    between atoms: C_2  and  C_19
REMARK    2  A    between atoms: N_3  and  C_4
REMARK    3  A    between atoms: C_4  and  C_5
REMARK    4  A    between atoms: C_8  and  O_9
REMARK    5  A    between atoms: O_9  and  C_10
REMARK    6  A    between atoms: C_10  and  C_11
REMARK                            x       y       z     vdW  Elec       q    Type
REMARK                         _______ _______ _______ _____ _____    ______ ____
ROOT
ATOM      1  O   UNL     1      48.348   8.025  16.246  0.00  0.00    +0.000 OA
ATOM      2  C   UNL     1      48.724   6.943  15.805  0.00  0.00    +0.000 C 
ATOM      3  N   UNL     1      48.435   6.527  14.531  0.00  0.00    +0.000 N 
ATOM      4  H   UNL     1      48.665   5.578  14.254  0.00  0.00    +0.000 HD
ENDROOT
BRANCH   2   5
ATOM      5  C   UNL     1      49.544   6.030  16.612  0.00  0.00    +0.000 A 
ATOM      6  C   UNL     1      48.936   5.034  17.363  0.00  0.00    +0.000 A 
ATOM      7  S   UNL     1      50.037   4.075  18.243  0.00  0.00    +0.000 S 
ATOM      8  C   UNL     1      51.370   4.928  17.616  0.00  0.00    +0.000 A 
ATOM      9  N   UNL     1      52.643   4.587  17.953  0.00  0.00    +0.000 NA
ATOM     10  C   UNL     1      53.555   5.290  17.371  0.00  0.00    +0.000 A 
ATOM     11  N   UNL     1      53.312   6.310  16.488  0.00  0.00    +0.000 N 
ATOM     12  C   UNL     1      52.044   6.730  16.167  0.00  0.00    +0.000 A 
ATOM     13  O   UNL     1      51.860   7.715  15.458  0.00  0.00    +0.000 OA
ATOM     14  C   UNL     1      50.979   5.947  16.766  0.00  0.00    +0.000 A 
ATOM     15  H   UNL     1      54.073   6.838  16.086  0.00  0.00    +0.000 HD
ENDBRANCH   2   5
BRANCH   3  16
ATOM     16  C   UNL     1      47.577   7.269  13.642  0.00  0.00    +0.000 C 
BRANCH  16  17
ATOM     17  C   UNL     1      46.702   6.369  12.820  0.00  0.00    +0.000 A 
ATOM     18  C   UNL     1      46.048   6.832  11.676  0.00  0.00    +0.000 A 
ATOM     19  C   UNL     1      45.235   5.969  10.946  0.00  0.00    +0.000 A 
ATOM     20  C   UNL     1      45.131   4.656  11.367  0.00  0.00    +0.000 A 
ATOM     21  N   UNL     1      45.758   4.166  12.458  0.00  0.00    +0.000 NA
ATOM     22  C   UNL     1      46.526   5.033  13.158  0.00  0.00    +0.000 A 
BRANCH  20  23
ATOM     23  O   UNL     1      44.302   3.828  10.635  0.00  0.00    +0.000 OA
BRANCH  23  24
ATOM     24  C   UNL     1      44.335   4.142   9.242  0.00  0.00    +0.000 C 
BRANCH  24  25
ATOM     25  C   UNL     1      45.318   3.234   8.557  0.00  0.00    +0.000 A 
ATOM     26  C   UNL     1      46.175   3.713   7.561  0.00  0.00    +0.000 A 
ATOM     27  C   UNL     1      47.043   2.839   6.916  0.00  0.00    +0.000 A 
ATOM     28  C   UNL     1      47.027   1.505   7.291  0.00  0.00    +0.000 A 
ATOM     29  N   UNL     1      46.217   1.004   8.247  0.00  0.00    +0.000 NA
ATOM     30  C   UNL     1      45.384   1.878   8.858  0.00  0.00    +0.000 A 
ENDBRANCH  24  25
ENDBRANCH  23  24
ENDBRANCH  20  23
ENDBRANCH  16  17
ENDBRANCH   3  16
TORSDOF 6
ENDMDL
MODEL 5
REMARK VINA RESULT:    -7.194      1.667      2.283
REMARK INTER + INTRA:         -10.718
REMARK INTER:                 -10.177
REMARK INTRA:                  -0.541
REMARK UNBOUND:                -1.001
REMARK  Name = 
REMARK  6 active torsions:
REMARK  status: ('A' for Active; 'I' for Inactive)
REMARK    1  A    between atoms: C_2  and  C_19
REMARK    2  A    between atoms: N_3  and  C_4
REMARK    3  A    between atoms: C_4  and  C_5
REMARK    4  A    between atoms: C_8  and  O_9
REMARK    5  A    between atoms: O_9  and  C_10
REMARK    6  A    between atoms: C_10  and  C_11
REMARK                            x       y       z     vdW  Elec       q    Type
REMARK                         _______ _______ _______ _____ _____    ______ ____
ROOT
ATOM      1  O   UNL     1      46.521   8.510  13.391  0.00  0.00    +0.000 OA
ATOM      2  C   UNL     1      46.927   7.411  13.757  0.00  0.00    +0.000 C 
ATOM      3  N   UNL     1      46.221   6.256  13.539  0.00  0.00    +0.000 N 
ATOM      4  H   UNL     1      46.540   5.392  13.964  0.00  0.00    +0.000 HD
ENDROOT
BRANCH   2   5
ATOM      5  C   UNL     1      48.223   7.258  14.432  0.00  0.00    +0.000 A 
ATOM      6  C   UNL     1      49.246   8.161  14.179  0.00  0.00    +0.000 A 
ATOM      7  S   UNL     1      50.680   7.827  15.039  0.00  0.00    +0.000 S 
ATOM      8  C   UNL     1      49.969   6.489  15.815  0.00  0.00    +0.000 A 
ATOM      9  N   UNL     1      50.664   5.756  16.726  0.00  0.00    +0.000 NA
ATOM     10  C   UNL     1      49.990   4.798  17.267  0.00  0.00    +0.000 A 
ATOM     11  N   UNL     1      48.685   4.500  16.974  0.00  0.00    +0.000 N 
ATOM     12  C   UNL     1      47.963   5.172  16.018  0.00  0.00    +0.000 A 
ATOM     13  O   UNL     1      46.833   4.812  15.703  0.00  0.00    +0.000 OA
ATOM     14  C   UNL     1      48.664   6.286  15.405  0.00  0.00    +0.000 A 
ATOM     15  H   UNL     1      48.221   3.719  17.417  0.00  0.00    +0.000 HD
ENDBRANCH   2   5
BRANCH   3  16
ATOM     16  C   UNL     1      44.900   6.245  12.963  0.00  0.00    +0.000 C 
BRANCH  16  17
ATOM     17  C   UNL     1      44.774   5.231  11.864  0.00  0.00    +0.000 A 
ATOM     18  C   UNL     1      44.465   3.896  12.134  0.00  0.00    +0.000 A 
ATOM     19  C   UNL     1      44.368   2.983  11.087  0.00  0.00    +0.000 A 
ATOM     20  C   UNL     1      44.550   3.445   9.797  0.00  0.00    +0.000 A 
ATOM     21  N   UNL     1      44.835   4.729   9.493  0.00  0.00    +0.000 NA
ATOM     22  C   UNL     1      44.942   5.589  10.532  0.00  0.00    +0.000 A 
BRANCH  20  23
ATOM     23  O   UNL     1      44.467   2.512   8.781  0.00  0.00    +0.000 OA
BRANCH  23  24
ATOM     24  C   UNL     1      45.621   1.672   8.735  0.00  0.00    +0.000 C 
BRANCH  24  25
ATOM     25  C   UNL     1      46.427   2.012   7.511  0.00  0.00    +0.000 A 
ATOM     26  C   UNL     1      46.050   3.057   6.662  0.00  0.00    +0.000 A 
ATOM     27  C   UNL     1      46.792   3.318   5.515  0.00  0.00    +0.000 A 
ATOM     28  C   UNL     1      47.894   2.520   5.253  0.00  0.00    +0.000 A 
ATOM     29  N   UNL     1      48.291   1.504   6.047  0.00  0.00    +0.000 NA
ATOM     30  C   UNL     1      47.550   1.274   7.157  0.00  0.00    +0.000 A 
ENDBRANCH  24  25
ENDBRANCH  23  24
ENDBRANCH  20  23
ENDBRANCH  16  17
ENDBRANCH   3  16
TORSDOF 6
ENDMDL
MODEL 6
REMARK VINA RESULT:    -7.140      3.347      7.938
REMARK INTER + INTRA:         -10.646
REMARK INTER:                  -9.746
REMARK INTRA:                  -0.900
REMARK UNBOUND:                -1.001
REMARK  Name = 
REMARK  6 active torsions:
REMARK  status: ('A' for Active; 'I' for Inactive)
REMARK    1  A    between atoms: C_2  and  C_19
REMARK    2  A    between atoms: N_3  and  C_4
REMARK    3  A    between atoms: C_4  and  C_5
REMARK    4  A    between atoms: C_8  and  O_9
REMARK    5  A    between atoms: O_9  and  C_10
REMARK    6  A    between atoms: C_10  and  C_11
REMARK                            x       y       z     vdW  Elec       q    Type
REMARK                         _______ _______ _______ _____ _____    ______ ____
ROOT
ATOM      1  O   UNL     1      45.563   7.893  11.783  0.00  0.00    +0.000 OA
ATOM      2  C   UNL     1      46.220   6.889  11.522  0.00  0.00    +0.000 C 
ATOM      3  N   UNL     1      47.537   6.757  11.881  0.00  0.00    +0.000 N 
ATOM      4  H   UNL     1      48.067   5.963  11.539  0.00  0.00    +0.000 HD
ENDROOT
BRANCH   2   5
ATOM      5  C   UNL     1      45.621   5.741  10.829  0.00  0.00    +0.000 A 
ATOM      6  C   UNL     1      45.832   5.566   9.468  0.00  0.00    +0.000 A 
ATOM      7  S   UNL     1      45.056   4.189   8.829  0.00  0.00    +0.000 S 
ATOM      8  C   UNL     1      44.448   3.752  10.357  0.00  0.00    +0.000 A 
ATOM      9  N   UNL     1      43.703   2.625  10.520  0.00  0.00    +0.000 NA
ATOM     10  C   UNL     1      43.344   2.393  11.737  0.00  0.00    +0.000 A 
ATOM     11  N   UNL     1      43.655   3.190  12.808  0.00  0.00    +0.000 N 
ATOM     12  C   UNL     1      44.350   4.369  12.684  0.00  0.00    +0.000 A 
ATOM     13  O   UNL     1      44.518   5.113  13.644  0.00  0.00    +0.000 OA
ATOM     14  C   UNL     1      44.811   4.658  11.338  0.00  0.00    +0.000 A 
ATOM     15  H   UNL     1      43.321   2.964  13.735  0.00  0.00    +0.000 HD
ENDBRANCH   2   5
BRANCH   3  16
ATOM     16  C   UNL     1      48.290   7.821  12.495  0.00  0.00    +0.000 C 
BRANCH  16  17
ATOM     17  C   UNL     1      48.936   7.387  13.778  0.00  0.00    +0.000 A 
ATOM     18  C   UNL     1      50.141   7.942  14.213  0.00  0.00    +0.000 A 
ATOM     19  C   UNL     1      50.715   7.504  15.403  0.00  0.00    +0.000 A 
ATOM     20  C   UNL     1      50.044   6.546  16.140  0.00  0.00    +0.000 A 
ATOM     21  N   UNL     1      48.871   5.995  15.761  0.00  0.00    +0.000 NA
ATOM     22  C   UNL     1      48.347   6.427  14.591  0.00  0.00    +0.000 A 
BRANCH  20  23
ATOM     23  O   UNL     1      50.647   6.117  17.306  0.00  0.00    +0.000 OA
BRANCH  23  24
ATOM     24  C   UNL     1      49.877   5.112  17.964  0.00  0.00    +0.000 C 
BRANCH  24  25
ATOM     25  C   UNL     1      50.557   3.781  17.793  0.00  0.00    +0.000 A 
ATOM     26  C   UNL     1      51.889   3.593  18.175  0.00  0.00    +0.000 A 
ATOM     27  C   UNL     1      52.501   2.363  17.964  0.00  0.00    +0.000 A 
ATOM     28  C   UNL     1      51.757   1.353  17.375  0.00  0.00    +0.000 A 
ATOM     29  N   UNL     1      50.470   1.494  16.994  0.00  0.00    +0.000 NA
ATOM     30  C   UNL     1      49.900   2.702  17.213  0.00  0.00    +0.000 A 
ENDBRANCH  24  25
ENDBRANCH  23  24
ENDBRANCH  20  23
ENDBRANCH  16  17
ENDBRANCH   3  16
TORSDOF 6
ENDMDL
MODEL 7
REMARK VINA RESULT:    -6.860      3.007      3.660
REMARK INTER + INTRA:         -10.267
REMARK INTER:                  -9.655
REMARK INTRA:                  -0.612
REMARK UNBOUND:                -1.001
REMARK  Name = 
REMARK  6 active torsions:
REMARK  status: ('A' for Active; 'I' for Inactive)
REMARK    1  A    between atoms: C_2  and  C_19
REMARK    2  A    between atoms: N_3  and  C_4
REMARK    3  A    between atoms: C_4  and  C_5
REMARK    4  A    between atoms: C_8  and  O_9
REMARK    5  A    between atoms: O_9  and  C_10
REMARK    6  A    between atoms: C_10  and  C_11
REMARK                            x       y       z     vdW  Elec       q    Type
REMARK                         _______ _______ _______ _____ _____    ______ ____
ROOT
ATOM      1  O   UNL     1      46.968   9.746  12.652  0.00  0.00    +0.000 OA
ATOM      2  C   UNL     1      47.139   8.737  13.329  0.00  0.00    +0.000 C 
ATOM      3  N   UNL     1      46.232   7.709  13.359  0.00  0.00    +0.000 N 
ATOM      4  H   UNL     1      46.360   6.953  14.023  0.00  0.00    +0.000 HD
ENDROOT
BRANCH   2   5
ATOM      5  C   UNL     1      48.353   8.551  14.135  0.00  0.00    +0.000 A 
ATOM      6  C   UNL     1      48.257   8.437  15.515  0.00  0.00    +0.000 A 
ATOM      7  S   UNL     1      49.763   8.236  16.289  0.00  0.00    +0.000 S 
ATOM      8  C   UNL     1      50.592   8.248  14.803  0.00  0.00    +0.000 A 
ATOM      9  N   UNL     1      51.942   8.088  14.752  0.00  0.00    +0.000 NA
ATOM     10  C   UNL     1      52.434   8.076  13.559  0.00  0.00    +0.000 A 
ATOM     11  N   UNL     1      51.699   8.217  12.410  0.00  0.00    +0.000 N 
ATOM     12  C   UNL     1      50.344   8.443  12.415  0.00  0.00    +0.000 A 
ATOM     13  O   UNL     1      49.733   8.673  11.376  0.00  0.00    +0.000 OA
ATOM     14  C   UNL     1      49.735   8.428  13.733  0.00  0.00    +0.000 A 
ATOM     15  H   UNL     1      52.150   8.222  11.506  0.00  0.00    +0.000 HD
ENDBRANCH   2   5
BRANCH   3  16
ATOM     16  C   UNL     1      44.959   7.770  12.687  0.00  0.00    +0.000 C 
BRANCH  16  17
ATOM     17  C   UNL     1      44.757   6.613  11.754  0.00  0.00    +0.000 A 
ATOM     18  C   UNL     1      45.838   5.940  11.181  0.00  0.00    +0.000 A 
ATOM     19  C   UNL     1      45.609   4.878  10.310  0.00  0.00    +0.000 A 
ATOM     20  C   UNL     1      44.301   4.501  10.067  0.00  0.00    +0.000 A 
ATOM     21  N   UNL     1      43.229   5.115  10.612  0.00  0.00    +0.000 NA
ATOM     22  C   UNL     1      43.483   6.156  11.440  0.00  0.00    +0.000 A 
BRANCH  20  23
ATOM     23  O   UNL     1      44.105   3.457   9.184  0.00  0.00    +0.000 OA
BRANCH  23  24
ATOM     24  C   UNL     1      45.055   2.409   9.381  0.00  0.00    +0.000 C 
BRANCH  24  25
ATOM     25  C   UNL     1      45.914   2.288   8.151  0.00  0.00    +0.000 A 
ATOM     26  C   UNL     1      45.976   3.317   7.206  0.00  0.00    +0.000 A 
ATOM     27  C   UNL     1      46.746   3.156   6.059  0.00  0.00    +0.000 A 
ATOM     28  C   UNL     1      47.434   1.964   5.894  0.00  0.00    +0.000 A 
ATOM     29  N   UNL     1      47.401   0.949   6.783  0.00  0.00    +0.000 NA
ATOM     30  C   UNL     1      46.644   1.134   7.890  0.00  0.00    +0.000 A 
ENDBRANCH  24  25
ENDBRANCH  23  24
ENDBRANCH  20  23
ENDBRANCH  16  17
ENDBRANCH   3  16
TORSDOF 6
ENDMDL
MODEL 8
REMARK VINA RESULT:    -6.721      3.548      8.251
REMARK INTER + INTRA:         -10.079
REMARK INTER:                  -9.093
REMARK INTRA:                  -0.986
REMARK UNBOUND:                -1.001
REMARK  Name = 
REMARK  6 active torsions:
REMARK  status: ('A' for Active; 'I' for Inactive)
REMARK    1  A    between atoms: C_2  and  C_19
REMARK    2  A    between atoms: N_3  and  C_4
REMARK    3  A    between atoms: C_4  and  C_5
REMARK    4  A    between atoms: C_8  and  O_9
REMARK    5  A    between atoms: O_9  and  C_10
REMARK    6  A    between atoms: C_10  and  C_11
REMARK                            x       y       z     vdW  Elec       q    Type
REMARK                         _______ _______ _______ _____ _____    ______ ____
ROOT
ATOM      1  O   UNL     1      48.094   6.501  12.114  0.00  0.00    +0.000 OA
ATOM      2  C   UNL     1      47.060   6.662  12.755  0.00  0.00    +0.000 C 
ATOM      3  N   UNL     1      47.046   7.246  13.996  0.00  0.00    +0.000 N 
ATOM      4  H   UNL     1      46.186   7.248  14.534  0.00  0.00    +0.000 HD
ENDROOT
BRANCH   2   5
ATOM      5  C   UNL     1      45.753   6.264  12.215  0.00  0.00    +0.000 A 
ATOM      6  C   UNL     1      44.959   7.199  11.566  0.00  0.00    +0.000 A 
ATOM      7  S   UNL     1      43.476   6.567  11.011  0.00  0.00    +0.000 S 
ATOM      8  C   UNL     1      43.863   5.009  11.579  0.00  0.00    +0.000 A 
ATOM      9  N   UNL     1      43.011   3.965  11.397  0.00  0.00    +0.000 NA
ATOM     10  C   UNL     1      43.449   2.834  11.839  0.00  0.00    +0.000 A 
ATOM     11  N   UNL     1      44.660   2.654  12.455  0.00  0.00    +0.000 N 
ATOM     12  C   UNL     1      45.525   3.689  12.716  0.00  0.00    +0.000 A 
ATOM     13  O   UNL     1      46.552   3.512  13.365  0.00  0.00    +0.000 OA
ATOM     14  C   UNL     1      45.096   4.978  12.205  0.00  0.00    +0.000 A 
ATOM     15  H   UNL     1      44.934   1.745  12.800  0.00  0.00    +0.000 HD
ENDBRANCH   2   5
BRANCH   3  16
ATOM     16  C   UNL     1      48.249   7.619  14.697  0.00  0.00    +0.000 C 
BRANCH  16  17
ATOM     17  C   UNL     1      48.740   6.523  15.597  0.00  0.00    +0.000 A 
ATOM     18  C   UNL     1      47.922   5.449  15.954  0.00  0.00    +0.000 A 
ATOM     19  C   UNL     1      48.410   4.458  16.801  0.00  0.00    +0.000 A 
ATOM     20  C   UNL     1      49.719   4.556  17.236  0.00  0.00    +0.000 A 
ATOM     21  N   UNL     1      50.547   5.570  16.903  0.00  0.00    +0.000 NA
ATOM     22  C   UNL     1      50.037   6.527  16.094  0.00  0.00    +0.000 A 
BRANCH  20  23
ATOM     23  O   UNL     1      50.169   3.568  18.090  0.00  0.00    +0.000 OA
BRANCH  23  24
ATOM     24  C   UNL     1      50.536   2.382  17.385  0.00  0.00    +0.000 C 
BRANCH  24  25
ATOM     25  C   UNL     1      51.916   1.964  17.811  0.00  0.00    +0.000 A 
ATOM     26  C   UNL     1      52.878   2.909  18.181  0.00  0.00    +0.000 A 
ATOM     27  C   UNL     1      54.159   2.492  18.528  0.00  0.00    +0.000 A 
ATOM     28  C   UNL     1      54.437   1.135  18.495  0.00  0.00    +0.000 A 
ATOM     29  N   UNL     1      53.537   0.192  18.146  0.00  0.00    +0.000 NA
ATOM     30  C   UNL     1      52.299   0.627  17.814  0.00  0.00    +0.000 A 
ENDBRANCH  24  25
ENDBRANCH  23  24
ENDBRANCH  20  23
ENDBRANCH  16  17
ENDBRANCH   3  16
TORSDOF 6
ENDMDL
MODEL 9
REMARK VINA RESULT:    -6.462      3.648      7.533
REMARK INTER + INTRA:          -9.729
REMARK INTER:                  -8.369
REMARK INTRA:                  -1.360
REMARK UNBOUND:                -1.001
REMARK  Name = 
REMARK  6 active torsions:
REMARK  status: ('A' for Active; 'I' for Inactive)
REMARK    1  A    between atoms: C_2  and  C_19
REMARK    2  A    between atoms: N_3  and  C_4
REMARK    3  A    between atoms: C_4  and  C_5
REMARK    4  A    between atoms: C_8  and  O_9
REMARK    5  A    between atoms: O_9  and  C_10
REMARK    6  A    between atoms: C_10  and  C_11
REMARK                            x       y       z     vdW  Elec       q    Type
REMARK                         _______ _______ _______ _____ _____    ______ ____
ROOT
ATOM      1  O   UNL     1      47.851   7.299  11.751  0.00  0.00    +0.000 OA
ATOM      2  C   UNL     1      46.847   7.441  12.443  0.00  0.00    +0.000 C 
ATOM      3  N   UNL     1      46.794   8.326  13.489  0.00  0.00    +0.000 N 
ATOM      4  H   UNL     1      45.986   8.322  14.102  0.00  0.00    +0.000 HD
ENDROOT
BRANCH   2   5
ATOM      5  C   UNL     1      45.616   6.688  12.171  0.00  0.00    +0.000 A 
ATOM      6  C   UNL     1      44.528   7.325  11.593  0.00  0.00    +0.000 A 
ATOM      7  S   UNL     1      43.183   6.303  11.358  0.00  0.00    +0.000 S 
ATOM      8  C   UNL     1      44.025   4.960  11.979  0.00  0.00    +0.000 A 
ATOM      9  N   UNL     1      43.442   3.732  12.036  0.00  0.00    +0.000 NA
ATOM     10  C   UNL     1      44.208   2.798  12.490  0.00  0.00    +0.000 A 
ATOM     11  N   UNL     1      45.503   2.981  12.900  0.00  0.00    +0.000 N 
ATOM     12  C   UNL     1      46.112   4.212  12.920  0.00  0.00    +0.000 A 
ATOM     13  O   UNL     1      47.234   4.360  13.395  0.00  0.00    +0.000 OA
ATOM     14  C   UNL     1      45.305   5.293  12.384  0.00  0.00    +0.000 A 
ATOM     15  H   UNL     1      46.042   2.210  13.269  0.00  0.00    +0.000 HD
ENDBRANCH   2   5
BRANCH   3  16
ATOM     16  C   UNL     1      47.938   9.081  13.933  0.00  0.00    +0.000 C 
BRANCH  16  17
ATOM     17  C   UNL     1      48.694   8.373  15.019  0.00  0.00    +0.000 A 
ATOM     18  C   UNL     1      49.823   7.600  14.738  0.00  0.00    +0.000 A 
ATOM     19  C   UNL     1      50.490   6.949  15.772  0.00  0.00    +0.000 A 
ATOM     20  C   UNL     1      50.025   7.122  17.063  0.00  0.00    +0.000 A 
ATOM     21  N   UNL     1      48.948   7.872  17.377  0.00  0.00    +0.000 NA
ATOM     22  C   UNL     1      48.309   8.478  16.349  0.00  0.00    +0.000 A 
BRANCH  20  23
ATOM     23  O   UNL     1      50.696   6.448  18.064  0.00  0.00    +0.000 OA
BRANCH  23  24
ATOM     24  C   UNL     1      49.824   5.596  18.808  0.00  0.00    +0.000 C 
BRANCH  24  25
ATOM     25  C   UNL     1      49.506   4.379  17.983  0.00  0.00    +0.000 A 
ATOM     26  C   UNL     1      48.190   4.071  17.625  0.00  0.00    +0.000 A 
ATOM     27  C   UNL     1      47.924   2.915  16.899  0.00  0.00    +0.000 A 
ATOM     28  C   UNL     1      48.989   2.100  16.552  0.00  0.00    +0.000 A 
ATOM     29  N   UNL     1      50.273   2.363  16.877  0.00  0.00    +0.000 NA
ATOM     30  C   UNL     1      50.501   3.495  17.583  0.00  0.00    +0.000 A 
ENDBRANCH  24  25
ENDBRANCH  23  24
ENDBRANCH  20  23
ENDBRANCH  16  17
ENDBRANCH   3  16
TORSDOF 6
ENDMDL
