MODEL 1
REMARK VINA RESULT:    -8.626      0.000      0.000
REMARK INTER + INTRA:         -11.795
REMARK INTER:                 -11.147
REMARK INTRA:                  -0.648
REMARK UNBOUND:                -0.648
REMARK  Name = 
REMARK  5 active torsions:
REMARK  status: ('A' for Active; 'I' for Inactive)
REMARK    1  A    between atoms: C_7  and  C_8
REMARK    2  A    between atoms: N_10  and  C_11
REMARK    3  A    between atoms: C_11  and  C_12
REMARK    4  A    between atoms: C_15  and  O_16
REMARK    5  A    between atoms: O_16  and  C_17
REMARK                            x       y       z     vdW  Elec       q    Type
REMARK                         _______ _______ _______ _____ _____    ______ ____
ROOT
ATOM      1  C   UNL     1      47.775   7.130  13.636  0.00  0.00    +0.000 C 
ATOM      2  O   UNL     1      48.441   7.523  12.679  0.00  0.00    +0.000 OA
ATOM      3  N   UNL     1      46.401   7.175  13.630  0.00  0.00    +0.000 N 
ATOM      4  H   UNL     1      45.877   6.725  14.377  0.00  0.00    +0.000 HD
ENDROOT
BRANCH   1  11
ATOM      5  N   UNL     1      48.125   2.750  18.722  0.00  0.00    +0.000 N 
ATOM      6  C   UNL     1      48.182   3.684  17.737  0.00  0.00    +0.000 A 
ATOM      7  N   UNL     1      49.089   4.624  17.779  0.00  0.00    +0.000 NA
ATOM      8  C   UNL     1      49.020   5.490  16.738  0.00  0.00    +0.000 A 
ATOM      9  N   UNL     1      49.867   6.544  16.585  0.00  0.00    +0.000 N 
ATOM     10  C   UNL     1      49.517   7.230  15.447  0.00  0.00    +0.000 A 
ATOM     11  C   UNL     1      48.419   6.612  14.850  0.00  0.00    +0.000 A 
ATOM     12  C   UNL     1      48.138   5.485  15.681  0.00  0.00    +0.000 A 
ATOM     13  C   UNL     1      47.174   4.414  15.644  0.00  0.00    +0.000 A 
ATOM     14  O   UNL     1      46.377   4.239  14.728  0.00  0.00    +0.000 OA
ATOM     15  N   UNL     1      47.247   3.574  16.739  0.00  0.00    +0.000 N 
ATOM     16  H   UNL     1      48.669   3.010  19.539  0.00  0.00    +0.000 HD
ATOM     17  H   UNL     1      47.216   2.374  18.954  0.00  0.00    +0.000 HD
ATOM     18  H   UNL     1      50.621   6.775  17.218  0.00  0.00    +0.000 HD
ATOM     19  H   UNL     1      46.610   2.795  16.732  0.00  0.00    +0.000 HD
ENDBRANCH   1  11
BRANCH   3  20
ATOM     20  C   UNL     1      45.665   7.643  12.480  0.00  0.00    +0.000 C 
BRANCH  20  21
ATOM     21  C   UNL     1      45.297   6.510  11.557  0.00  0.00    +0.000 A 
ATOM     22  C   UNL     1      44.203   5.686  11.876  0.00  0.00    +0.000 A 
ATOM     23  C   UNL     1      43.867   4.604  11.062  0.00  0.00    +0.000 A 
ATOM     24  C   UNL     1      44.559   4.369   9.870  0.00  0.00    +0.000 A 
ATOM     25  C   UNL     1      45.661   5.168   9.556  0.00  0.00    +0.000 A 
ATOM     26  C   UNL     1      46.032   6.224  10.401  0.00  0.00    +0.000 A 
BRANCH  24  27
ATOM     27  O   UNL     1      44.248   3.360   8.982  0.00  0.00    +0.000 OA
BRANCH  27  28
ATOM     28  C   UNL     1      45.256   2.768   8.258  0.00  0.00    +0.000 A 
ATOM     29  C   UNL     1      45.911   3.365   7.182  0.00  0.00    +0.000 A 
ATOM     30  C   UNL     1      46.858   2.643   6.462  0.00  0.00    +0.000 A 
ATOM     31  C   UNL     1      47.175   1.368   6.894  0.00  0.00    +0.000 A 
ATOM     32  N   UNL     1      46.621   0.783   7.980  0.00  0.00    +0.000 NA
ATOM     33  C   UNL     1      45.675   1.498   8.638  0.00  0.00    +0.000 A 
ENDBRANCH  27  28
ENDBRANCH  24  27
ENDBRANCH  20  21
ENDBRANCH   3  20
TORSDOF 5
ENDMDL
MODEL 2
REMARK VINA RESULT:    -8.433      1.307      2.014
REMARK INTER + INTRA:         -11.546
REMARK INTER:                 -10.701
REMARK INTRA:                  -0.845
REMARK UNBOUND:                -0.648
REMARK  Name = 
REMARK  5 active torsions:
REMARK  status: ('A' for Active; 'I' for Inactive)
REMARK    1  A    between atoms: C_7  and  C_8
REMARK    2  A    between atoms: N_10  and  C_11
REMARK    3  A    between atoms: C_11  and  C_12
REMARK    4  A    between atoms: C_15  and  O_16
REMARK    5  A    between atoms: O_16  and  C_17
REMARK                            x       y       z     vdW  Elec       q    Type
REMARK                         _______ _______ _______ _____ _____    ______ ____
ROOT
ATOM      1  C   UNL     1      47.327   5.668  14.176  0.00  0.00    +0.000 C 
ATOM      2  O   UNL     1      48.229   6.112  13.466  0.00  0.00    +0.000 OA
ATOM      3  N   UNL     1      46.008   5.985  13.953  0.00  0.00    +0.000 N 
ATOM      4  H   UNL     1      45.278   5.502  14.472  0.00  0.00    +0.000 HD
ENDROOT
BRANCH   1  11
ATOM      5  N   UNL     1      49.978   4.580  20.255  0.00  0.00    +0.000 N 
ATOM      6  C   UNL     1      49.385   4.669  19.036  0.00  0.00    +0.000 A 
ATOM      7  N   UNL     1      48.872   3.604  18.479  0.00  0.00    +0.000 NA
ATOM      8  C   UNL     1      48.324   3.840  17.262  0.00  0.00    +0.000 A 
ATOM      9  N   UNL     1      47.736   2.872  16.506  0.00  0.00    +0.000 N 
ATOM     10  C   UNL     1      47.303   3.433  15.329  0.00  0.00    +0.000 A 
ATOM     11  C   UNL     1      47.618   4.792  15.317  0.00  0.00    +0.000 A 
ATOM     12  C   UNL     1      48.246   5.031  16.577  0.00  0.00    +0.000 A 
ATOM     13  C   UNL     1      48.787   6.195  17.235  0.00  0.00    +0.000 A 
ATOM     14  O   UNL     1      48.723   7.333  16.780  0.00  0.00    +0.000 OA
ATOM     15  N   UNL     1      49.373   5.912  18.454  0.00  0.00    +0.000 N 
ATOM     16  H   UNL     1      50.170   3.621  20.527  0.00  0.00    +0.000 HD
ATOM     17  H   UNL     1      50.748   5.207  20.444  0.00  0.00    +0.000 HD
ATOM     18  H   UNL     1      47.647   1.902  16.778  0.00  0.00    +0.000 HD
ATOM     19  H   UNL     1      49.733   6.704  18.958  0.00  0.00    +0.000 HD
ENDBRANCH   1  11
BRANCH   3  20
ATOM     20  C   UNL     1      45.607   6.818  12.845  0.00  0.00    +0.000 C 
BRANCH  20  21
ATOM     21  C   UNL     1      45.337   6.003  11.606  0.00  0.00    +0.000 A 
ATOM     22  C   UNL     1      44.264   5.095  11.596  0.00  0.00    +0.000 A 
ATOM     23  C   UNL     1      44.018   4.297  10.478  0.00  0.00    +0.000 A 
ATOM     24  C   UNL     1      44.783   4.446   9.317  0.00  0.00    +0.000 A 
ATOM     25  C   UNL     1      45.865   5.329   9.325  0.00  0.00    +0.000 A 
ATOM     26  C   UNL     1      46.145   6.093  10.467  0.00  0.00    +0.000 A 
BRANCH  24  27
ATOM     27  O   UNL     1      44.563   3.741   8.152  0.00  0.00    +0.000 OA
BRANCH  27  28
ATOM     28  C   UNL     1      45.555   2.923   7.663  0.00  0.00    +0.000 A 
ATOM     29  C   UNL     1      46.339   3.214   6.547  0.00  0.00    +0.000 A 
ATOM     30  C   UNL     1      47.258   2.278   6.085  0.00  0.00    +0.000 A 
ATOM     31  C   UNL     1      47.419   1.108   6.806  0.00  0.00    +0.000 A 
ATOM     32  N   UNL     1      46.736   0.824   7.937  0.00  0.00    +0.000 NA
ATOM     33  C   UNL     1      45.821   1.740   8.341  0.00  0.00    +0.000 A 
ENDBRANCH  27  28
ENDBRANCH  24  27
ENDBRANCH  20  21
ENDBRANCH   3  20
TORSDOF 5
ENDMDL
MODEL 3
REMARK VINA RESULT:    -8.159      1.970      3.628
REMARK INTER + INTRA:         -11.192
REMARK INTER:                 -10.104
REMARK INTRA:                  -1.088
REMARK UNBOUND:                -0.648
REMARK  Name = 
REMARK  5 active torsions:
REMARK  status: ('A' for Active; 'I' for Inactive)
REMARK    1  A    between atoms: C_7  and  C_8
REMARK    2  A    between atoms: N_10  and  C_11
REMARK    3  A    between atoms: C_11  and  C_12
REMARK    4  A    between atoms: C_15  and  O_16
REMARK    5  A    between atoms: O_16  and  C_17
REMARK                            x       y       z     vdW  Elec       q    Type
REMARK                         _______ _______ _______ _____ _____    ______ ____
ROOT
ATOM      1  C   UNL     1      46.941   5.361  14.172  0.00  0.00    +0.000 C 
ATOM      2  O   UNL     1      46.916   4.176  14.502  0.00  0.00    +0.000 OA
ATOM      3  N   UNL     1      45.876   5.962  13.545  0.00  0.00    +0.000 N 
ATOM      4  H   UNL     1      45.875   6.969  13.403  0.00  0.00    +0.000 HD
ENDROOT
BRANCH   1  11
ATOM      5  N   UNL     1      51.814   9.456  12.012  0.00  0.00    +0.000 N 
ATOM      6  C   UNL     1      50.874   8.657  12.582  0.00  0.00    +0.000 A 
ATOM      7  N   UNL     1      50.958   8.349  13.849  0.00  0.00    +0.000 NA
ATOM      8  C   UNL     1      49.960   7.538  14.277  0.00  0.00    +0.000 A 
ATOM      9  N   UNL     1      49.855   7.093  15.559  0.00  0.00    +0.000 N 
ATOM     10  C   UNL     1      48.751   6.281  15.656  0.00  0.00    +0.000 A 
ATOM     11  C   UNL     1      48.127   6.192  14.412  0.00  0.00    +0.000 A 
ATOM     12  C   UNL     1      48.905   7.028  13.554  0.00  0.00    +0.000 A 
ATOM     13  C   UNL     1      48.819   7.417  12.168  0.00  0.00    +0.000 A 
ATOM     14  O   UNL     1      47.898   7.101  11.422  0.00  0.00    +0.000 OA
ATOM     15  N   UNL     1      49.873   8.210  11.756  0.00  0.00    +0.000 N 
ATOM     16  H   UNL     1      52.641   9.560  12.591  0.00  0.00    +0.000 HD
ATOM     17  H   UNL     1      52.029   9.297  11.038  0.00  0.00    +0.000 HD
ATOM     18  H   UNL     1      50.497   7.326  16.305  0.00  0.00    +0.000 HD
ATOM     19  H   UNL     1      49.831   8.527  10.803  0.00  0.00    +0.000 HD
ENDBRANCH   1  11
BRANCH   3  20
ATOM     20  C   UNL     1      44.651   5.245  13.283  0.00  0.00    +0.000 C 
BRANCH  20  21
ATOM     21  C   UNL     1      44.629   4.672  11.889  0.00  0.00    +0.000 A 
ATOM     22  C   UNL     1      44.049   3.411  11.669  0.00  0.00    +0.000 A 
ATOM     23  C   UNL     1      44.055   2.837  10.397  0.00  0.00    +0.000 A 
ATOM     24  C   UNL     1      44.560   3.544   9.301  0.00  0.00    +0.000 A 
ATOM     25  C   UNL     1      45.158   4.788   9.514  0.00  0.00    +0.000 A 
ATOM     26  C   UNL     1      45.201   5.342  10.801  0.00  0.00    +0.000 A 
BRANCH  24  27
ATOM     27  O   UNL     1      44.545   3.073   8.005  0.00  0.00    +0.000 OA
BRANCH  27  28
ATOM     28  C   UNL     1      45.725   2.684   7.416  0.00  0.00    +0.000 A 
ATOM     29  C   UNL     1      46.357   3.376   6.384  0.00  0.00    +0.000 A 
ATOM     30  C   UNL     1      47.505   2.849   5.800  0.00  0.00    +0.000 A 
ATOM     31  C   UNL     1      48.027   1.680   6.324  0.00  0.00    +0.000 A 
ATOM     32  N   UNL     1      47.490   1.022   7.375  0.00  0.00    +0.000 NA
ATOM     33  C   UNL     1      46.351   1.541   7.898  0.00  0.00    +0.000 A 
ENDBRANCH  27  28
ENDBRANCH  24  27
ENDBRANCH  20  21
ENDBRANCH   3  20
TORSDOF 5
ENDMDL
MODEL 4
REMARK VINA RESULT:    -7.952      3.501      8.061
REMARK INTER + INTRA:         -10.925
REMARK INTER:                  -9.979
REMARK INTRA:                  -0.946
REMARK UNBOUND:                -0.648
REMARK  Name = 
REMARK  5 active torsions:
REMARK  status: ('A' for Active; 'I' for Inactive)
REMARK    1  A    between atoms: C_7  and  C_8
REMARK    2  A    between atoms: N_10  and  C_11
REMARK    3  A    between atoms: C_11  and  C_12
REMARK    4  A    between atoms: C_15  and  O_16
REMARK    5  A    between atoms: O_16  and  C_17
REMARK                            x       y       z     vdW  Elec       q    Type
REMARK                         _______ _______ _______ _____ _____    ______ ____
ROOT
ATOM      1  C   UNL     1      47.827   6.844  13.486  0.00  0.00    +0.000 C 
ATOM      2  O   UNL     1      48.844   6.351  12.999  0.00  0.00    +0.000 OA
ATOM      3  N   UNL     1      47.886   7.787  14.484  0.00  0.00    +0.000 N 
ATOM      4  H   UNL     1      47.039   8.270  14.774  0.00  0.00    +0.000 HD
ENDROOT
BRANCH   1  11
ATOM      5  N   UNL     1      43.353   2.098  11.864  0.00  0.00    +0.000 N 
ATOM      6  C   UNL     1      44.151   3.152  12.181  0.00  0.00    +0.000 A 
ATOM      7  N   UNL     1      43.720   4.374  12.006  0.00  0.00    +0.000 NA
ATOM      8  C   UNL     1      44.624   5.321  12.354  0.00  0.00    +0.000 A 
ATOM      9  N   UNL     1      44.384   6.658  12.251  0.00  0.00    +0.000 N 
ATOM     10  C   UNL     1      45.503   7.340  12.663  0.00  0.00    +0.000 A 
ATOM     11  C   UNL     1      46.492   6.431  13.038  0.00  0.00    +0.000 A 
ATOM     12  C   UNL     1      45.894   5.147  12.857  0.00  0.00    +0.000 A 
ATOM     13  C   UNL     1      46.325   3.788  13.074  0.00  0.00    +0.000 A 
ATOM     14  O   UNL     1      47.398   3.481  13.584  0.00  0.00    +0.000 OA
ATOM     15  N   UNL     1      45.396   2.848  12.672  0.00  0.00    +0.000 N 
ATOM     16  H   UNL     1      42.557   2.368  11.295  0.00  0.00    +0.000 HD
ATOM     17  H   UNL     1      43.805   1.255  11.539  0.00  0.00    +0.000 HD
ATOM     18  H   UNL     1      43.521   7.065  11.917  0.00  0.00    +0.000 HD
ATOM     19  H   UNL     1      45.648   1.889  12.837  0.00  0.00    +0.000 HD
ENDBRANCH   1  11
BRANCH   3  20
ATOM     20  C   UNL     1      49.146   8.284  14.982  0.00  0.00    +0.000 C 
BRANCH  20  21
ATOM     21  C   UNL     1      49.755   7.344  15.992  0.00  0.00    +0.000 A 
ATOM     22  C   UNL     1      48.969   6.871  17.056  0.00  0.00    +0.000 A 
ATOM     23  C   UNL     1      49.519   6.035  18.029  0.00  0.00    +0.000 A 
ATOM     24  C   UNL     1      50.839   5.586  17.917  0.00  0.00    +0.000 A 
ATOM     25  C   UNL     1      51.633   6.069  16.875  0.00  0.00    +0.000 A 
ATOM     26  C   UNL     1      51.096   6.951  15.926  0.00  0.00    +0.000 A 
BRANCH  24  27
ATOM     27  O   UNL     1      51.435   4.711  18.801  0.00  0.00    +0.000 OA
BRANCH  27  28
ATOM     28  C   UNL     1      51.741   3.437  18.384  0.00  0.00    +0.000 A 
ATOM     29  C   UNL     1      50.931   2.661  17.556  0.00  0.00    +0.000 A 
ATOM     30  C   UNL     1      51.295   1.351  17.264  0.00  0.00    +0.000 A 
ATOM     31  C   UNL     1      52.503   0.884  17.749  0.00  0.00    +0.000 A 
ATOM     32  N   UNL     1      53.354   1.629  18.488  0.00  0.00    +0.000 NA
ATOM     33  C   UNL     1      52.954   2.890  18.787  0.00  0.00    +0.000 A 
ENDBRANCH  27  28
ENDBRANCH  24  27
ENDBRANCH  20  21
ENDBRANCH   3  20
TORSDOF 5
ENDMDL
MODEL 5
REMARK VINA RESULT:    -7.778      3.733      8.318
REMARK INTER + INTRA:         -10.700
REMARK INTER:                  -9.802
REMARK INTRA:                  -0.898
REMARK UNBOUND:                -0.648
REMARK  Name = 
REMARK  5 active torsions:
REMARK  status: ('A' for Active; 'I' for Inactive)
REMARK    1  A    between atoms: C_7  and  C_8
REMARK    2  A    between atoms: N_10  and  C_11
REMARK    3  A    between atoms: C_11  and  C_12
REMARK    4  A    between atoms: C_15  and  O_16
REMARK    5  A    between atoms: O_16  and  C_17
REMARK                            x       y       z     vdW  Elec       q    Type
REMARK                         _______ _______ _______ _____ _____    ______ ____
ROOT
ATOM      1  C   UNL     1      44.001   4.150  10.392  0.00  0.00    +0.000 C 
ATOM      2  O   UNL     1      42.904   3.932  10.906  0.00  0.00    +0.000 OA
ATOM      3  N   UNL     1      44.639   5.359  10.535  0.00  0.00    +0.000 N 
ATOM      4  H   UNL     1      45.598   5.466  10.211  0.00  0.00    +0.000 HD
ENDROOT
BRANCH   1  11
ATOM      5  N   UNL     1      48.329   2.369   5.569  0.00  0.00    +0.000 N 
ATOM      6  C   UNL     1      47.441   2.589   6.574  0.00  0.00    +0.000 A 
ATOM      7  N   UNL     1      46.777   1.589   7.091  0.00  0.00    +0.000 NA
ATOM      8  C   UNL     1      45.921   1.959   8.075  0.00  0.00    +0.000 A 
ATOM      9  N   UNL     1      45.130   1.079   8.748  0.00  0.00    +0.000 N 
ATOM     10  C   UNL     1      44.373   1.774   9.660  0.00  0.00    +0.000 A 
ATOM     11  C   UNL     1      44.675   3.133   9.576  0.00  0.00    +0.000 A 
ATOM     12  C   UNL     1      45.688   3.220   8.574  0.00  0.00    +0.000 A 
ATOM     13  C   UNL     1      46.464   4.297   8.009  0.00  0.00    +0.000 A 
ATOM     14  O   UNL     1      46.417   5.457   8.403  0.00  0.00    +0.000 OA
ATOM     15  N   UNL     1      47.295   3.891   6.982  0.00  0.00    +0.000 N 
ATOM     16  H   UNL     1      48.225   1.449   5.151  0.00  0.00    +0.000 HD
ATOM     17  H   UNL     1      48.449   3.103   4.886  0.00  0.00    +0.000 HD
ATOM     18  H   UNL     1      45.110   0.081   8.586  0.00  0.00    +0.000 HD
ATOM     19  H   UNL     1      47.876   4.609   6.584  0.00  0.00    +0.000 HD
ENDBRANCH   1  11
BRANCH   3  20
ATOM     20  C   UNL     1      44.079   6.421  11.335  0.00  0.00    +0.000 C 
BRANCH  20  21
ATOM     21  C   UNL     1      45.146   7.352  11.852  0.00  0.00    +0.000 A 
ATOM     22  C   UNL     1      46.275   6.818  12.497  0.00  0.00    +0.000 A 
ATOM     23  C   UNL     1      47.256   7.658  13.024  0.00  0.00    +0.000 A 
ATOM     24  C   UNL     1      47.177   9.043  12.844  0.00  0.00    +0.000 A 
ATOM     25  C   UNL     1      46.048   9.583  12.225  0.00  0.00    +0.000 A 
ATOM     26  C   UNL     1      45.035   8.742  11.742  0.00  0.00    +0.000 A 
BRANCH  24  27
ATOM     27  O   UNL     1      48.136   9.934  13.279  0.00  0.00    +0.000 OA
BRANCH  27  28
ATOM     28  C   UNL     1      49.394   9.892  12.726  0.00  0.00    +0.000 A 
ATOM     29  C   UNL     1      49.675  10.147  11.384  0.00  0.00    +0.000 A 
ATOM     30  C   UNL     1      50.973   9.992  10.909  0.00  0.00    +0.000 A 
ATOM     31  C   UNL     1      51.967   9.663  11.814  0.00  0.00    +0.000 A 
ATOM     32  N   UNL     1      51.749   9.486  13.136  0.00  0.00    +0.000 NA
ATOM     33  C   UNL     1      50.467   9.607  13.562  0.00  0.00    +0.000 A 
ENDBRANCH  27  28
ENDBRANCH  24  27
ENDBRANCH  20  21
ENDBRANCH   3  20
TORSDOF 5
ENDMDL
MODEL 6
REMARK VINA RESULT:    -7.696      1.663      2.480
REMARK INTER + INTRA:         -10.594
REMARK INTER:                  -9.793
REMARK INTRA:                  -0.801
REMARK UNBOUND:                -0.648
REMARK  Name = 
REMARK  5 active torsions:
REMARK  status: ('A' for Active; 'I' for Inactive)
REMARK    1  A    between atoms: C_7  and  C_8
REMARK    2  A    between atoms: N_10  and  C_11
REMARK    3  A    between atoms: C_11  and  C_12
REMARK    4  A    between atoms: C_15  and  O_16
REMARK    5  A    between atoms: O_16  and  C_17
REMARK                            x       y       z     vdW  Elec       q    Type
REMARK                         _______ _______ _______ _____ _____    ______ ____
ROOT
ATOM      1  C   UNL     1      46.711   5.292  14.322  0.00  0.00    +0.000 C 
ATOM      2  O   UNL     1      46.472   4.104  14.538  0.00  0.00    +0.000 OA
ATOM      3  N   UNL     1      45.838   6.090  13.623  0.00  0.00    +0.000 N 
ATOM      4  H   UNL     1      45.999   7.093  13.573  0.00  0.00    +0.000 HD
ENDROOT
BRANCH   1  11
ATOM      5  N   UNL     1      51.173   6.697  19.148  0.00  0.00    +0.000 N 
ATOM      6  C   UNL     1      50.364   6.469  18.080  0.00  0.00    +0.000 A 
ATOM      7  N   UNL     1      50.636   7.018  16.926  0.00  0.00    +0.000 NA
ATOM      8  C   UNL     1      49.740   6.712  15.956  0.00  0.00    +0.000 A 
ATOM      9  N   UNL     1      49.830   7.178  14.680  0.00  0.00    +0.000 N 
ATOM     10  C   UNL     1      48.761   6.702  13.960  0.00  0.00    +0.000 A 
ATOM     11  C   UNL     1      47.958   5.913  14.784  0.00  0.00    +0.000 A 
ATOM     12  C   UNL     1      48.622   5.914  16.048  0.00  0.00    +0.000 A 
ATOM     13  C   UNL     1      48.370   5.293  17.325  0.00  0.00    +0.000 A 
ATOM     14  O   UNL     1      47.457   4.501  17.535  0.00  0.00    +0.000 OA
ATOM     15  N   UNL     1      49.279   5.658  18.299  0.00  0.00    +0.000 N 
ATOM     16  H   UNL     1      51.807   7.475  18.999  0.00  0.00    +0.000 HD
ATOM     17  H   UNL     1      50.743   6.705  20.063  0.00  0.00    +0.000 HD
ATOM     18  H   UNL     1      50.565   7.781  14.337  0.00  0.00    +0.000 HD
ATOM     19  H   UNL     1      49.155   5.220  19.196  0.00  0.00    +0.000 HD
ENDBRANCH   1  11
BRANCH   3  20
ATOM     20  C   UNL     1      44.572   5.589  13.145  0.00  0.00    +0.000 C 
BRANCH  20  21
ATOM     21  C   UNL     1      44.653   5.158  11.702  0.00  0.00    +0.000 A 
ATOM     22  C   UNL     1      45.625   5.730  10.864  0.00  0.00    +0.000 A 
ATOM     23  C   UNL     1      45.693   5.382   9.514  0.00  0.00    +0.000 A 
ATOM     24  C   UNL     1      44.852   4.396   8.991  0.00  0.00    +0.000 A 
ATOM     25  C   UNL     1      43.868   3.839   9.811  0.00  0.00    +0.000 A 
ATOM     26  C   UNL     1      43.763   4.227  11.155  0.00  0.00    +0.000 A 
BRANCH  24  27
ATOM     27  O   UNL     1      44.899   3.952   7.686  0.00  0.00    +0.000 OA
BRANCH  27  28
ATOM     28  C   UNL     1      45.873   3.055   7.315  0.00  0.00    +0.000 A 
ATOM     29  C   UNL     1      46.129   1.852   7.971  0.00  0.00    +0.000 A 
ATOM     30  C   UNL     1      47.196   1.057   7.566  0.00  0.00    +0.000 A 
ATOM     31  C   UNL     1      47.927   1.457   6.461  0.00  0.00    +0.000 A 
ATOM     32  N   UNL     1      47.662   2.575   5.750  0.00  0.00    +0.000 NA
ATOM     33  C   UNL     1      46.639   3.347   6.193  0.00  0.00    +0.000 A 
ENDBRANCH  27  28
ENDBRANCH  24  27
ENDBRANCH  20  21
ENDBRANCH   3  20
TORSDOF 5
ENDMDL
MODEL 7
REMARK VINA RESULT:    -7.635      2.277      8.646
REMARK INTER + INTRA:         -10.515
REMARK INTER:                  -9.683
REMARK INTRA:                  -0.831
REMARK UNBOUND:                -0.648
REMARK  Name = 
REMARK  5 active torsions:
REMARK  status: ('A' for Active; 'I' for Inactive)
REMARK    1  A    between atoms: C_7  and  C_8
REMARK    2  A    between atoms: N_10  and  C_11
REMARK    3  A    between atoms: C_11  and  C_12
REMARK    4  A    between atoms: C_15  and  O_16
REMARK    5  A    between atoms: O_16  and  C_17
REMARK                            x       y       z     vdW  Elec       q    Type
REMARK                         _______ _______ _______ _____ _____    ______ ____
ROOT
ATOM      1  C   UNL     1      44.161   4.284  10.521  0.00  0.00    +0.000 C 
ATOM      2  O   UNL     1      43.019   4.179  10.968  0.00  0.00    +0.000 OA
ATOM      3  N   UNL     1      44.947   5.379  10.791  0.00  0.00    +0.000 N 
ATOM      4  H   UNL     1      45.927   5.378  10.518  0.00  0.00    +0.000 HD
ENDROOT
BRANCH   1  11
ATOM      5  N   UNL     1      48.069   2.382   5.394  0.00  0.00    +0.000 N 
ATOM      6  C   UNL     1      47.263   2.627   6.461  0.00  0.00    +0.000 A 
ATOM      7  N   UNL     1      46.599   1.649   7.017  0.00  0.00    +0.000 NA
ATOM      8  C   UNL     1      45.829   2.042   8.061  0.00  0.00    +0.000 A 
ATOM      9  N   UNL     1      45.054   1.186   8.783  0.00  0.00    +0.000 N 
ATOM     10  C   UNL     1      44.390   1.901   9.750  0.00  0.00    +0.000 A 
ATOM     11  C   UNL     1      44.737   3.249   9.654  0.00  0.00    +0.000 A 
ATOM     12  C   UNL     1      45.680   3.307   8.584  0.00  0.00    +0.000 A 
ATOM     13  C   UNL     1      46.455   4.358   7.972  0.00  0.00    +0.000 A 
ATOM     14  O   UNL     1      46.481   5.515   8.375  0.00  0.00    +0.000 OA
ATOM     15  N   UNL     1      47.196   3.930   6.887  0.00  0.00    +0.000 N 
ATOM     16  H   UNL     1      47.901   1.471   4.979  0.00  0.00    +0.000 HD
ATOM     17  H   UNL     1      48.170   3.118   4.709  0.00  0.00    +0.000 HD
ATOM     18  H   UNL     1      44.984   0.191   8.616  0.00  0.00    +0.000 HD
ATOM     19  H   UNL     1      47.775   4.628   6.453  0.00  0.00    +0.000 HD
ENDBRANCH   1  11
BRANCH   3  20
ATOM     20  C   UNL     1      44.490   6.444  11.651  0.00  0.00    +0.000 C 
BRANCH  20  21
ATOM     21  C   UNL     1      45.615   7.014  12.476  0.00  0.00    +0.000 A 
ATOM     22  C   UNL     1      46.677   6.180  12.867  0.00  0.00    +0.000 A 
ATOM     23  C   UNL     1      47.709   6.671  13.668  0.00  0.00    +0.000 A 
ATOM     24  C   UNL     1      47.750   8.022  14.025  0.00  0.00    +0.000 A 
ATOM     25  C   UNL     1      46.688   8.853  13.660  0.00  0.00    +0.000 A 
ATOM     26  C   UNL     1      45.623   8.348  12.900  0.00  0.00    +0.000 A 
BRANCH  24  27
ATOM     27  O   UNL     1      48.767   8.596  14.760  0.00  0.00    +0.000 OA
BRANCH  27  28
ATOM     28  C   UNL     1      49.409   7.849  15.718  0.00  0.00    +0.000 A 
ATOM     29  C   UNL     1      50.658   7.252  15.547  0.00  0.00    +0.000 A 
ATOM     30  C   UNL     1      51.180   6.444  16.552  0.00  0.00    +0.000 A 
ATOM     31  C   UNL     1      50.468   6.322  17.731  0.00  0.00    +0.000 A 
ATOM     32  N   UNL     1      49.293   6.948  17.966  0.00  0.00    +0.000 NA
ATOM     33  C   UNL     1      48.792   7.699  16.954  0.00  0.00    +0.000 A 
ENDBRANCH  27  28
ENDBRANCH  24  27
ENDBRANCH  20  21
ENDBRANCH   3  20
TORSDOF 5
ENDMDL
MODEL 8
REMARK VINA RESULT:    -7.504      2.415      3.265
REMARK INTER + INTRA:         -10.346
REMARK INTER:                  -9.608
REMARK INTRA:                  -0.738
REMARK UNBOUND:                -0.648
REMARK  Name = 
REMARK  5 active torsions:
REMARK  status: ('A' for Active; 'I' for Inactive)
REMARK    1  A    between atoms: C_7  and  C_8
REMARK    2  A    between atoms: N_10  and  C_11
REMARK    3  A    between atoms: C_11  and  C_12
REMARK    4  A    between atoms: C_15  and  O_16
REMARK    5  A    between atoms: O_16  and  C_17
REMARK                            x       y       z     vdW  Elec       q    Type
REMARK                         _______ _______ _______ _____ _____    ______ ____
ROOT
ATOM      1  C   UNL     1      49.317   6.310  16.501  0.00  0.00    +0.000 C 
ATOM      2  O   UNL     1      48.529   6.850  17.277  0.00  0.00    +0.000 OA
ATOM      3  N   UNL     1      49.232   6.488  15.141  0.00  0.00    +0.000 N 
ATOM      4  H   UNL     1      49.971   6.136  14.538  0.00  0.00    +0.000 HD
ENDROOT
BRANCH   1  11
ATOM      5  N   UNL     1      51.668   0.204  18.041  0.00  0.00    +0.000 N 
ATOM      6  C   UNL     1      51.326   1.487  17.752  0.00  0.00    +0.000 A 
ATOM      7  N   UNL     1      52.150   2.463  18.032  0.00  0.00    +0.000 NA
ATOM      8  C   UNL     1      51.672   3.687  17.700  0.00  0.00    +0.000 A 
ATOM      9  N   UNL     1      52.364   4.841  17.905  0.00  0.00    +0.000 N 
ATOM     10  C   UNL     1      51.597   5.898  17.480  0.00  0.00    +0.000 A 
ATOM     11  C   UNL     1      50.379   5.423  16.992  0.00  0.00    +0.000 A 
ATOM     12  C   UNL     1      50.465   4.004  17.119  0.00  0.00    +0.000 A 
ATOM     13  C   UNL     1      49.594   2.902  16.788  0.00  0.00    +0.000 A 
ATOM     14  O   UNL     1      48.524   3.026  16.202  0.00  0.00    +0.000 OA
ATOM     15  N   UNL     1      50.094   1.674  17.176  0.00  0.00    +0.000 N 
ATOM     16  H   UNL     1      52.464   0.144  18.668  0.00  0.00    +0.000 HD
ATOM     17  H   UNL     1      50.922  -0.433  18.283  0.00  0.00    +0.000 HD
ATOM     18  H   UNL     1      53.289   4.894  18.311  0.00  0.00    +0.000 HD
ATOM     19  H   UNL     1      49.530   0.878  16.934  0.00  0.00    +0.000 HD
ENDBRANCH   1  11
BRANCH   3  20
ATOM     20  C   UNL     1      48.241   7.357  14.553  0.00  0.00    +0.000 C 
BRANCH  20  21
ATOM     21  C   UNL     1      47.263   6.590  13.700  0.00  0.00    +0.000 A 
ATOM     22  C   UNL     1      46.500   7.274  12.738  0.00  0.00    +0.000 A 
ATOM     23  C   UNL     1      45.556   6.596  11.966  0.00  0.00    +0.000 A 
ATOM     24  C   UNL     1      45.412   5.209  12.075  0.00  0.00    +0.000 A 
ATOM     25  C   UNL     1      46.150   4.525  13.044  0.00  0.00    +0.000 A 
ATOM     26  C   UNL     1      47.061   5.214  13.858  0.00  0.00    +0.000 A 
BRANCH  24  27
ATOM     27  O   UNL     1      44.548   4.459  11.305  0.00  0.00    +0.000 OA
BRANCH  27  28
ATOM     28  C   UNL     1      44.993   3.928  10.117  0.00  0.00    +0.000 A 
ATOM     29  C   UNL     1      45.001   2.567   9.815  0.00  0.00    +0.000 A 
ATOM     30  C   UNL     1      45.554   2.129   8.616  0.00  0.00    +0.000 A 
ATOM     31  C   UNL     1      46.012   3.079   7.721  0.00  0.00    +0.000 A 
ATOM     32  N   UNL     1      45.950   4.411   7.942  0.00  0.00    +0.000 NA
ATOM     33  C   UNL     1      45.440   4.805   9.135  0.00  0.00    +0.000 A 
ENDBRANCH  27  28
ENDBRANCH  24  27
ENDBRANCH  20  21
ENDBRANCH   3  20
TORSDOF 5
ENDMDL
MODEL 9
REMARK VINA RESULT:    -7.130      1.801      2.643
REMARK INTER + INTRA:          -9.862
REMARK INTER:                  -9.010
REMARK INTRA:                  -0.852
REMARK UNBOUND:                -0.648
REMARK  Name = 
REMARK  5 active torsions:
REMARK  status: ('A' for Active; 'I' for Inactive)
REMARK    1  A    between atoms: C_7  and  C_8
REMARK    2  A    between atoms: N_10  and  C_11
REMARK    3  A    between atoms: C_11  and  C_12
REMARK    4  A    between atoms: C_15  and  O_16
REMARK    5  A    between atoms: O_16  and  C_17
REMARK                            x       y       z     vdW  Elec       q    Type
REMARK                         _______ _______ _______ _____ _____    ______ ____
ROOT
ATOM      1  C   UNL     1      49.865   7.549  15.048  0.00  0.00    +0.000 C 
ATOM      2  O   UNL     1      50.770   7.797  14.251  0.00  0.00    +0.000 OA
ATOM      3  N   UNL     1      48.572   7.958  14.826  0.00  0.00    +0.000 N 
ATOM      4  H   UNL     1      47.826   7.628  15.434  0.00  0.00    +0.000 HD
ENDROOT
BRANCH   1  11
ATOM      5  N   UNL     1      48.276   2.864  19.598  0.00  0.00    +0.000 N 
ATOM      6  C   UNL     1      48.721   3.828  18.749  0.00  0.00    +0.000 A 
ATOM      7  N   UNL     1      49.771   4.541  19.061  0.00  0.00    +0.000 NA
ATOM      8  C   UNL     1      50.092   5.469  18.128  0.00  0.00    +0.000 A 
ATOM      9  N   UNL     1      51.148   6.320  18.251  0.00  0.00    +0.000 N 
ATOM     10  C   UNL     1      51.184   7.142  17.150  0.00  0.00    +0.000 A 
ATOM     11  C   UNL     1      50.129   6.821  16.295  0.00  0.00    +0.000 A 
ATOM     12  C   UNL     1      49.463   5.730  16.931  0.00  0.00    +0.000 A 
ATOM     13  C   UNL     1      48.331   4.901  16.598  0.00  0.00    +0.000 A 
ATOM     14  O   UNL     1      47.720   4.968  15.537  0.00  0.00    +0.000 OA
ATOM     15  N   UNL     1      48.007   3.994  17.588  0.00  0.00    +0.000 N 
ATOM     16  H   UNL     1      48.683   2.942  20.525  0.00  0.00    +0.000 HD
ATOM     17  H   UNL     1      47.283   2.682  19.614  0.00  0.00    +0.000 HD
ATOM     18  H   UNL     1      51.787   6.336  19.034  0.00  0.00    +0.000 HD
ATOM     19  H   UNL     1      47.242   3.376  17.379  0.00  0.00    +0.000 HD
ENDBRANCH   1  11
BRANCH   3  20
ATOM     20  C   UNL     1      48.196   8.658  13.622  0.00  0.00    +0.000 C 
BRANCH  20  21
ATOM     21  C   UNL     1      47.101   7.938  12.878  0.00  0.00    +0.000 A 
ATOM     22  C   UNL     1      47.417   6.802  12.113  0.00  0.00    +0.000 A 
ATOM     23  C   UNL     1      46.431   6.142  11.378  0.00  0.00    +0.000 A 
ATOM     24  C   UNL     1      45.095   6.549  11.458  0.00  0.00    +0.000 A 
ATOM     25  C   UNL     1      44.775   7.690  12.197  0.00  0.00    +0.000 A 
ATOM     26  C   UNL     1      45.775   8.385  12.892  0.00  0.00    +0.000 A 
BRANCH  24  27
ATOM     27  O   UNL     1      44.055   5.912  10.813  0.00  0.00    +0.000 OA
BRANCH  27  28
ATOM     28  C   UNL     1      44.276   4.690  10.223  0.00  0.00    +0.000 A 
ATOM     29  C   UNL     1      44.910   4.511   8.994  0.00  0.00    +0.000 A 
ATOM     30  C   UNL     1      45.006   3.236   8.446  0.00  0.00    +0.000 A 
ATOM     31  C   UNL     1      44.531   2.168   9.186  0.00  0.00    +0.000 A 
ATOM     32  N   UNL     1      43.983   2.291  10.415  0.00  0.00    +0.000 NA
ATOM     33  C   UNL     1      43.869   3.550  10.906  0.00  0.00    +0.000 A 
ENDBRANCH  27  28
ENDBRANCH  24  27
ENDBRANCH  20  21
ENDBRANCH   3  20
TORSDOF 5
ENDMDL
