MODEL 1
REMARK VINA RESULT:    -7.821      0.000      0.000
REMARK INTER + INTRA:         -12.772
REMARK INTER:                 -11.478
REMARK INTRA:                  -1.294
REMARK UNBOUND:                -1.294
REMARK  Name = 
REMARK  9 active torsions:
REMARK  status: ('A' for Active; 'I' for Inactive)
REMARK    1  A    between atoms: C_1  and  O_2
REMARK    2  A    between atoms: O_2  and  C_3
REMARK    3  A    between atoms: C_10  and  C_11
REMARK    4  A    between atoms: N_13  and  C_14
REMARK    5  A    between atoms: C_14  and  C_15
REMARK    6  A    between atoms: C_18  and  C_19
REMARK    7  A    between atoms: C_19  and  N_20
REMARK    8  A    between atoms: N_20  and  C_21
REMARK    9  A    between atoms: C_21  and  C_22
REMARK                            x       y       z     vdW  Elec       q    Type
REMARK                         _______ _______ _______ _____ _____    ______ ____
ROOT
ATOM      1  C   UNL     1      47.915   6.938  13.171  0.00  0.00    +0.000 C 
ENDROOT
BRANCH   1   2
ATOM      2  C   UNL     1      46.722   6.195  12.626  0.00  0.00    +0.000 A 
ATOM      3  C   UNL     1      46.202   5.089  13.309  0.00  0.00    +0.000 A 
ATOM      4  C   UNL     1      45.134   4.360  12.776  0.00  0.00    +0.000 A 
ATOM      5  C   UNL     1      44.566   4.716  11.544  0.00  0.00    +0.000 A 
ATOM      6  C   UNL     1      45.076   5.834  10.870  0.00  0.00    +0.000 A 
ATOM      7  C   UNL     1      46.146   6.563  11.404  0.00  0.00    +0.000 A 
BRANCH   5   8
ATOM      8  C   UNL     1      43.468   3.875  10.929  0.00  0.00    +0.000 C 
BRANCH   8   9
ATOM      9  N   UNL     1      43.786   3.471   9.560  0.00  0.00    +0.000 NA
ATOM     10  H   UNL     1      44.245   4.246   9.083  0.00  0.00    +0.000 HD
BRANCH   9  11
ATOM     11  C   UNL     1      44.675   2.309   9.551  0.00  0.00    +0.000 C 
BRANCH  11  12
ATOM     12  C   UNL     1      45.667   2.389   8.417  0.00  0.00    +0.000 A 
ATOM     13  C   UNL     1      46.397   1.269   8.014  0.00  0.00    +0.000 A 
ATOM     14  C   UNL     1      47.291   1.399   6.960  0.00  0.00    +0.000 A 
ATOM     15  N   UNL     1      47.501   2.550   6.289  0.00  0.00    +0.000 NA
ATOM     16  C   UNL     1      46.786   3.622   6.691  0.00  0.00    +0.000 A 
ATOM     17  C   UNL     1      45.868   3.591   7.729  0.00  0.00    +0.000 A 
ENDBRANCH  11  12
ENDBRANCH   9  11
ENDBRANCH   8   9
ENDBRANCH   5   8
ENDBRANCH   1   2
BRANCH   1  20
ATOM     18  C   UNL     1      49.061   7.020  15.339  0.00  0.00    +0.000 C 
ATOM     19  O   UNL     1      50.155   7.016  14.777  0.00  0.00    +0.000 OA
ATOM     20  N   UNL     1      47.900   6.973  14.616  0.00  0.00    +0.000 N 
ATOM     21  H   UNL     1      47.002   6.998  15.081  0.00  0.00    +0.000 HD
BRANCH  18  29
ATOM     22  C   UNL     1      48.911   4.637  17.831  0.00  0.00    +0.000 A 
ATOM     23  N   UNL     1      48.793   3.936  18.978  0.00  0.00    +0.000 NA
ATOM     24  C   UNL     1      48.679   4.616  20.122  0.00  0.00    +0.000 A 
ATOM     25  N   UNL     1      48.676   5.938  20.269  0.00  0.00    +0.000 NA
ATOM     26  C   UNL     1      48.782   6.596  19.102  0.00  0.00    +0.000 A 
ATOM     27  S   UNL     1      48.801   8.293  19.101  0.00  0.00    +0.000 S 
ATOM     28  C   UNL     1      48.932   8.338  17.408  0.00  0.00    +0.000 A 
ATOM     29  C   UNL     1      48.963   7.084  16.809  0.00  0.00    +0.000 A 
ATOM     30  C   UNL     1      48.889   6.040  17.830  0.00  0.00    +0.000 A 
BRANCH  22  32
ATOM     31  C   UNL     1      47.804   3.324  16.251  0.00  0.00    +0.000 C 
ATOM     32  O   UNL     1      49.030   3.931  16.651  0.00  0.00    +0.000 OA
ENDBRANCH  22  32
ENDBRANCH  18  29
ENDBRANCH   1  20
TORSDOF 8
ENDMDL
MODEL 2
REMARK VINA RESULT:    -7.675      1.773      2.886
REMARK INTER + INTRA:         -12.558
REMARK INTER:                 -11.322
REMARK INTRA:                  -1.236
REMARK UNBOUND:                -1.294
REMARK  Name = 
REMARK  9 active torsions:
REMARK  status: ('A' for Active; 'I' for Inactive)
REMARK    1  A    between atoms: C_1  and  O_2
REMARK    2  A    between atoms: O_2  and  C_3
REMARK    3  A    between atoms: C_10  and  C_11
REMARK    4  A    between atoms: N_13  and  C_14
REMARK    5  A    between atoms: C_14  and  C_15
REMARK    6  A    between atoms: C_18  and  C_19
REMARK    7  A    between atoms: C_19  and  N_20
REMARK    8  A    between atoms: N_20  and  C_21
REMARK    9  A    between atoms: C_21  and  C_22
REMARK                            x       y       z     vdW  Elec       q    Type
REMARK                         _______ _______ _______ _____ _____    ______ ____
ROOT
ATOM      1  C   UNL     1      48.550   6.986  13.918  0.00  0.00    +0.000 C 
ENDROOT
BRANCH   1   2
ATOM      2  C   UNL     1      47.489   6.293  13.103  0.00  0.00    +0.000 A 
ATOM      3  C   UNL     1      47.100   6.806  11.859  0.00  0.00    +0.000 A 
ATOM      4  C   UNL     1      46.072   6.200  11.129  0.00  0.00    +0.000 A 
ATOM      5  C   UNL     1      45.406   5.071  11.627  0.00  0.00    +0.000 A 
ATOM      6  C   UNL     1      45.808   4.548  12.863  0.00  0.00    +0.000 A 
ATOM      7  C   UNL     1      46.836   5.155  13.595  0.00  0.00    +0.000 A 
BRANCH   5   8
ATOM      8  C   UNL     1      44.239   4.471  10.874  0.00  0.00    +0.000 C 
BRANCH   8   9
ATOM      9  N   UNL     1      44.633   3.303  10.087  0.00  0.00    +0.000 NA
ATOM     10  H   UNL     1      43.921   2.580  10.185  0.00  0.00    +0.000 HD
BRANCH   9  11
ATOM     11  C   UNL     1      44.773   3.649   8.673  0.00  0.00    +0.000 C 
BRANCH  11  12
ATOM     12  C   UNL     1      45.859   2.834   8.015  0.00  0.00    +0.000 A 
ATOM     13  C   UNL     1      45.969   1.460   8.242  0.00  0.00    +0.000 A 
ATOM     14  C   UNL     1      46.983   0.759   7.605  0.00  0.00    +0.000 A 
ATOM     15  N   UNL     1      47.879   1.324   6.769  0.00  0.00    +0.000 NA
ATOM     16  C   UNL     1      47.757   2.651   6.561  0.00  0.00    +0.000 A 
ATOM     17  C   UNL     1      46.776   3.437   7.147  0.00  0.00    +0.000 A 
ENDBRANCH  11  12
ENDBRANCH   9  11
ENDBRANCH   8   9
ENDBRANCH   5   8
ENDBRANCH   1   2
BRANCH   1  20
ATOM     18  C   UNL     1      48.985   6.508  16.285  0.00  0.00    +0.000 C 
ATOM     19  O   UNL     1      50.033   5.936  15.993  0.00  0.00    +0.000 OA
ATOM     20  N   UNL     1      48.184   7.048  15.316  0.00  0.00    +0.000 N 
ATOM     21  H   UNL     1      47.334   7.537  15.563  0.00  0.00    +0.000 HD
BRANCH  18  29
ATOM     22  C   UNL     1      47.747   9.117  18.178  0.00  0.00    +0.000 A 
ATOM     23  N   UNL     1      47.301   9.949  19.142  0.00  0.00    +0.000 NA
ATOM     24  C   UNL     1      47.130   9.454  20.371  0.00  0.00    +0.000 A 
ATOM     25  N   UNL     1      47.345   8.203  20.765  0.00  0.00    +0.000 NA
ATOM     26  C   UNL     1      47.800   7.412  19.779  0.00  0.00    +0.000 A 
ATOM     27  S   UNL     1      48.125   5.778  20.103  0.00  0.00    +0.000 S 
ATOM     28  C   UNL     1      48.623   5.510  18.501  0.00  0.00    +0.000 A 
ATOM     29  C   UNL     1      48.558   6.639  17.691  0.00  0.00    +0.000 A 
ATOM     30  C   UNL     1      48.049   7.775  18.457  0.00  0.00    +0.000 A 
BRANCH  22  32
ATOM     31  C   UNL     1      48.984  10.578  16.844  0.00  0.00    +0.000 C 
ATOM     32  O   UNL     1      47.921   9.630  16.910  0.00  0.00    +0.000 OA
ENDBRANCH  22  32
ENDBRANCH  18  29
ENDBRANCH   1  20
TORSDOF 8
ENDMDL
MODEL 3
REMARK VINA RESULT:    -7.632      1.881      3.491
REMARK INTER + INTRA:         -12.495
REMARK INTER:                 -11.061
REMARK INTRA:                  -1.434
REMARK UNBOUND:                -1.294
REMARK  Name = 
REMARK  9 active torsions:
REMARK  status: ('A' for Active; 'I' for Inactive)
REMARK    1  A    between atoms: C_1  and  O_2
REMARK    2  A    between atoms: O_2  and  C_3
REMARK    3  A    between atoms: C_10  and  C_11
REMARK    4  A    between atoms: N_13  and  C_14
REMARK    5  A    between atoms: C_14  and  C_15
REMARK    6  A    between atoms: C_18  and  C_19
REMARK    7  A    between atoms: C_19  and  N_20
REMARK    8  A    between atoms: N_20  and  C_21
REMARK    9  A    between atoms: C_21  and  C_22
REMARK                            x       y       z     vdW  Elec       q    Type
REMARK                         _______ _______ _______ _____ _____    ______ ____
ROOT
ATOM      1  C   UNL     1      47.200   4.360  14.811  0.00  0.00    +0.000 C 
ENDROOT
BRANCH   1   2
ATOM      2  C   UNL     1      46.363   4.398  13.558  0.00  0.00    +0.000 A 
ATOM      3  C   UNL     1      45.939   5.621  13.024  0.00  0.00    +0.000 A 
ATOM      4  C   UNL     1      45.111   5.657  11.897  0.00  0.00    +0.000 A 
ATOM      5  C   UNL     1      44.683   4.471  11.282  0.00  0.00    +0.000 A 
ATOM      6  C   UNL     1      45.123   3.249  11.807  0.00  0.00    +0.000 A 
ATOM      7  C   UNL     1      45.951   3.212  12.936  0.00  0.00    +0.000 A 
BRANCH   5   8
ATOM      8  C   UNL     1      43.719   4.512  10.116  0.00  0.00    +0.000 C 
BRANCH   8   9
ATOM      9  N   UNL     1      44.136   3.631   9.026  0.00  0.00    +0.000 NA
ATOM     10  H   UNL     1      43.361   3.520   8.374  0.00  0.00    +0.000 HD
BRANCH   9  11
ATOM     11  C   UNL     1      45.286   4.187   8.314  0.00  0.00    +0.000 C 
BRANCH  11  12
ATOM     12  C   UNL     1      46.129   3.096   7.701  0.00  0.00    +0.000 A 
ATOM     13  C   UNL     1      46.139   1.805   8.233  0.00  0.00    +0.000 A 
ATOM     14  C   UNL     1      46.928   0.839   7.623  0.00  0.00    +0.000 A 
ATOM     15  N   UNL     1      47.692   1.068   6.535  0.00  0.00    +0.000 NA
ATOM     16  C   UNL     1      47.668   2.321   6.034  0.00  0.00    +0.000 A 
ATOM     17  C   UNL     1      46.912   3.352   6.569  0.00  0.00    +0.000 A 
ENDBRANCH  11  12
ENDBRANCH   9  11
ENDBRANCH   8   9
ENDBRANCH   5   8
ENDBRANCH   1   2
BRANCH   1  20
ATOM     18  C   UNL     1      48.574   5.913  16.123  0.00  0.00    +0.000 C 
ATOM     19  O   UNL     1      49.249   4.979  16.551  0.00  0.00    +0.000 OA
ATOM     20  N   UNL     1      47.531   5.693  15.264  0.00  0.00    +0.000 N 
ATOM     21  H   UNL     1      46.993   6.467  14.897  0.00  0.00    +0.000 HD
BRANCH  18  29
ATOM     22  C   UNL     1      48.835   8.886  14.387  0.00  0.00    +0.000 A 
ATOM     23  N   UNL     1      49.039  10.151  13.965  0.00  0.00    +0.000 NA
ATOM     24  C   UNL     1      49.362  11.074  14.875  0.00  0.00    +0.000 A 
ATOM     25  N   UNL     1      49.502  10.889  16.185  0.00  0.00    +0.000 NA
ATOM     26  C   UNL     1      49.303   9.614  16.560  0.00  0.00    +0.000 A 
ATOM     27  S   UNL     1      49.436   9.198  18.200  0.00  0.00    +0.000 S 
ATOM     28  C   UNL     1      49.089   7.569  17.863  0.00  0.00    +0.000 A 
ATOM     29  C   UNL     1      48.868   7.304  16.516  0.00  0.00    +0.000 A 
ATOM     30  C   UNL     1      48.982   8.536  15.739  0.00  0.00    +0.000 A 
BRANCH  22  32
ATOM     31  C   UNL     1      49.539   7.720  12.492  0.00  0.00    +0.000 C 
ATOM     32  O   UNL     1      48.501   7.935  13.445  0.00  0.00    +0.000 OA
ENDBRANCH  22  32
ENDBRANCH  18  29
ENDBRANCH   1  20
TORSDOF 8
ENDMDL
MODEL 4
REMARK VINA RESULT:    -7.627      1.618      3.130
REMARK INTER + INTRA:         -12.488
REMARK INTER:                 -11.188
REMARK INTRA:                  -1.300
REMARK UNBOUND:                -1.294
REMARK  Name = 
REMARK  9 active torsions:
REMARK  status: ('A' for Active; 'I' for Inactive)
REMARK    1  A    between atoms: C_1  and  O_2
REMARK    2  A    between atoms: O_2  and  C_3
REMARK    3  A    between atoms: C_10  and  C_11
REMARK    4  A    between atoms: N_13  and  C_14
REMARK    5  A    between atoms: C_14  and  C_15
REMARK    6  A    between atoms: C_18  and  C_19
REMARK    7  A    between atoms: C_19  and  N_20
REMARK    8  A    between atoms: N_20  and  C_21
REMARK    9  A    between atoms: C_21  and  C_22
REMARK                            x       y       z     vdW  Elec       q    Type
REMARK                         _______ _______ _______ _____ _____    ______ ____
ROOT
ATOM      1  C   UNL     1      47.427   3.861  15.169  0.00  0.00    +0.000 C 
ENDROOT
BRANCH   1   2
ATOM      2  C   UNL     1      46.762   4.204  13.861  0.00  0.00    +0.000 A 
ATOM      3  C   UNL     1      46.843   5.502  13.341  0.00  0.00    +0.000 A 
ATOM      4  C   UNL     1      46.177   5.838  12.158  0.00  0.00    +0.000 A 
ATOM      5  C   UNL     1      45.409   4.887  11.471  0.00  0.00    +0.000 A 
ATOM      6  C   UNL     1      45.343   3.584  11.983  0.00  0.00    +0.000 A 
ATOM      7  C   UNL     1      46.010   3.247  13.167  0.00  0.00    +0.000 A 
BRANCH   5   8
ATOM      8  C   UNL     1      44.620   5.276  10.240  0.00  0.00    +0.000 C 
BRANCH   8   9
ATOM      9  N   UNL     1      45.344   4.978   9.005  0.00  0.00    +0.000 NA
ATOM     10  H   UNL     1      46.316   4.769   9.232  0.00  0.00    +0.000 HD
BRANCH   9  11
ATOM     11  C   UNL     1      44.755   3.828   8.318  0.00  0.00    +0.000 C 
BRANCH  11  12
ATOM     12  C   UNL     1      45.823   2.912   7.773  0.00  0.00    +0.000 A 
ATOM     13  C   UNL     1      46.716   3.345   6.790  0.00  0.00    +0.000 A 
ATOM     14  C   UNL     1      47.682   2.462   6.331  0.00  0.00    +0.000 A 
ATOM     15  N   UNL     1      47.819   1.196   6.779  0.00  0.00    +0.000 NA
ATOM     16  C   UNL     1      46.949   0.795   7.729  0.00  0.00    +0.000 A 
ATOM     17  C   UNL     1      45.952   1.604   8.254  0.00  0.00    +0.000 A 
ENDBRANCH  11  12
ENDBRANCH   9  11
ENDBRANCH   8   9
ENDBRANCH   5   8
ENDBRANCH   1   2
BRANCH   1  20
ATOM     18  C   UNL     1      48.613   5.219  16.834  0.00  0.00    +0.000 C 
ATOM     19  O   UNL     1      49.536   4.407  16.861  0.00  0.00    +0.000 OA
ATOM     20  N   UNL     1      47.523   5.019  16.030  0.00  0.00    +0.000 N 
ATOM     21  H   UNL     1      46.777   5.700  15.995  0.00  0.00    +0.000 HD
BRANCH  18  29
ATOM     22  C   UNL     1      48.642   8.596  16.118  0.00  0.00    +0.000 A 
ATOM     23  N   UNL     1      48.707   9.944  16.126  0.00  0.00    +0.000 NA
ATOM     24  C   UNL     1      48.780  10.563  17.307  0.00  0.00    +0.000 A 
ATOM     25  N   UNL     1      48.788   9.993  18.509  0.00  0.00    +0.000 NA
ATOM     26  C   UNL     1      48.735   8.652  18.454  0.00  0.00    +0.000 A 
ATOM     27  S   UNL     1      48.730   7.758  19.897  0.00  0.00    +0.000 S 
ATOM     28  C   UNL     1      48.669   6.291  19.044  0.00  0.00    +0.000 A 
ATOM     29  C   UNL     1      48.651   6.439  17.661  0.00  0.00    +0.000 A 
ATOM     30  C   UNL     1      48.675   7.858  17.311  0.00  0.00    +0.000 A 
BRANCH  22  32
ATOM     31  C   UNL     1      49.848   7.706  14.330  0.00  0.00    +0.000 C 
ATOM     32  O   UNL     1      48.565   7.959  14.896  0.00  0.00    +0.000 OA
ENDBRANCH  22  32
ENDBRANCH  18  29
ENDBRANCH   1  20
TORSDOF 8
ENDMDL
MODEL 5
REMARK VINA RESULT:    -7.354      1.896      2.713
REMARK INTER + INTRA:         -12.087
REMARK INTER:                 -11.049
REMARK INTRA:                  -1.039
REMARK UNBOUND:                -1.294
REMARK  Name = 
REMARK  9 active torsions:
REMARK  status: ('A' for Active; 'I' for Inactive)
REMARK    1  A    between atoms: C_1  and  O_2
REMARK    2  A    between atoms: O_2  and  C_3
REMARK    3  A    between atoms: C_10  and  C_11
REMARK    4  A    between atoms: N_13  and  C_14
REMARK    5  A    between atoms: C_14  and  C_15
REMARK    6  A    between atoms: C_18  and  C_19
REMARK    7  A    between atoms: C_19  and  N_20
REMARK    8  A    between atoms: N_20  and  C_21
REMARK    9  A    between atoms: C_21  and  C_22
REMARK                            x       y       z     vdW  Elec       q    Type
REMARK                         _______ _______ _______ _____ _____    ______ ____
ROOT
ATOM      1  C   UNL     1      47.154   3.992  15.409  0.00  0.00    +0.000 C 
ENDROOT
BRANCH   1   2
ATOM      2  C   UNL     1      46.712   4.459  14.046  0.00  0.00    +0.000 A 
ATOM      3  C   UNL     1      47.020   5.752  13.603  0.00  0.00    +0.000 A 
ATOM      4  C   UNL     1      46.559   6.209  12.365  0.00  0.00    +0.000 A 
ATOM      5  C   UNL     1      45.774   5.388  11.542  0.00  0.00    +0.000 A 
ATOM      6  C   UNL     1      45.482   4.089  11.979  0.00  0.00    +0.000 A 
ATOM      7  C   UNL     1      45.942   3.630  13.219  0.00  0.00    +0.000 A 
BRANCH   5   8
ATOM      8  C   UNL     1      45.205   5.915  10.243  0.00  0.00    +0.000 C 
BRANCH   8   9
ATOM      9  N   UNL     1      45.824   5.287   9.076  0.00  0.00    +0.000 NA
ATOM     10  H   UNL     1      46.788   5.044   9.303  0.00  0.00    +0.000 HD
BRANCH   9  11
ATOM     11  C   UNL     1      45.101   4.076   8.689  0.00  0.00    +0.000 C 
BRANCH  11  12
ATOM     12  C   UNL     1      46.021   3.079   8.028  0.00  0.00    +0.000 A 
ATOM     13  C   UNL     1      46.996   3.488   7.116  0.00  0.00    +0.000 A 
ATOM     14  C   UNL     1      47.820   2.528   6.544  0.00  0.00    +0.000 A 
ATOM     15  N   UNL     1      47.740   1.210   6.818  0.00  0.00    +0.000 NA
ATOM     16  C   UNL     1      46.794   0.832   7.703  0.00  0.00    +0.000 A 
ATOM     17  C   UNL     1      45.927   1.715   8.328  0.00  0.00    +0.000 A 
ENDBRANCH  11  12
ENDBRANCH   9  11
ENDBRANCH   8   9
ENDBRANCH   5   8
ENDBRANCH   1   2
BRANCH   1  20
ATOM     18  C   UNL     1      47.672   5.307  17.414  0.00  0.00    +0.000 C 
ATOM     19  O   UNL     1      46.797   4.718  18.045  0.00  0.00    +0.000 OA
ATOM     20  N   UNL     1      47.908   5.015  16.098  0.00  0.00    +0.000 N 
ATOM     21  H   UNL     1      48.643   5.487  15.590  0.00  0.00    +0.000 HD
BRANCH  18  29
ATOM     22  C   UNL     1      51.076   5.781  17.744  0.00  0.00    +0.000 A 
ATOM     23  N   UNL     1      52.325   6.181  18.057  0.00  0.00    +0.000 NA
ATOM     24  C   UNL     1      52.467   7.297  18.778  0.00  0.00    +0.000 A 
ATOM     25  N   UNL     1      51.496   8.085  19.229  0.00  0.00    +0.000 NA
ATOM     26  C   UNL     1      50.268   7.643  18.907  0.00  0.00    +0.000 A 
ATOM     27  S   UNL     1      48.907   8.530  19.397  0.00  0.00    +0.000 S 
ATOM     28  C   UNL     1      47.856   7.406  18.677  0.00  0.00    +0.000 A 
ATOM     29  C   UNL     1      48.502   6.343  18.056  0.00  0.00    +0.000 A 
ATOM     30  C   UNL     1      49.950   6.496  18.182  0.00  0.00    +0.000 A 
BRANCH  22  32
ATOM     31  C   UNL     1      51.343   3.463  17.708  0.00  0.00    +0.000 C 
ATOM     32  O   UNL     1      50.933   4.629  16.998  0.00  0.00    +0.000 OA
ENDBRANCH  22  32
ENDBRANCH  18  29
ENDBRANCH   1  20
TORSDOF 8
ENDMDL
MODEL 6
REMARK VINA RESULT:    -7.307      1.853      2.051
REMARK INTER + INTRA:         -12.019
REMARK INTER:                 -10.892
REMARK INTRA:                  -1.127
REMARK UNBOUND:                -1.294
REMARK  Name = 
REMARK  9 active torsions:
REMARK  status: ('A' for Active; 'I' for Inactive)
REMARK    1  A    between atoms: C_1  and  O_2
REMARK    2  A    between atoms: O_2  and  C_3
REMARK    3  A    between atoms: C_10  and  C_11
REMARK    4  A    between atoms: N_13  and  C_14
REMARK    5  A    between atoms: C_14  and  C_15
REMARK    6  A    between atoms: C_18  and  C_19
REMARK    7  A    between atoms: C_19  and  N_20
REMARK    8  A    between atoms: N_20  and  C_21
REMARK    9  A    between atoms: C_21  and  C_22
REMARK                            x       y       z     vdW  Elec       q    Type
REMARK                         _______ _______ _______ _____ _____    ______ ____
ROOT
ATOM      1  C   UNL     1      47.147   8.348  13.758  0.00  0.00    +0.000 C 
ENDROOT
BRANCH   1   2
ATOM      2  C   UNL     1      46.269   7.412  12.968  0.00  0.00    +0.000 A 
ATOM      3  C   UNL     1      46.521   6.035  12.963  0.00  0.00    +0.000 A 
ATOM      4  C   UNL     1      45.746   5.172  12.181  0.00  0.00    +0.000 A 
ATOM      5  C   UNL     1      44.705   5.666  11.382  0.00  0.00    +0.000 A 
ATOM      6  C   UNL     1      44.442   7.042  11.402  0.00  0.00    +0.000 A 
ATOM      7  C   UNL     1      45.219   7.907  12.183  0.00  0.00    +0.000 A 
BRANCH   5   8
ATOM      8  C   UNL     1      43.925   4.741  10.473  0.00  0.00    +0.000 C 
BRANCH   8   9
ATOM      9  N   UNL     1      44.777   3.722   9.863  0.00  0.00    +0.000 NA
ATOM     10  H   UNL     1      44.395   2.800  10.073  0.00  0.00    +0.000 HD
BRANCH   9  11
ATOM     11  C   UNL     1      44.842   3.894   8.412  0.00  0.00    +0.000 C 
BRANCH  11  12
ATOM     12  C   UNL     1      45.860   2.966   7.796  0.00  0.00    +0.000 A 
ATOM     13  C   UNL     1      46.018   1.657   8.257  0.00  0.00    +0.000 A 
ATOM     14  C   UNL     1      46.965   0.846   7.649  0.00  0.00    +0.000 A 
ATOM     15  N   UNL     1      47.751   1.242   6.626  0.00  0.00    +0.000 NA
ATOM     16  C   UNL     1      47.583   2.509   6.192  0.00  0.00    +0.000 A 
ATOM     17  C   UNL     1      46.663   3.394   6.732  0.00  0.00    +0.000 A 
ENDBRANCH  11  12
ENDBRANCH   9  11
ENDBRANCH   8   9
ENDBRANCH   5   8
ENDBRANCH   1   2
BRANCH   1  20
ATOM     18  C   UNL     1      49.018   8.214  15.339  0.00  0.00    +0.000 C 
ATOM     19  O   UNL     1      48.769   9.345  15.753  0.00  0.00    +0.000 OA
ATOM     20  N   UNL     1      48.269   7.649  14.343  0.00  0.00    +0.000 N 
ATOM     21  H   UNL     1      48.464   6.710  14.022  0.00  0.00    +0.000 HD
BRANCH  18  29
ATOM     22  C   UNL     1      49.250   5.065  16.734  0.00  0.00    +0.000 A 
ATOM     23  N   UNL     1      49.613   3.921  17.349  0.00  0.00    +0.000 NA
ATOM     24  C   UNL     1      50.891   3.779  17.713  0.00  0.00    +0.000 A 
ATOM     25  N   UNL     1      51.875   4.653  17.527  0.00  0.00    +0.000 NA
ATOM     26  C   UNL     1      51.468   5.782  16.923  0.00  0.00    +0.000 A 
ATOM     27  S   UNL     1      52.596   7.009  16.600  0.00  0.00    +0.000 S 
ATOM     28  C   UNL     1      51.398   7.994  15.909  0.00  0.00    +0.000 A 
ATOM     29  C   UNL     1      50.129   7.427  15.907  0.00  0.00    +0.000 A 
ATOM     30  C   UNL     1      50.177   6.093  16.501  0.00  0.00    +0.000 A 
BRANCH  22  32
ATOM     31  C   UNL     1      47.252   3.958  16.257  0.00  0.00    +0.000 C 
ATOM     32  O   UNL     1      47.930   5.208  16.359  0.00  0.00    +0.000 OA
ENDBRANCH  22  32
ENDBRANCH  18  29
ENDBRANCH   1  20
TORSDOF 8
ENDMDL
MODEL 7
REMARK VINA RESULT:    -6.747      3.384      8.216
REMARK INTER + INTRA:         -11.197
REMARK INTER:                  -9.658
REMARK INTRA:                  -1.539
REMARK UNBOUND:                -1.294
REMARK  Name = 
REMARK  9 active torsions:
REMARK  status: ('A' for Active; 'I' for Inactive)
REMARK    1  A    between atoms: C_1  and  O_2
REMARK    2  A    between atoms: O_2  and  C_3
REMARK    3  A    between atoms: C_10  and  C_11
REMARK    4  A    between atoms: N_13  and  C_14
REMARK    5  A    between atoms: C_14  and  C_15
REMARK    6  A    between atoms: C_18  and  C_19
REMARK    7  A    between atoms: C_19  and  N_20
REMARK    8  A    between atoms: N_20  and  C_21
REMARK    9  A    between atoms: C_21  and  C_22
REMARK                            x       y       z     vdW  Elec       q    Type
REMARK                         _______ _______ _______ _____ _____    ______ ____
ROOT
ATOM      1  C   UNL     1      48.250   8.046  11.964  0.00  0.00    +0.000 C 
ENDROOT
BRANCH   1   2
ATOM      2  C   UNL     1      48.448   7.907  13.451  0.00  0.00    +0.000 A 
ATOM      3  C   UNL     1      48.075   8.942  14.318  0.00  0.00    +0.000 A 
ATOM      4  C   UNL     1      48.315   8.841  15.692  0.00  0.00    +0.000 A 
ATOM      5  C   UNL     1      48.938   7.707  16.232  0.00  0.00    +0.000 A 
ATOM      6  C   UNL     1      49.295   6.664  15.365  0.00  0.00    +0.000 A 
ATOM      7  C   UNL     1      49.056   6.765  13.989  0.00  0.00    +0.000 A 
BRANCH   5   8
ATOM      8  C   UNL     1      49.273   7.638  17.705  0.00  0.00    +0.000 C 
BRANCH   8   9
ATOM      9  N   UNL     1      50.085   6.466  18.031  0.00  0.00    +0.000 NA
ATOM     10  H   UNL     1      50.821   6.742  18.681  0.00  0.00    +0.000 HD
BRANCH   9  11
ATOM     11  C   UNL     1      49.270   5.419  18.647  0.00  0.00    +0.000 C 
BRANCH  11  12
ATOM     12  C   UNL     1      49.303   4.151  17.831  0.00  0.00    +0.000 A 
ATOM     13  C   UNL     1      48.184   3.725  17.111  0.00  0.00    +0.000 A 
ATOM     14  C   UNL     1      48.274   2.554  16.372  0.00  0.00    +0.000 A 
ATOM     15  N   UNL     1      49.384   1.791  16.301  0.00  0.00    +0.000 NA
ATOM     16  C   UNL     1      50.455   2.218  17.002  0.00  0.00    +0.000 A 
ATOM     17  C   UNL     1      50.466   3.375  17.766  0.00  0.00    +0.000 A 
ENDBRANCH  11  12
ENDBRANCH   9  11
ENDBRANCH   8   9
ENDBRANCH   5   8
ENDBRANCH   1   2
BRANCH   1  20
ATOM     18  C   UNL     1      46.195   6.870  11.320  0.00  0.00    +0.000 C 
ATOM     19  O   UNL     1      45.513   7.813  11.718  0.00  0.00    +0.000 OA
ATOM     20  N   UNL     1      47.560   6.900  11.415  0.00  0.00    +0.000 N 
ATOM     21  H   UNL     1      48.117   6.132  11.067  0.00  0.00    +0.000 HD
BRANCH  18  29
ATOM     22  C   UNL     1      44.393   4.218  12.601  0.00  0.00    +0.000 A 
ATOM     23  N   UNL     1      43.719   3.072  12.829  0.00  0.00    +0.000 NA
ATOM     24  C   UNL     1      43.443   2.285  11.785  0.00  0.00    +0.000 A 
ATOM     25  N   UNL     1      43.756   2.508  10.512  0.00  0.00    +0.000 NA
ATOM     26  C   UNL     1      44.437   3.652  10.332  0.00  0.00    +0.000 A 
ATOM     27  S   UNL     1      44.914   4.099   8.765  0.00  0.00    +0.000 S 
ATOM     28  C   UNL     1      45.657   5.513   9.344  0.00  0.00    +0.000 A 
ATOM     29  C   UNL     1      45.565   5.678  10.722  0.00  0.00    +0.000 A 
ATOM     30  C   UNL     1      44.818   4.568  11.309  0.00  0.00    +0.000 A 
BRANCH  22  32
ATOM     31  C   UNL     1      45.970   4.784  14.225  0.00  0.00    +0.000 C 
ATOM     32  O   UNL     1      44.676   5.029  13.680  0.00  0.00    +0.000 OA
ENDBRANCH  22  32
ENDBRANCH  18  29
ENDBRANCH   1  20
TORSDOF 8
ENDMDL
MODEL 8
REMARK VINA RESULT:    -6.732      2.623      3.366
REMARK INTER + INTRA:         -11.174
REMARK INTER:                 -10.109
REMARK INTRA:                  -1.065
REMARK UNBOUND:                -1.294
REMARK  Name = 
REMARK  9 active torsions:
REMARK  status: ('A' for Active; 'I' for Inactive)
REMARK    1  A    between atoms: C_1  and  O_2
REMARK    2  A    between atoms: O_2  and  C_3
REMARK    3  A    between atoms: C_10  and  C_11
REMARK    4  A    between atoms: N_13  and  C_14
REMARK    5  A    between atoms: C_14  and  C_15
REMARK    6  A    between atoms: C_18  and  C_19
REMARK    7  A    between atoms: C_19  and  N_20
REMARK    8  A    between atoms: N_20  and  C_21
REMARK    9  A    between atoms: C_21  and  C_22
REMARK                            x       y       z     vdW  Elec       q    Type
REMARK                         _______ _______ _______ _____ _____    ______ ____
ROOT
ATOM      1  C   UNL     1      48.370   7.661  13.837  0.00  0.00    +0.000 C 
ENDROOT
BRANCH   1   2
ATOM      2  C   UNL     1      47.420   6.746  13.107  0.00  0.00    +0.000 A 
ATOM      3  C   UNL     1      46.973   7.066  11.819  0.00  0.00    +0.000 A 
ATOM      4  C   UNL     1      46.044   6.251  11.165  0.00  0.00    +0.000 A 
ATOM      5  C   UNL     1      45.535   5.101  11.784  0.00  0.00    +0.000 A 
ATOM      6  C   UNL     1      45.997   4.772  13.066  0.00  0.00    +0.000 A 
ATOM      7  C   UNL     1      46.926   5.588  13.722  0.00  0.00    +0.000 A 
BRANCH   5   8
ATOM      8  C   UNL     1      44.467   4.269  11.108  0.00  0.00    +0.000 C 
BRANCH   8   9
ATOM      9  N   UNL     1      45.003   3.024  10.561  0.00  0.00    +0.000 NA
ATOM     10  H   UNL     1      44.666   2.242  11.121  0.00  0.00    +0.000 HD
BRANCH   9  11
ATOM     11  C   UNL     1      44.580   2.837   9.173  0.00  0.00    +0.000 C 
BRANCH  11  12
ATOM     12  C   UNL     1      45.731   2.391   8.306  0.00  0.00    +0.000 A 
ATOM     13  C   UNL     1      46.073   1.042   8.195  0.00  0.00    +0.000 A 
ATOM     14  C   UNL     1      47.137   0.688   7.376  0.00  0.00    +0.000 A 
ATOM     15  N   UNL     1      47.870   1.575   6.670  0.00  0.00    +0.000 NA
ATOM     16  C   UNL     1      47.524   2.873   6.788  0.00  0.00    +0.000 A 
ATOM     17  C   UNL     1      46.477   3.324   7.577  0.00  0.00    +0.000 A 
ENDBRANCH  11  12
ENDBRANCH   9  11
ENDBRANCH   8   9
ENDBRANCH   5   8
ENDBRANCH   1   2
BRANCH   1  20
ATOM     18  C   UNL     1      49.315   6.950  15.987  0.00  0.00    +0.000 C 
ATOM     19  O   UNL     1      48.498   7.643  16.592  0.00  0.00    +0.000 OA
ATOM     20  N   UNL     1      49.327   6.911  14.619  0.00  0.00    +0.000 N 
ATOM     21  H   UNL     1      49.987   6.323  14.127  0.00  0.00    +0.000 HD
BRANCH  18  29
ATOM     22  C   UNL     1      52.760   6.748  15.924  0.00  0.00    +0.000 A 
ATOM     23  N   UNL     1      54.064   6.433  16.070  0.00  0.00    +0.000 NA
ATOM     24  C   UNL     1      54.385   5.474  16.943  0.00  0.00    +0.000 A 
ATOM     25  N   UNL     1      53.551   4.780  17.711  0.00  0.00    +0.000 NA
ATOM     26  C   UNL     1      52.263   5.116  17.524  0.00  0.00    +0.000 A 
ATOM     27  S   UNL     1      51.058   4.334  18.428  0.00  0.00    +0.000 S 
ATOM     28  C   UNL     1      49.836   5.232  17.663  0.00  0.00    +0.000 A 
ATOM     29  C   UNL     1      50.304   6.134  16.715  0.00  0.00    +0.000 A 
ATOM     30  C   UNL     1      51.763   6.074  16.645  0.00  0.00    +0.000 A 
BRANCH  22  32
ATOM     31  C   UNL     1      53.579   8.375  14.465  0.00  0.00    +0.000 C 
ATOM     32  O   UNL     1      52.431   7.739  15.023  0.00  0.00    +0.000 OA
ENDBRANCH  22  32
ENDBRANCH  18  29
ENDBRANCH   1  20
TORSDOF 8
ENDMDL
MODEL 9
REMARK VINA RESULT:    -6.343      3.427      8.399
REMARK INTER + INTRA:         -10.604
REMARK INTER:                  -8.657
REMARK INTRA:                  -1.946
REMARK UNBOUND:                -1.294
REMARK  Name = 
REMARK  9 active torsions:
REMARK  status: ('A' for Active; 'I' for Inactive)
REMARK    1  A    between atoms: C_1  and  O_2
REMARK    2  A    between atoms: O_2  and  C_3
REMARK    3  A    between atoms: C_10  and  C_11
REMARK    4  A    between atoms: N_13  and  C_14
REMARK    5  A    between atoms: C_14  and  C_15
REMARK    6  A    between atoms: C_18  and  C_19
REMARK    7  A    between atoms: C_19  and  N_20
REMARK    8  A    between atoms: N_20  and  C_21
REMARK    9  A    between atoms: C_21  and  C_22
REMARK                            x       y       z     vdW  Elec       q    Type
REMARK                         _______ _______ _______ _____ _____    ______ ____
ROOT
ATOM      1  C   UNL     1      48.437   8.405  14.442  0.00  0.00    +0.000 C 
ENDROOT
BRANCH   1   2
ATOM      2  C   UNL     1      48.933   8.011  15.810  0.00  0.00    +0.000 A 
ATOM      3  C   UNL     1      50.042   7.167  15.948  0.00  0.00    +0.000 A 
ATOM      4  C   UNL     1      50.467   6.750  17.213  0.00  0.00    +0.000 A 
ATOM      5  C   UNL     1      49.789   7.162  18.370  0.00  0.00    +0.000 A 
ATOM      6  C   UNL     1      48.690   8.020  18.231  0.00  0.00    +0.000 A 
ATOM      7  C   UNL     1      48.264   8.437  16.965  0.00  0.00    +0.000 A 
BRANCH   5   8
ATOM      8  C   UNL     1      50.198   6.640  19.730  0.00  0.00    +0.000 C 
BRANCH   8   9
ATOM      9  N   UNL     1      50.232   5.179  19.772  0.00  0.00    +0.000 NA
ATOM     10  H   UNL     1      50.733   4.882  20.609  0.00  0.00    +0.000 HD
BRANCH   9  11
ATOM     11  C   UNL     1      48.879   4.624  19.802  0.00  0.00    +0.000 C 
BRANCH  11  12
ATOM     12  C   UNL     1      48.502   4.032  18.467  0.00  0.00    +0.000 A 
ATOM     13  C   UNL     1      47.396   4.501  17.754  0.00  0.00    +0.000 A 
ATOM     14  C   UNL     1      47.100   3.924  16.527  0.00  0.00    +0.000 A 
ATOM     15  N   UNL     1      47.821   2.929  15.970  0.00  0.00    +0.000 NA
ATOM     16  C   UNL     1      48.886   2.489  16.672  0.00  0.00    +0.000 A 
ATOM     17  C   UNL     1      49.264   3.003  17.902  0.00  0.00    +0.000 A 
ENDBRANCH  11  12
ENDBRANCH   9  11
ENDBRANCH   8   9
ENDBRANCH   5   8
ENDBRANCH   1   2
BRANCH   1  20
ATOM     18  C   UNL     1      47.676   6.421  13.215  0.00  0.00    +0.000 C 
ATOM     19  O   UNL     1      48.831   6.171  12.873  0.00  0.00    +0.000 OA
ATOM     20  N   UNL     1      47.392   7.517  13.984  0.00  0.00    +0.000 N 
ATOM     21  H   UNL     1      46.444   7.706  14.281  0.00  0.00    +0.000 HD
BRANCH  18  29
ATOM     22  C   UNL     1      44.574   6.994  11.813  0.00  0.00    +0.000 A 
ATOM     23  N   UNL     1      43.318   6.932  11.324  0.00  0.00    +0.000 NA
ATOM     24  C   UNL     1      42.740   5.731  11.222  0.00  0.00    +0.000 A 
ATOM     25  N   UNL     1      43.274   4.558  11.548  0.00  0.00    +0.000 NA
ATOM     26  C   UNL     1      44.519   4.666  12.042  0.00  0.00    +0.000 A 
ATOM     27  S   UNL     1      45.357   3.265  12.506  0.00  0.00    +0.000 S 
ATOM     28  C   UNL     1      46.708   4.175  12.987  0.00  0.00    +0.000 A 
ATOM     29  C   UNL     1      46.560   5.546  12.812  0.00  0.00    +0.000 A 
ATOM     30  C   UNL     1      45.251   5.837  12.230  0.00  0.00    +0.000 A 
BRANCH  22  32
ATOM     31  C   UNL     1      44.422   9.255  11.256  0.00  0.00    +0.000 C 
ATOM     32  O   UNL     1      45.168   8.234  11.916  0.00  0.00    +0.000 OA
ENDBRANCH  22  32
ENDBRANCH  18  29
ENDBRANCH   1  20
TORSDOF 8
ENDMDL
