MODEL 1
REMARK VINA RESULT:    -6.989      0.000      0.000
REMARK INTER + INTRA:          -9.440
REMARK INTER:                  -8.828
REMARK INTRA:                  -0.612
REMARK UNBOUND:                -0.612
REMARK  Name = 
REMARK  5 active torsions:
REMARK  status: ('A' for Active; 'I' for Inactive)
REMARK    1  A    between atoms: N_1  and  C_2
REMARK    2  A    between atoms: C_2  and  C_3
REMARK    3  A    between atoms: C_6  and  O_7
REMARK    4  A    between atoms: O_7  and  C_8
REMARK    5  A    between atoms: C_8  and  C_9
REMARK                            x       y       z     vdW  Elec       q    Type
REMARK                         _______ _______ _______ _____ _____    ______ ____
ROOT
ATOM      1  C   UNL     1      46.534   2.264   7.650  0.00  0.00    +0.000 A 
ATOM      2  C   UNL     1      45.673   1.558   8.505  0.00  0.00    +0.000 A 
ATOM      3  C   UNL     1      44.712   2.234   9.263  0.00  0.00    +0.000 A 
ATOM      4  C   UNL     1      44.609   3.623   9.188  0.00  0.00    +0.000 A 
ATOM      5  C   UNL     1      45.414   4.322   8.288  0.00  0.00    +0.000 A 
ATOM      6  C   UNL     1      46.379   3.651   7.536  0.00  0.00    +0.000 A 
ENDROOT
BRANCH   1   7
ATOM      7  C   UNL     1      47.629   1.561   6.893  0.00  0.00    +0.000 C 
BRANCH   7   8
ATOM      8  N   UNL     1      48.611   2.497   6.364  0.00  0.00    +0.000 NA
ATOM      9  H   UNL     1      48.540   2.510   5.348  0.00  0.00    +0.000 HD
ATOM     10  H   UNL     1      49.544   2.150   6.583  0.00  0.00    +0.000 HD
ENDBRANCH   7   8
ENDBRANCH   1   7
BRANCH   4  11
ATOM     11  O   UNL     1      43.704   4.207  10.037  0.00  0.00    +0.000 OA
BRANCH  11  12
ATOM     12  C   UNL     1      43.705   3.669  11.361  0.00  0.00    +0.000 C 
BRANCH  12  13
ATOM     13  C   UNL     1      44.823   4.281  12.162  0.00  0.00    +0.000 A 
ATOM     14  C   UNL     1      44.951   5.670  12.257  0.00  0.00    +0.000 A 
ATOM     15  C   UNL     1      45.976   6.192  13.028  0.00  0.00    +0.000 A 
ATOM     16  N   UNL     1      46.867   5.435  13.700  0.00  0.00    +0.000 NA
ATOM     17  C   UNL     1      46.732   4.096  13.588  0.00  0.00    +0.000 A 
ATOM     18  C   UNL     1      45.741   3.479  12.844  0.00  0.00    +0.000 A 
ENDBRANCH  12  13
ENDBRANCH  11  12
ENDBRANCH   4  11
TORSDOF 5
ENDMDL
MODEL 2
REMARK VINA RESULT:    -6.836      1.172      5.835
REMARK INTER + INTRA:          -9.246
REMARK INTER:                  -8.709
REMARK INTRA:                  -0.537
REMARK UNBOUND:                -0.612
REMARK  Name = 
REMARK  5 active torsions:
REMARK  status: ('A' for Active; 'I' for Inactive)
REMARK    1  A    between atoms: N_1  and  C_2
REMARK    2  A    between atoms: C_2  and  C_3
REMARK    3  A    between atoms: C_6  and  O_7
REMARK    4  A    between atoms: O_7  and  C_8
REMARK    5  A    between atoms: C_8  and  C_9
REMARK                            x       y       z     vdW  Elec       q    Type
REMARK                         _______ _______ _______ _____ _____    ______ ____
ROOT
ATOM      1  C   UNL     1      46.453   5.435  12.725  0.00  0.00    +0.000 A 
ATOM      2  C   UNL     1      46.057   6.035  11.520  0.00  0.00    +0.000 A 
ATOM      3  C   UNL     1      45.309   5.320  10.581  0.00  0.00    +0.000 A 
ATOM      4  C   UNL     1      44.958   3.993  10.828  0.00  0.00    +0.000 A 
ATOM      5  C   UNL     1      45.288   3.413  12.053  0.00  0.00    +0.000 A 
ATOM      6  C   UNL     1      46.043   4.122  12.989  0.00  0.00    +0.000 A 
ENDROOT
BRANCH   1   7
ATOM      7  C   UNL     1      47.332   6.163  13.707  0.00  0.00    +0.000 C 
BRANCH   7   8
ATOM      8  N   UNL     1      47.560   5.383  14.915  0.00  0.00    +0.000 NA
ATOM      9  H   UNL     1      48.178   5.905  15.533  0.00  0.00    +0.000 HD
ATOM     10  H   UNL     1      48.060   4.530  14.663  0.00  0.00    +0.000 HD
ENDBRANCH   7   8
ENDBRANCH   1   7
BRANCH   4  11
ATOM     11  O   UNL     1      44.306   3.343   9.811  0.00  0.00    +0.000 OA
BRANCH  11  12
ATOM     12  C   UNL     1      44.681   3.772   8.500  0.00  0.00    +0.000 C 
BRANCH  12  13
ATOM     13  C   UNL     1      45.801   2.912   7.979  0.00  0.00    +0.000 A 
ATOM     14  C   UNL     1      45.826   1.540   8.248  0.00  0.00    +0.000 A 
ATOM     15  C   UNL     1      46.859   0.779   7.725  0.00  0.00    +0.000 A 
ATOM     16  N   UNL     1      47.851   1.287   6.965  0.00  0.00    +0.000 NA
ATOM     17  C   UNL     1      47.813   2.615   6.725  0.00  0.00    +0.000 A 
ATOM     18  C   UNL     1      46.824   3.458   7.201  0.00  0.00    +0.000 A 
ENDBRANCH  12  13
ENDBRANCH  11  12
ENDBRANCH   4  11
TORSDOF 5
ENDMDL
MODEL 3
REMARK VINA RESULT:    -5.398      1.902      2.813
REMARK INTER + INTRA:          -7.430
REMARK INTER:                  -7.014
REMARK INTRA:                  -0.416
REMARK UNBOUND:                -0.612
REMARK  Name = 
REMARK  5 active torsions:
REMARK  status: ('A' for Active; 'I' for Inactive)
REMARK    1  A    between atoms: N_1  and  C_2
REMARK    2  A    between atoms: C_2  and  C_3
REMARK    3  A    between atoms: C_6  and  O_7
REMARK    4  A    between atoms: O_7  and  C_8
REMARK    5  A    between atoms: C_8  and  C_9
REMARK                            x       y       z     vdW  Elec       q    Type
REMARK                         _______ _______ _______ _____ _____    ______ ____
ROOT
ATOM      1  C   UNL     1      45.440   3.763   8.619  0.00  0.00    +0.000 A 
ATOM      2  C   UNL     1      44.927   2.890   9.591  0.00  0.00    +0.000 A 
ATOM      3  C   UNL     1      44.766   3.314  10.914  0.00  0.00    +0.000 A 
ATOM      4  C   UNL     1      45.128   4.610  11.284  0.00  0.00    +0.000 A 
ATOM      5  C   UNL     1      45.572   5.502  10.308  0.00  0.00    +0.000 A 
ATOM      6  C   UNL     1      45.741   5.079   8.989  0.00  0.00    +0.000 A 
ENDROOT
BRANCH   1   7
ATOM      7  C   UNL     1      45.700   3.295   7.211  0.00  0.00    +0.000 C 
BRANCH   7   8
ATOM      8  N   UNL     1      46.776   4.046   6.579  0.00  0.00    +0.000 NA
ATOM      9  H   UNL     1      46.399   4.554   5.782  0.00  0.00    +0.000 HD
ATOM     10  H   UNL     1      47.458   3.387   6.205  0.00  0.00    +0.000 HD
ENDBRANCH   7   8
ENDBRANCH   1   7
BRANCH   4  11
ATOM     11  O   UNL     1      45.024   4.906  12.619  0.00  0.00    +0.000 OA
BRANCH  11  12
ATOM     12  C   UNL     1      45.740   4.016  13.478  0.00  0.00    +0.000 C 
BRANCH  12  13
ATOM     13  C   UNL     1      46.784   4.777  14.250  0.00  0.00    +0.000 A 
ATOM     14  C   UNL     1      47.193   4.339  15.513  0.00  0.00    +0.000 A 
ATOM     15  C   UNL     1      48.178   5.052  16.177  0.00  0.00    +0.000 A 
ATOM     16  N   UNL     1      48.772   6.154  15.674  0.00  0.00    +0.000 NA
ATOM     17  C   UNL     1      48.356   6.566  14.457  0.00  0.00    +0.000 A 
ATOM     18  C   UNL     1      47.381   5.921  13.715  0.00  0.00    +0.000 A 
ENDBRANCH  12  13
ENDBRANCH  11  12
ENDBRANCH   4  11
TORSDOF 5
ENDMDL
MODEL 4
REMARK VINA RESULT:    -5.184      4.038      7.945
REMARK INTER + INTRA:          -7.159
REMARK INTER:                  -6.834
REMARK INTRA:                  -0.325
REMARK UNBOUND:                -0.612
REMARK  Name = 
REMARK  5 active torsions:
REMARK  status: ('A' for Active; 'I' for Inactive)
REMARK    1  A    between atoms: N_1  and  C_2
REMARK    2  A    between atoms: C_2  and  C_3
REMARK    3  A    between atoms: C_6  and  O_7
REMARK    4  A    between atoms: O_7  and  C_8
REMARK    5  A    between atoms: C_8  and  C_9
REMARK                            x       y       z     vdW  Elec       q    Type
REMARK                         _______ _______ _______ _____ _____    ______ ____
ROOT
ATOM      1  C   UNL     1      48.542   4.535  18.457  0.00  0.00    +0.000 A 
ATOM      2  C   UNL     1      48.076   3.259  18.105  0.00  0.00    +0.000 A 
ATOM      3  C   UNL     1      47.575   3.014  16.824  0.00  0.00    +0.000 A 
ATOM      4  C   UNL     1      47.520   4.043  15.883  0.00  0.00    +0.000 A 
ATOM      5  C   UNL     1      48.046   5.294  16.205  0.00  0.00    +0.000 A 
ATOM      6  C   UNL     1      48.540   5.544  17.486  0.00  0.00    +0.000 A 
ENDROOT
BRANCH   1   7
ATOM      7  C   UNL     1      49.005   4.837  19.858  0.00  0.00    +0.000 C 
BRANCH   7   8
ATOM      8  N   UNL     1      48.485   3.876  20.821  0.00  0.00    +0.000 NA
ATOM      9  H   UNL     1      48.734   2.937  20.517  0.00  0.00    +0.000 HD
ATOM     10  H   UNL     1      47.467   3.922  20.810  0.00  0.00    +0.000 HD
ENDBRANCH   7   8
ENDBRANCH   1   7
BRANCH   4  11
ATOM     11  O   UNL     1      46.925   3.734  14.687  0.00  0.00    +0.000 OA
BRANCH  11  12
ATOM     12  C   UNL     1      46.554   4.868  13.901  0.00  0.00    +0.000 C 
BRANCH  12  13
ATOM     13  C   UNL     1      45.305   4.563  13.118  0.00  0.00    +0.000 A 
ATOM     14  C   UNL     1      44.238   5.466  13.104  0.00  0.00    +0.000 A 
ATOM     15  C   UNL     1      43.119   5.160  12.346  0.00  0.00    +0.000 A 
ATOM     16  N   UNL     1      42.995   4.034  11.616  0.00  0.00    +0.000 NA
ATOM     17  C   UNL     1      44.033   3.171  11.650  0.00  0.00    +0.000 A 
ATOM     18  C   UNL     1      45.193   3.386  12.374  0.00  0.00    +0.000 A 
ENDBRANCH  12  13
ENDBRANCH  11  12
ENDBRANCH   4  11
TORSDOF 5
ENDMDL
MODEL 5
REMARK VINA RESULT:    -4.885      3.514      5.177
REMARK INTER + INTRA:          -6.783
REMARK INTER:                  -6.478
REMARK INTRA:                  -0.304
REMARK UNBOUND:                -0.612
REMARK  Name = 
REMARK  5 active torsions:
REMARK  status: ('A' for Active; 'I' for Inactive)
REMARK    1  A    between atoms: N_1  and  C_2
REMARK    2  A    between atoms: C_2  and  C_3
REMARK    3  A    between atoms: C_6  and  O_7
REMARK    4  A    between atoms: O_7  and  C_8
REMARK    5  A    between atoms: C_8  and  C_9
REMARK                            x       y       z     vdW  Elec       q    Type
REMARK                         _______ _______ _______ _____ _____    ______ ____
ROOT
ATOM      1  C   UNL     1      44.968   4.520  10.922  0.00  0.00    +0.000 A 
ATOM      2  C   UNL     1      45.127   3.492  11.864  0.00  0.00    +0.000 A 
ATOM      3  C   UNL     1      45.969   3.660  12.966  0.00  0.00    +0.000 A 
ATOM      4  C   UNL     1      46.674   4.853  13.134  0.00  0.00    +0.000 A 
ATOM      5  C   UNL     1      46.466   5.903  12.240  0.00  0.00    +0.000 A 
ATOM      6  C   UNL     1      45.631   5.734  11.134  0.00  0.00    +0.000 A 
ENDROOT
BRANCH   1   7
ATOM      7  C   UNL     1      44.132   4.322   9.685  0.00  0.00    +0.000 C 
BRANCH   7   8
ATOM      8  N   UNL     1      44.903   4.536   8.469  0.00  0.00    +0.000 NA
ATOM      9  H   UNL     1      45.824   4.891   8.720  0.00  0.00    +0.000 HD
ATOM     10  H   UNL     1      44.452   5.269   7.921  0.00  0.00    +0.000 HD
ENDBRANCH   7   8
ENDBRANCH   1   7
BRANCH   4  11
ATOM     11  O   UNL     1      47.547   4.893  14.191  0.00  0.00    +0.000 OA
BRANCH  11  12
ATOM     12  C   UNL     1      47.002   4.422  15.425  0.00  0.00    +0.000 C 
BRANCH  12  13
ATOM     13  C   UNL     1      48.102   4.250  16.439  0.00  0.00    +0.000 A 
ATOM     14  C   UNL     1      48.524   2.973  16.819  0.00  0.00    +0.000 A 
ATOM     15  C   UNL     1      49.559   2.859  17.732  0.00  0.00    +0.000 A 
ATOM     16  N   UNL     1      50.190   3.916  18.283  0.00  0.00    +0.000 NA
ATOM     17  C   UNL     1      49.762   5.141  17.910  0.00  0.00    +0.000 A 
ATOM     18  C   UNL     1      48.737   5.358  17.004  0.00  0.00    +0.000 A 
ENDBRANCH  12  13
ENDBRANCH  11  12
ENDBRANCH   4  11
TORSDOF 5
ENDMDL
MODEL 6
REMARK VINA RESULT:    -4.822      2.223      3.296
REMARK INTER + INTRA:          -6.703
REMARK INTER:                  -6.401
REMARK INTRA:                  -0.302
REMARK UNBOUND:                -0.612
REMARK  Name = 
REMARK  5 active torsions:
REMARK  status: ('A' for Active; 'I' for Inactive)
REMARK    1  A    between atoms: N_1  and  C_2
REMARK    2  A    between atoms: C_2  and  C_3
REMARK    3  A    between atoms: C_6  and  O_7
REMARK    4  A    between atoms: O_7  and  C_8
REMARK    5  A    between atoms: C_8  and  C_9
REMARK                            x       y       z     vdW  Elec       q    Type
REMARK                         _______ _______ _______ _____ _____    ______ ____
ROOT
ATOM      1  C   UNL     1      44.863   3.213   9.627  0.00  0.00    +0.000 A 
ATOM      2  C   UNL     1      44.528   3.120  10.987  0.00  0.00    +0.000 A 
ATOM      3  C   UNL     1      44.767   4.190  11.853  0.00  0.00    +0.000 A 
ATOM      4  C   UNL     1      45.356   5.361  11.375  0.00  0.00    +0.000 A 
ATOM      5  C   UNL     1      45.625   5.485  10.013  0.00  0.00    +0.000 A 
ATOM      6  C   UNL     1      45.395   4.416   9.147  0.00  0.00    +0.000 A 
ENDROOT
BRANCH   1   7
ATOM      7  C   UNL     1      44.691   2.039   8.700  0.00  0.00    +0.000 C 
BRANCH   7   8
ATOM      8  N   UNL     1      45.953   1.361   8.442  0.00  0.00    +0.000 NA
ATOM      9  H   UNL     1      46.219   1.517   7.472  0.00  0.00    +0.000 HD
ATOM     10  H   UNL     1      45.811   0.356   8.543  0.00  0.00    +0.000 HD
ENDBRANCH   7   8
ENDBRANCH   1   7
BRANCH   4  11
ATOM     11  O   UNL     1      45.639   6.319  12.315  0.00  0.00    +0.000 OA
BRANCH  11  12
ATOM     12  C   UNL     1      47.025   6.649  12.422  0.00  0.00    +0.000 C 
BRANCH  12  13
ATOM     13  C   UNL     1      47.560   6.193  13.753  0.00  0.00    +0.000 A 
ATOM     14  C   UNL     1      48.526   6.946  14.426  0.00  0.00    +0.000 A 
ATOM     15  C   UNL     1      48.970   6.506  15.662  0.00  0.00    +0.000 A 
ATOM     16  N   UNL     1      48.522   5.383  16.261  0.00  0.00    +0.000 NA
ATOM     17  C   UNL     1      47.596   4.666  15.591  0.00  0.00    +0.000 A 
ATOM     18  C   UNL     1      47.089   5.023  14.353  0.00  0.00    +0.000 A 
ENDBRANCH  12  13
ENDBRANCH  11  12
ENDBRANCH   4  11
TORSDOF 5
ENDMDL
MODEL 7
REMARK VINA RESULT:    -4.777      3.761      5.492
REMARK INTER + INTRA:          -6.646
REMARK INTER:                  -6.244
REMARK INTRA:                  -0.402
REMARK UNBOUND:                -0.612
REMARK  Name = 
REMARK  5 active torsions:
REMARK  status: ('A' for Active; 'I' for Inactive)
REMARK    1  A    between atoms: N_1  and  C_2
REMARK    2  A    between atoms: C_2  and  C_3
REMARK    3  A    between atoms: C_6  and  O_7
REMARK    4  A    between atoms: O_7  and  C_8
REMARK    5  A    between atoms: C_8  and  C_9
REMARK                            x       y       z     vdW  Elec       q    Type
REMARK                         _______ _______ _______ _____ _____    ______ ____
ROOT
ATOM      1  C   UNL     1      44.796   3.896  11.286  0.00  0.00    +0.000 A 
ATOM      2  C   UNL     1      45.048   5.115  10.637  0.00  0.00    +0.000 A 
ATOM      3  C   UNL     1      45.860   6.083  11.233  0.00  0.00    +0.000 A 
ATOM      4  C   UNL     1      46.420   5.852  12.490  0.00  0.00    +0.000 A 
ATOM      5  C   UNL     1      46.230   4.616  13.107  0.00  0.00    +0.000 A 
ATOM      6  C   UNL     1      45.413   3.650  12.518  0.00  0.00    +0.000 A 
ENDROOT
BRANCH   1   7
ATOM      7  C   UNL     1      43.855   2.879  10.696  0.00  0.00    +0.000 C 
BRANCH   7   8
ATOM      8  N   UNL     1      43.063   2.214  11.721  0.00  0.00    +0.000 NA
ATOM      9  H   UNL     1      42.154   2.668  11.781  0.00  0.00    +0.000 HD
ATOM     10  H   UNL     1      43.514   2.353  12.624  0.00  0.00    +0.000 HD
ENDBRANCH   7   8
ENDBRANCH   1   7
BRANCH   4  11
ATOM     11  O   UNL     1      47.123   6.895  13.037  0.00  0.00    +0.000 OA
BRANCH  11  12
ATOM     12  C   UNL     1      47.059   8.109  12.285  0.00  0.00    +0.000 C 
BRANCH  12  13
ATOM     13  C   UNL     1      48.446   8.543  11.893  0.00  0.00    +0.000 A 
ATOM     14  C   UNL     1      48.709   9.878  11.575  0.00  0.00    +0.000 A 
ATOM     15  C   UNL     1      50.005  10.241  11.248  0.00  0.00    +0.000 A 
ATOM     16  N   UNL     1      51.039   9.376  11.217  0.00  0.00    +0.000 NA
ATOM     17  C   UNL     1      50.763   8.089  11.519  0.00  0.00    +0.000 A 
ATOM     18  C   UNL     1      49.502   7.629  11.859  0.00  0.00    +0.000 A 
ENDBRANCH  12  13
ENDBRANCH  11  12
ENDBRANCH   4  11
TORSDOF 5
ENDMDL
MODEL 8
REMARK VINA RESULT:    -4.776      4.031      7.468
REMARK INTER + INTRA:          -6.645
REMARK INTER:                  -6.341
REMARK INTRA:                  -0.304
REMARK UNBOUND:                -0.612
REMARK  Name = 
REMARK  5 active torsions:
REMARK  status: ('A' for Active; 'I' for Inactive)
REMARK    1  A    between atoms: N_1  and  C_2
REMARK    2  A    between atoms: C_2  and  C_3
REMARK    3  A    between atoms: C_6  and  O_7
REMARK    4  A    between atoms: O_7  and  C_8
REMARK    5  A    between atoms: C_8  and  C_9
REMARK                            x       y       z     vdW  Elec       q    Type
REMARK                         _______ _______ _______ _____ _____    ______ ____
ROOT
ATOM      1  C   UNL     1      50.058   3.395  17.383  0.00  0.00    +0.000 A 
ATOM      2  C   UNL     1      49.537   4.695  17.296  0.00  0.00    +0.000 A 
ATOM      3  C   UNL     1      48.316   4.930  16.658  0.00  0.00    +0.000 A 
ATOM      4  C   UNL     1      47.607   3.872  16.088  0.00  0.00    +0.000 A 
ATOM      5  C   UNL     1      48.086   2.570  16.234  0.00  0.00    +0.000 A 
ATOM      6  C   UNL     1      49.308   2.333  16.863  0.00  0.00    +0.000 A 
ENDROOT
BRANCH   1   7
ATOM      7  C   UNL     1      51.412   3.137  17.991  0.00  0.00    +0.000 C 
BRANCH   7   8
ATOM      8  N   UNL     1      51.798   1.737  17.884  0.00  0.00    +0.000 NA
ATOM      9  H   UNL     1      52.184   1.571  16.957  0.00  0.00    +0.000 HD
ATOM     10  H   UNL     1      50.959   1.161  17.953  0.00  0.00    +0.000 HD
ENDBRANCH   7   8
ENDBRANCH   1   7
BRANCH   4  11
ATOM     11  O   UNL     1      46.469   4.210  15.402  0.00  0.00    +0.000 OA
BRANCH  11  12
ATOM     12  C   UNL     1      46.696   4.649  14.061  0.00  0.00    +0.000 C 
BRANCH  12  13
ATOM     13  C   UNL     1      45.458   4.431  13.233  0.00  0.00    +0.000 A 
ATOM     14  C   UNL     1      44.434   5.382  13.224  0.00  0.00    +0.000 A 
ATOM     15  C   UNL     1      43.324   5.157  12.426  0.00  0.00    +0.000 A 
ATOM     16  N   UNL     1      43.171   4.064  11.650  0.00  0.00    +0.000 NA
ATOM     17  C   UNL     1      44.167   3.154  11.679  0.00  0.00    +0.000 A 
ATOM     18  C   UNL     1      45.315   3.289  12.442  0.00  0.00    +0.000 A 
ENDBRANCH  12  13
ENDBRANCH  11  12
ENDBRANCH   4  11
TORSDOF 5
ENDMDL
MODEL 9
REMARK VINA RESULT:    -4.667      2.617      6.187
REMARK INTER + INTRA:          -6.507
REMARK INTER:                  -6.062
REMARK INTRA:                  -0.444
REMARK UNBOUND:                -0.612
REMARK  Name = 
REMARK  5 active torsions:
REMARK  status: ('A' for Active; 'I' for Inactive)
REMARK    1  A    between atoms: N_1  and  C_2
REMARK    2  A    between atoms: C_2  and  C_3
REMARK    3  A    between atoms: C_6  and  O_7
REMARK    4  A    between atoms: O_7  and  C_8
REMARK    5  A    between atoms: C_8  and  C_9
REMARK                            x       y       z     vdW  Elec       q    Type
REMARK                         _______ _______ _______ _____ _____    ______ ____
ROOT
ATOM      1  C   UNL     1      49.032   7.305  13.568  0.00  0.00    +0.000 A 
ATOM      2  C   UNL     1      47.945   6.587  14.090  0.00  0.00    +0.000 A 
ATOM      3  C   UNL     1      46.841   6.285  13.287  0.00  0.00    +0.000 A 
ATOM      4  C   UNL     1      46.804   6.707  11.958  0.00  0.00    +0.000 A 
ATOM      5  C   UNL     1      47.912   7.359  11.415  0.00  0.00    +0.000 A 
ATOM      6  C   UNL     1      49.011   7.670  12.217  0.00  0.00    +0.000 A 
ENDROOT
BRANCH   1   7
ATOM      7  C   UNL     1      50.188   7.713  14.443  0.00  0.00    +0.000 C 
BRANCH   7   8
ATOM      8  N   UNL     1      50.558   6.662  15.380  0.00  0.00    +0.000 NA
ATOM      9  H   UNL     1      51.192   7.049  16.076  0.00  0.00    +0.000 HD
ATOM     10  H   UNL     1      51.083   5.946  14.879  0.00  0.00    +0.000 HD
ENDBRANCH   7   8
ENDBRANCH   1   7
BRANCH   4  11
ATOM     11  O   UNL     1      45.643   6.448  11.276  0.00  0.00    +0.000 OA
BRANCH  11  12
ATOM     12  C   UNL     1      45.064   5.173  11.560  0.00  0.00    +0.000 C 
BRANCH  12  13
ATOM     13  C   UNL     1      45.121   4.300  10.335  0.00  0.00    +0.000 A 
ATOM     14  C   UNL     1      44.673   2.976  10.385  0.00  0.00    +0.000 A 
ATOM     15  C   UNL     1      44.716   2.215   9.228  0.00  0.00    +0.000 A 
ATOM     16  N   UNL     1      45.169   2.678   8.045  0.00  0.00    +0.000 NA
ATOM     17  C   UNL     1      45.605   3.956   8.020  0.00  0.00    +0.000 A 
ATOM     18  C   UNL     1      45.601   4.796   9.121  0.00  0.00    +0.000 A 
ENDBRANCH  12  13
ENDBRANCH  11  12
ENDBRANCH   4  11
TORSDOF 5
ENDMDL
