MODEL 1
REMARK VINA RESULT:    -8.223      0.000      0.000
REMARK INTER + INTRA:         -11.831
REMARK INTER:                 -11.588
REMARK INTRA:                  -0.243
REMARK UNBOUND:                -0.243
REMARK  Name = 
REMARK  9 active torsions:
REMARK  status: ('A' for Active; 'I' for Inactive)
REMARK    1  A    between atoms: C_1  and  C_2
REMARK    2  A    between atoms: C_2  and  O_3
REMARK    3  A    between atoms: O_3  and  C_4
REMARK    4  A    between atoms: C_8  and  C_9
REMARK    5  A    between atoms: C_9  and  C_10
REMARK    6  A    between atoms: C_10  and  N_11
REMARK    7  A    between atoms: C_15  and  C_16
REMARK    8  A    between atoms: C_23  and  O_24
REMARK    9  A    between atoms: C_25  and  O_26
REMARK                            x       y       z     vdW  Elec       q    Type
REMARK                         _______ _______ _______ _____ _____    ______ ____
ROOT
ATOM      1  C   UNL     1      47.144   4.850  14.075  0.00  0.00    +0.000 A 
ATOM      2  C   UNL     1      47.905   5.891  13.554  0.00  0.00    +0.000 A 
ATOM      3  C   UNL     1      47.329   6.784  12.651  0.00  0.00    +0.000 A 
ATOM      4  C   UNL     1      45.984   6.662  12.290  0.00  0.00    +0.000 A 
ATOM      5  C   UNL     1      45.190   5.644  12.831  0.00  0.00    +0.000 A 
ATOM      6  C   UNL     1      45.795   4.752  13.736  0.00  0.00    +0.000 A 
ENDROOT
BRANCH   1   7
ATOM      7  O   UNL     1      47.620   3.879  14.921  0.00  0.00    +0.000 OA
BRANCH   7   9
ATOM      8  C   UNL     1      48.611   5.661  16.323  0.00  0.00    +0.000 C 
ATOM      9  C   UNL     1      48.046   4.237  16.267  0.00  0.00    +0.000 C 
ATOM     10  C   UNL     1      49.066   3.217  16.866  0.00  0.00    +0.000 C 
ATOM     11  C   UNL     1      48.240   3.152  18.158  0.00  0.00    +0.000 C 
ATOM     12  C   UNL     1      47.068   3.850  17.424  0.00  0.00    +0.000 C 
BRANCH  11  13
ATOM     13  O   UNL     1      48.749   3.861  19.313  0.00  0.00    +0.000 OA
ATOM     14  H   UNL     1      48.934   4.769  19.019  0.00  0.00    +0.000 HD
ENDBRANCH  11  13
BRANCH  12  15
ATOM     15  O   UNL     1      46.451   4.945  18.146  0.00  0.00    +0.000 OA
ATOM     16  H   UNL     1      46.027   5.483  17.449  0.00  0.00    +0.000 HD
ENDBRANCH  12  15
ENDBRANCH   7   9
ENDBRANCH   1   7
BRANCH   5  17
ATOM     17  C   UNL     1      43.730   5.529  12.416  0.00  0.00    +0.000 C 
BRANCH  17  18
ATOM     18  C   UNL     1      43.551   5.037  10.977  0.00  0.00    +0.000 C 
BRANCH  18  19
ATOM     19  N   UNL     1      43.706   3.587  10.819  0.00  0.00    +0.000 N 
ATOM     20  C   UNL     1      44.608   3.303   9.761  0.00  0.00    +0.000 A 
ATOM     21  C   UNL     1      44.912   1.979   9.421  0.00  0.00    +0.000 A 
ATOM     22  N   UNL     1      45.753   1.622   8.406  0.00  0.00    +0.000 NA
ATOM     23  C   UNL     1      46.297   2.673   7.735  0.00  0.00    +0.000 A 
ATOM     24  C   UNL     1      46.024   3.987   8.066  0.00  0.00    +0.000 A 
ATOM     25  N   UNL     1      45.184   4.318   9.077  0.00  0.00    +0.000 NA
ATOM     26  H   UNL     1      42.819   3.132  10.613  0.00  0.00    +0.000 HD
BRANCH  23  27
ATOM     27  C   UNL     1      47.212   2.391   6.594  0.00  0.00    +0.000 C 
ATOM     28  N   UNL     1      47.172   3.270   5.547  0.00  0.00    +0.000 N 
ATOM     29  O   UNL     1      47.963   1.422   6.588  0.00  0.00    +0.000 OA
ATOM     30  H   UNL     1      46.539   4.061   5.561  0.00  0.00    +0.000 HD
ATOM     31  H   UNL     1      47.774   3.111   4.752  0.00  0.00    +0.000 HD
ENDBRANCH  23  27
ENDBRANCH  18  19
ENDBRANCH  17  18
ENDBRANCH   5  17
TORSDOF 8
ENDMDL
MODEL 2
REMARK VINA RESULT:    -7.816      2.686      4.053
REMARK INTER + INTRA:         -11.257
REMARK INTER:                 -10.539
REMARK INTRA:                  -0.718
REMARK UNBOUND:                -0.243
REMARK  Name = 
REMARK  9 active torsions:
REMARK  status: ('A' for Active; 'I' for Inactive)
REMARK    1  A    between atoms: C_1  and  C_2
REMARK    2  A    between atoms: C_2  and  O_3
REMARK    3  A    between atoms: O_3  and  C_4
REMARK    4  A    between atoms: C_8  and  C_9
REMARK    5  A    between atoms: C_9  and  C_10
REMARK    6  A    between atoms: C_10  and  N_11
REMARK    7  A    between atoms: C_15  and  C_16
REMARK    8  A    between atoms: C_23  and  O_24
REMARK    9  A    between atoms: C_25  and  O_26
REMARK                            x       y       z     vdW  Elec       q    Type
REMARK                         _______ _______ _______ _____ _____    ______ ____
ROOT
ATOM      1  C   UNL     1      46.985   6.557  12.353  0.00  0.00    +0.000 A 
ATOM      2  C   UNL     1      47.585   5.701  13.270  0.00  0.00    +0.000 A 
ATOM      3  C   UNL     1      46.853   4.644  13.811  0.00  0.00    +0.000 A 
ATOM      4  C   UNL     1      45.532   4.418  13.415  0.00  0.00    +0.000 A 
ATOM      5  C   UNL     1      44.921   5.245  12.465  0.00  0.00    +0.000 A 
ATOM      6  C   UNL     1      45.678   6.308  11.937  0.00  0.00    +0.000 A 
ENDROOT
BRANCH   1   7
ATOM      7  O   UNL     1      47.588   7.661  11.803  0.00  0.00    +0.000 OA
BRANCH   7   9
ATOM      8  C   UNL     1      46.172   9.624  12.314  0.00  0.00    +0.000 C 
ATOM      9  C   UNL     1      47.531   8.939  12.498  0.00  0.00    +0.000 C 
ATOM     10  C   UNL     1      48.691   9.900  12.086  0.00  0.00    +0.000 C 
ATOM     11  C   UNL     1      48.988  10.175  13.567  0.00  0.00    +0.000 C 
ATOM     12  C   UNL     1      48.109   8.958  13.951  0.00  0.00    +0.000 C 
BRANCH  11  13
ATOM     13  O   UNL     1      48.552  11.443  14.112  0.00  0.00    +0.000 OA
ATOM     14  H   UNL     1      49.056  12.131  13.645  0.00  0.00    +0.000 HD
ENDBRANCH  11  13
BRANCH  12  15
ATOM     15  O   UNL     1      47.162   9.194  15.023  0.00  0.00    +0.000 OA
ATOM     16  H   UNL     1      47.438   8.575  15.726  0.00  0.00    +0.000 HD
ENDBRANCH  12  15
ENDBRANCH   7   9
ENDBRANCH   1   7
BRANCH   5  17
ATOM     17  C   UNL     1      43.478   4.982  12.056  0.00  0.00    +0.000 C 
BRANCH  17  18
ATOM     18  C   UNL     1      43.348   4.430  10.633  0.00  0.00    +0.000 C 
BRANCH  18  19
ATOM     19  N   UNL     1      43.854   3.062  10.477  0.00  0.00    +0.000 N 
ATOM     20  C   UNL     1      44.764   2.998   9.390  0.00  0.00    +0.000 A 
ATOM     21  C   UNL     1      45.377   1.786   9.046  0.00  0.00    +0.000 A 
ATOM     22  N   UNL     1      46.248   1.637   8.005  0.00  0.00    +0.000 NA
ATOM     23  C   UNL     1      46.492   2.782   7.311  0.00  0.00    +0.000 A 
ATOM     24  C   UNL     1      45.911   3.991   7.645  0.00  0.00    +0.000 A 
ATOM     25  N   UNL     1      45.048   4.115   8.682  0.00  0.00    +0.000 NA
ATOM     26  H   UNL     1      43.102   2.398  10.303  0.00  0.00    +0.000 HD
BRANCH  23  27
ATOM     27  C   UNL     1      47.411   2.721   6.141  0.00  0.00    +0.000 C 
ATOM     28  N   UNL     1      48.703   2.352   6.397  0.00  0.00    +0.000 N 
ATOM     29  O   UNL     1      47.034   2.987   5.005  0.00  0.00    +0.000 OA
ATOM     30  H   UNL     1      49.002   2.145   7.341  0.00  0.00    +0.000 HD
ATOM     31  H   UNL     1      49.359   2.303   5.630  0.00  0.00    +0.000 HD
ENDBRANCH  23  27
ENDBRANCH  18  19
ENDBRANCH  17  18
ENDBRANCH   5  17
TORSDOF 8
ENDMDL
MODEL 3
REMARK VINA RESULT:    -7.402      2.986      3.908
REMARK INTER + INTRA:         -10.674
REMARK INTER:                 -10.149
REMARK INTRA:                  -0.525
REMARK UNBOUND:                -0.243
REMARK  Name = 
REMARK  9 active torsions:
REMARK  status: ('A' for Active; 'I' for Inactive)
REMARK    1  A    between atoms: C_1  and  C_2
REMARK    2  A    between atoms: C_2  and  O_3
REMARK    3  A    between atoms: O_3  and  C_4
REMARK    4  A    between atoms: C_8  and  C_9
REMARK    5  A    between atoms: C_9  and  C_10
REMARK    6  A    between atoms: C_10  and  N_11
REMARK    7  A    between atoms: C_15  and  C_16
REMARK    8  A    between atoms: C_23  and  O_24
REMARK    9  A    between atoms: C_25  and  O_26
REMARK                            x       y       z     vdW  Elec       q    Type
REMARK                         _______ _______ _______ _____ _____    ______ ____
ROOT
ATOM      1  C   UNL     1      46.032   8.546  12.844  0.00  0.00    +0.000 A 
ATOM      2  C   UNL     1      45.393   9.390  11.943  0.00  0.00    +0.000 A 
ATOM      3  C   UNL     1      44.412   8.879  11.092  0.00  0.00    +0.000 A 
ATOM      4  C   UNL     1      44.045   7.532  11.159  0.00  0.00    +0.000 A 
ATOM      5  C   UNL     1      44.650   6.673  12.084  0.00  0.00    +0.000 A 
ATOM      6  C   UNL     1      45.640   7.211  12.929  0.00  0.00    +0.000 A 
ENDROOT
BRANCH   1   7
ATOM      7  O   UNL     1      47.050   8.925  13.684  0.00  0.00    +0.000 OA
BRANCH   7   9
ATOM      8  C   UNL     1      49.402   9.617  14.019  0.00  0.00    +0.000 C 
ATOM      9  C   UNL     1      48.433   8.662  13.311  0.00  0.00    +0.000 C 
ATOM     10  C   UNL     1      48.656   8.697  11.766  0.00  0.00    +0.000 C 
ATOM     11  C   UNL     1      49.411   7.363  11.845  0.00  0.00    +0.000 C 
ATOM     12  C   UNL     1      48.864   7.159  13.281  0.00  0.00    +0.000 C 
BRANCH  11  13
ATOM     13  O   UNL     1      50.854   7.404  11.739  0.00  0.00    +0.000 OA
ATOM     14  H   UNL     1      51.057   7.926  10.944  0.00  0.00    +0.000 HD
ENDBRANCH  11  13
BRANCH  12  15
ATOM     15  O   UNL     1      49.846   6.746  14.263  0.00  0.00    +0.000 OA
ATOM     16  H   UNL     1      50.467   6.185  13.760  0.00  0.00    +0.000 HD
ENDBRANCH  12  15
ENDBRANCH   7   9
ENDBRANCH   1   7
BRANCH   5  17
ATOM     17  C   UNL     1      44.237   5.208  12.132  0.00  0.00    +0.000 C 
BRANCH  17  18
ATOM     18  C   UNL     1      43.610   4.717  10.824  0.00  0.00    +0.000 C 
BRANCH  18  19
ATOM     19  N   UNL     1      43.795   3.283  10.576  0.00  0.00    +0.000 N 
ATOM     20  C   UNL     1      44.729   3.084   9.527  0.00  0.00    +0.000 A 
ATOM     21  C   UNL     1      45.066   1.790   9.110  0.00  0.00    +0.000 A 
ATOM     22  N   UNL     1      45.939   1.514   8.097  0.00  0.00    +0.000 NA
ATOM     23  C   UNL     1      46.482   2.616   7.511  0.00  0.00    +0.000 A 
ATOM     24  C   UNL     1      46.177   3.901   7.919  0.00  0.00    +0.000 A 
ATOM     25  N   UNL     1      45.305   4.151   8.926  0.00  0.00    +0.000 NA
ATOM     26  H   UNL     1      42.922   2.829  10.317  0.00  0.00    +0.000 HD
BRANCH  23  27
ATOM     27  C   UNL     1      47.431   2.424   6.379  0.00  0.00    +0.000 C 
ATOM     28  N   UNL     1      47.341   3.318   5.348  0.00  0.00    +0.000 N 
ATOM     29  O   UNL     1      48.252   1.513   6.368  0.00  0.00    +0.000 OA
ATOM     30  H   UNL     1      46.651   4.059   5.367  0.00  0.00    +0.000 HD
ATOM     31  H   UNL     1      47.964   3.219   4.560  0.00  0.00    +0.000 HD
ENDBRANCH  23  27
ENDBRANCH  18  19
ENDBRANCH  17  18
ENDBRANCH   5  17
TORSDOF 8
ENDMDL
MODEL 4
REMARK VINA RESULT:    -7.398      4.064      7.746
REMARK INTER + INTRA:         -10.668
REMARK INTER:                  -9.664
REMARK INTRA:                  -1.004
REMARK UNBOUND:                -0.243
REMARK  Name = 
REMARK  9 active torsions:
REMARK  status: ('A' for Active; 'I' for Inactive)
REMARK    1  A    between atoms: C_1  and  C_2
REMARK    2  A    between atoms: C_2  and  O_3
REMARK    3  A    between atoms: O_3  and  C_4
REMARK    4  A    between atoms: C_8  and  C_9
REMARK    5  A    between atoms: C_9  and  C_10
REMARK    6  A    between atoms: C_10  and  N_11
REMARK    7  A    between atoms: C_15  and  C_16
REMARK    8  A    between atoms: C_23  and  O_24
REMARK    9  A    between atoms: C_25  and  O_26
REMARK                            x       y       z     vdW  Elec       q    Type
REMARK                         _______ _______ _______ _____ _____    ______ ____
ROOT
ATOM      1  C   UNL     1      45.919   6.805  11.510  0.00  0.00    +0.000 A 
ATOM      2  C   UNL     1      44.839   7.680  11.479  0.00  0.00    +0.000 A 
ATOM      3  C   UNL     1      44.962   8.952  12.035  0.00  0.00    +0.000 A 
ATOM      4  C   UNL     1      46.173   9.367  12.598  0.00  0.00    +0.000 A 
ATOM      5  C   UNL     1      47.284   8.516  12.607  0.00  0.00    +0.000 A 
ATOM      6  C   UNL     1      47.134   7.235  12.044  0.00  0.00    +0.000 A 
ENDROOT
BRANCH   1   7
ATOM      7  O   UNL     1      45.894   5.512  11.048  0.00  0.00    +0.000 OA
BRANCH   7   9
ATOM      8  C   UNL     1      44.951   4.619  13.154  0.00  0.00    +0.000 C 
ATOM      9  C   UNL     1      44.957   4.556  11.622  0.00  0.00    +0.000 C 
ATOM     10  C   UNL     1      45.214   3.095  11.133  0.00  0.00    +0.000 C 
ATOM     11  C   UNL     1      43.721   2.940  10.815  0.00  0.00    +0.000 C 
ATOM     12  C   UNL     1      43.552   4.475  10.941  0.00  0.00    +0.000 C 
BRANCH  11  13
ATOM     13  O   UNL     1      42.919   2.158  11.733  0.00  0.00    +0.000 OA
ATOM     14  H   UNL     1      42.603   2.775  12.416  0.00  0.00    +0.000 HD
ENDBRANCH  11  13
BRANCH  12  15
ATOM     15  O   UNL     1      42.420   4.910  11.735  0.00  0.00    +0.000 OA
ATOM     16  H   UNL     1      41.653   4.792  11.143  0.00  0.00    +0.000 HD
ENDBRANCH  12  15
ENDBRANCH   7   9
ENDBRANCH   1   7
BRANCH   5  17
ATOM     17  C   UNL     1      48.589   8.990  13.232  0.00  0.00    +0.000 C 
BRANCH  17  18
ATOM     18  C   UNL     1      49.459   7.841  13.752  0.00  0.00    +0.000 C 
BRANCH  18  19
ATOM     19  N   UNL     1      49.721   7.897  15.194  0.00  0.00    +0.000 N 
ATOM     20  C   UNL     1      49.163   6.762  15.837  0.00  0.00    +0.000 A 
ATOM     21  C   UNL     1      49.285   6.599  17.223  0.00  0.00    +0.000 A 
ATOM     22  N   UNL     1      48.761   5.547  17.919  0.00  0.00    +0.000 NA
ATOM     23  C   UNL     1      48.102   4.639  17.149  0.00  0.00    +0.000 A 
ATOM     24  C   UNL     1      47.985   4.773  15.778  0.00  0.00    +0.000 A 
ATOM     25  N   UNL     1      48.512   5.827  15.108  0.00  0.00    +0.000 NA
ATOM     26  H   UNL     1      49.323   8.733  15.618  0.00  0.00    +0.000 HD
BRANCH  23  27
ATOM     27  C   UNL     1      47.473   3.465  17.816  0.00  0.00    +0.000 C 
ATOM     28  N   UNL     1      48.122   2.963  18.910  0.00  0.00    +0.000 N 
ATOM     29  O   UNL     1      46.427   2.971  17.409  0.00  0.00    +0.000 OA
ATOM     30  H   UNL     1      48.991   3.376  19.228  0.00  0.00    +0.000 HD
ATOM     31  H   UNL     1      47.730   2.164  19.387  0.00  0.00    +0.000 HD
ENDBRANCH  23  27
ENDBRANCH  18  19
ENDBRANCH  17  18
ENDBRANCH   5  17
TORSDOF 8
ENDMDL
MODEL 5
REMARK VINA RESULT:    -7.210      2.029      2.592
REMARK INTER + INTRA:         -10.403
REMARK INTER:                  -9.670
REMARK INTRA:                  -0.733
REMARK UNBOUND:                -0.243
REMARK  Name = 
REMARK  9 active torsions:
REMARK  status: ('A' for Active; 'I' for Inactive)
REMARK    1  A    between atoms: C_1  and  C_2
REMARK    2  A    between atoms: C_2  and  O_3
REMARK    3  A    between atoms: O_3  and  C_4
REMARK    4  A    between atoms: C_8  and  C_9
REMARK    5  A    between atoms: C_9  and  C_10
REMARK    6  A    between atoms: C_10  and  N_11
REMARK    7  A    between atoms: C_15  and  C_16
REMARK    8  A    between atoms: C_23  and  O_24
REMARK    9  A    between atoms: C_25  and  O_26
REMARK                            x       y       z     vdW  Elec       q    Type
REMARK                         _______ _______ _______ _____ _____    ______ ____
ROOT
ATOM      1  C   UNL     1      47.831   6.270  13.709  0.00  0.00    +0.000 A 
ATOM      2  C   UNL     1      48.423   6.902  12.621  0.00  0.00    +0.000 A 
ATOM      3  C   UNL     1      47.697   7.078  11.444  0.00  0.00    +0.000 A 
ATOM      4  C   UNL     1      46.368   6.651  11.357  0.00  0.00    +0.000 A 
ATOM      5  C   UNL     1      45.742   6.046  12.452  0.00  0.00    +0.000 A 
ATOM      6  C   UNL     1      46.496   5.875  13.628  0.00  0.00    +0.000 A 
ENDROOT
BRANCH   1   7
ATOM      7  O   UNL     1      48.467   5.990  14.893  0.00  0.00    +0.000 OA
BRANCH   7   9
ATOM      8  C   UNL     1      50.601   7.102  15.467  0.00  0.00    +0.000 C 
ATOM      9  C   UNL     1      49.080   7.066  15.658  0.00  0.00    +0.000 C 
ATOM     10  C   UNL     1      48.718   7.006  17.176  0.00  0.00    +0.000 C 
ATOM     11  C   UNL     1      48.359   8.498  17.149  0.00  0.00    +0.000 C 
ATOM     12  C   UNL     1      48.356   8.451  15.600  0.00  0.00    +0.000 C 
BRANCH  11  13
ATOM     13  O   UNL     1      49.305   9.425  17.732  0.00  0.00    +0.000 OA
ATOM     14  H   UNL     1      49.349  10.188  17.131  0.00  0.00    +0.000 HD
ENDBRANCH  11  13
BRANCH  12  15
ATOM     15  O   UNL     1      49.071   9.530  14.947  0.00  0.00    +0.000 OA
ATOM     16  H   UNL     1      49.220   9.203  14.039  0.00  0.00    +0.000 HD
ENDBRANCH  12  15
ENDBRANCH   7   9
ENDBRANCH   1   7
BRANCH   5  17
ATOM     17  C   UNL     1      44.296   5.584  12.330  0.00  0.00    +0.000 C 
BRANCH  17  18
ATOM     18  C   UNL     1      43.935   5.102  10.922  0.00  0.00    +0.000 C 
BRANCH  18  19
ATOM     19  N   UNL     1      44.035   3.649  10.745  0.00  0.00    +0.000 N 
ATOM     20  C   UNL     1      44.883   3.346   9.649  0.00  0.00    +0.000 A 
ATOM     21  C   UNL     1      45.128   2.016   9.286  0.00  0.00    +0.000 A 
ATOM     22  N   UNL     1      45.915   1.642   8.234  0.00  0.00    +0.000 NA
ATOM     23  C   UNL     1      46.467   2.681   7.551  0.00  0.00    +0.000 A 
ATOM     24  C   UNL     1      46.252   4.000   7.903  0.00  0.00    +0.000 A 
ATOM     25  N   UNL     1      45.465   4.348   8.950  0.00  0.00    +0.000 NA
ATOM     26  H   UNL     1      43.125   3.227  10.572  0.00  0.00    +0.000 HD
BRANCH  23  27
ATOM     27  C   UNL     1      47.324   2.379   6.371  0.00  0.00    +0.000 C 
ATOM     28  N   UNL     1      47.219   3.231   5.306  0.00  0.00    +0.000 N 
ATOM     29  O   UNL     1      48.087   1.419   6.350  0.00  0.00    +0.000 OA
ATOM     30  H   UNL     1      46.578   4.014   5.333  0.00  0.00    +0.000 HD
ATOM     31  H   UNL     1      47.781   3.058   4.484  0.00  0.00    +0.000 HD
ENDBRANCH  23  27
ENDBRANCH  18  19
ENDBRANCH  17  18
ENDBRANCH   5  17
TORSDOF 8
ENDMDL
MODEL 6
REMARK VINA RESULT:    -7.203      2.575      4.315
REMARK INTER + INTRA:         -10.394
REMARK INTER:                  -9.826
REMARK INTRA:                  -0.568
REMARK UNBOUND:                -0.243
REMARK  Name = 
REMARK  9 active torsions:
REMARK  status: ('A' for Active; 'I' for Inactive)
REMARK    1  A    between atoms: C_1  and  C_2
REMARK    2  A    between atoms: C_2  and  O_3
REMARK    3  A    between atoms: O_3  and  C_4
REMARK    4  A    between atoms: C_8  and  C_9
REMARK    5  A    between atoms: C_9  and  C_10
REMARK    6  A    between atoms: C_10  and  N_11
REMARK    7  A    between atoms: C_15  and  C_16
REMARK    8  A    between atoms: C_23  and  O_24
REMARK    9  A    between atoms: C_25  and  O_26
REMARK                            x       y       z     vdW  Elec       q    Type
REMARK                         _______ _______ _______ _____ _____    ______ ____
ROOT
ATOM      1  C   UNL     1      49.335   7.036  17.412  0.00  0.00    +0.000 A 
ATOM      2  C   UNL     1      48.973   8.120  18.204  0.00  0.00    +0.000 A 
ATOM      3  C   UNL     1      48.603   9.323  17.604  0.00  0.00    +0.000 A 
ATOM      4  C   UNL     1      48.562   9.439  16.212  0.00  0.00    +0.000 A 
ATOM      5  C   UNL     1      48.886   8.350  15.396  0.00  0.00    +0.000 A 
ATOM      6  C   UNL     1      49.261   7.147  16.024  0.00  0.00    +0.000 A 
ENDROOT
BRANCH   1   7
ATOM      7  O   UNL     1      49.772   5.826  17.892  0.00  0.00    +0.000 OA
BRANCH   7   9
ATOM      8  C   UNL     1      48.913   4.425  19.742  0.00  0.00    +0.000 C 
ATOM      9  C   UNL     1      48.807   4.800  18.258  0.00  0.00    +0.000 C 
ATOM     10  C   UNL     1      48.913   3.526  17.361  0.00  0.00    +0.000 C 
ATOM     11  C   UNL     1      47.394   3.550  17.147  0.00  0.00    +0.000 C 
ATOM     12  C   UNL     1      47.355   4.993  17.711  0.00  0.00    +0.000 C 
BRANCH  11  13
ATOM     13  O   UNL     1      46.600   2.585  17.878  0.00  0.00    +0.000 OA
ATOM     14  H   UNL     1      46.135   3.082  18.573  0.00  0.00    +0.000 HD
ENDBRANCH  11  13
BRANCH  12  15
ATOM     15  O   UNL     1      46.319   5.246  18.693  0.00  0.00    +0.000 OA
ATOM     16  H   UNL     1      46.809   5.526  19.490  0.00  0.00    +0.000 HD
ENDBRANCH  12  15
ENDBRANCH   7   9
ENDBRANCH   1   7
BRANCH   5  17
ATOM     17  C   UNL     1      48.840   8.505  13.881  0.00  0.00    +0.000 C 
BRANCH  17  18
ATOM     18  C   UNL     1      47.514   8.044  13.270  0.00  0.00    +0.000 C 
BRANCH  18  19
ATOM     19  N   UNL     1      46.989   6.802  13.850  0.00  0.00    +0.000 N 
ATOM     20  C   UNL     1      46.320   6.042  12.857  0.00  0.00    +0.000 A 
ATOM     21  C   UNL     1      45.732   4.812  13.178  0.00  0.00    +0.000 A 
ATOM     22  N   UNL     1      45.054   4.031  12.287  0.00  0.00    +0.000 NA
ATOM     23  C   UNL     1      44.997   4.540  11.027  0.00  0.00    +0.000 A 
ATOM     24  C   UNL     1      45.586   5.743  10.685  0.00  0.00    +0.000 A 
ATOM     25  N   UNL     1      46.252   6.504  11.587  0.00  0.00    +0.000 NA
ATOM     26  H   UNL     1      46.334   6.987  14.607  0.00  0.00    +0.000 HD
BRANCH  23  27
ATOM     27  C   UNL     1      44.260   3.775   9.983  0.00  0.00    +0.000 C 
ATOM     28  N   UNL     1      44.131   4.375   8.761  0.00  0.00    +0.000 N 
ATOM     29  O   UNL     1      43.791   2.663  10.204  0.00  0.00    +0.000 OA
ATOM     30  H   UNL     1      44.515   5.297   8.597  0.00  0.00    +0.000 HD
ATOM     31  H   UNL     1      43.634   3.890   8.028  0.00  0.00    +0.000 HD
ENDBRANCH  23  27
ENDBRANCH  18  19
ENDBRANCH  17  18
ENDBRANCH   5  17
TORSDOF 8
ENDMDL
MODEL 7
REMARK VINA RESULT:    -6.741      2.843      4.596
REMARK INTER + INTRA:          -9.742
REMARK INTER:                  -9.170
REMARK INTRA:                  -0.572
REMARK UNBOUND:                -0.243
REMARK  Name = 
REMARK  9 active torsions:
REMARK  status: ('A' for Active; 'I' for Inactive)
REMARK    1  A    between atoms: C_1  and  C_2
REMARK    2  A    between atoms: C_2  and  O_3
REMARK    3  A    between atoms: O_3  and  C_4
REMARK    4  A    between atoms: C_8  and  C_9
REMARK    5  A    between atoms: C_9  and  C_10
REMARK    6  A    between atoms: C_10  and  N_11
REMARK    7  A    between atoms: C_15  and  C_16
REMARK    8  A    between atoms: C_23  and  O_24
REMARK    9  A    between atoms: C_25  and  O_26
REMARK                            x       y       z     vdW  Elec       q    Type
REMARK                         _______ _______ _______ _____ _____    ______ ____
ROOT
ATOM      1  C   UNL     1      49.554   7.521  17.678  0.00  0.00    +0.000 A 
ATOM      2  C   UNL     1      50.829   7.174  17.245  0.00  0.00    +0.000 A 
ATOM      3  C   UNL     1      51.164   7.309  15.898  0.00  0.00    +0.000 A 
ATOM      4  C   UNL     1      50.237   7.819  14.983  0.00  0.00    +0.000 A 
ATOM      5  C   UNL     1      48.960   8.208  15.404  0.00  0.00    +0.000 A 
ATOM      6  C   UNL     1      48.645   8.059  16.768  0.00  0.00    +0.000 A 
ENDROOT
BRANCH   1   7
ATOM      7  O   UNL     1      49.097   7.374  18.964  0.00  0.00    +0.000 OA
BRANCH   7   9
ATOM      8  C   UNL     1      47.505   6.286  20.514  0.00  0.00    +0.000 C 
ATOM      9  C   UNL     1      48.535   6.102  19.393  0.00  0.00    +0.000 C 
ATOM     10  C   UNL     1      49.631   5.073  19.817  0.00  0.00    +0.000 C 
ATOM     11  C   UNL     1      48.962   4.002  18.944  0.00  0.00    +0.000 C 
ATOM     12  C   UNL     1      48.128   5.111  18.254  0.00  0.00    +0.000 C 
BRANCH  11  13
ATOM     13  O   UNL     1      48.188   2.980  19.615  0.00  0.00    +0.000 OA
ATOM     14  H   UNL     1      47.256   3.249  19.543  0.00  0.00    +0.000 HD
ENDBRANCH  11  13
BRANCH  12  15
ATOM     15  O   UNL     1      46.713   4.825  18.118  0.00  0.00    +0.000 OA
ATOM     16  H   UNL     1      46.637   3.878  18.346  0.00  0.00    +0.000 HD
ENDBRANCH  12  15
ENDBRANCH   7   9
ENDBRANCH   1   7
BRANCH   5  17
ATOM     17  C   UNL     1      47.967   8.754  14.387  0.00  0.00    +0.000 C 
BRANCH  17  18
ATOM     18  C   UNL     1      47.416   7.678  13.447  0.00  0.00    +0.000 C 
BRANCH  18  19
ATOM     19  N   UNL     1      47.384   6.334  14.034  0.00  0.00    +0.000 N 
ATOM     20  C   UNL     1      46.575   5.475  13.247  0.00  0.00    +0.000 A 
ATOM     21  C   UNL     1      46.393   4.136  13.614  0.00  0.00    +0.000 A 
ATOM     22  N   UNL     1      45.616   3.251  12.923  0.00  0.00    +0.000 NA
ATOM     23  C   UNL     1      45.023   3.773  11.815  0.00  0.00    +0.000 A 
ATOM     24  C   UNL     1      45.204   5.087  11.426  0.00  0.00    +0.000 A 
ATOM     25  N   UNL     1      45.979   5.948  12.129  0.00  0.00    +0.000 NA
ATOM     26  H   UNL     1      47.012   6.345  14.982  0.00  0.00    +0.000 HD
BRANCH  23  27
ATOM     27  C   UNL     1      44.136   2.895  11.003  0.00  0.00    +0.000 C 
ATOM     28  N   UNL     1      44.697   2.311   9.901  0.00  0.00    +0.000 N 
ATOM     29  O   UNL     1      42.962   2.703  11.302  0.00  0.00    +0.000 OA
ATOM     30  H   UNL     1      45.665   2.487   9.660  0.00  0.00    +0.000 HD
ATOM     31  H   UNL     1      44.127   1.711   9.321  0.00  0.00    +0.000 HD
ENDBRANCH  23  27
ENDBRANCH  18  19
ENDBRANCH  17  18
ENDBRANCH   5  17
TORSDOF 8
ENDMDL
MODEL 8
REMARK VINA RESULT:    -6.714      2.370      3.948
REMARK INTER + INTRA:          -9.704
REMARK INTER:                  -9.023
REMARK INTRA:                  -0.681
REMARK UNBOUND:                -0.243
REMARK  Name = 
REMARK  9 active torsions:
REMARK  status: ('A' for Active; 'I' for Inactive)
REMARK    1  A    between atoms: C_1  and  C_2
REMARK    2  A    between atoms: C_2  and  O_3
REMARK    3  A    between atoms: O_3  and  C_4
REMARK    4  A    between atoms: C_8  and  C_9
REMARK    5  A    between atoms: C_9  and  C_10
REMARK    6  A    between atoms: C_10  and  N_11
REMARK    7  A    between atoms: C_15  and  C_16
REMARK    8  A    between atoms: C_23  and  O_24
REMARK    9  A    between atoms: C_25  and  O_26
REMARK                            x       y       z     vdW  Elec       q    Type
REMARK                         _______ _______ _______ _____ _____    ______ ____
ROOT
ATOM      1  C   UNL     1      47.005   5.583  13.988  0.00  0.00    +0.000 A 
ATOM      2  C   UNL     1      47.463   4.271  13.960  0.00  0.00    +0.000 A 
ATOM      3  C   UNL     1      46.664   3.271  13.405  0.00  0.00    +0.000 A 
ATOM      4  C   UNL     1      45.421   3.582  12.848  0.00  0.00    +0.000 A 
ATOM      5  C   UNL     1      44.957   4.903  12.832  0.00  0.00    +0.000 A 
ATOM      6  C   UNL     1      45.779   5.894  13.402  0.00  0.00    +0.000 A 
ENDROOT
BRANCH   1   7
ATOM      7  O   UNL     1      47.678   6.635  14.561  0.00  0.00    +0.000 OA
BRANCH   7   9
ATOM      8  C   UNL     1      49.662   7.124  13.167  0.00  0.00    +0.000 C 
ATOM      9  C   UNL     1      48.322   7.629  13.715  0.00  0.00    +0.000 C 
ATOM     10  C   UNL     1      48.506   9.003  14.435  0.00  0.00    +0.000 C 
ATOM     11  C   UNL     1      47.914   9.721  13.214  0.00  0.00    +0.000 C 
ATOM     12  C   UNL     1      47.400   8.358  12.684  0.00  0.00    +0.000 C 
BRANCH  11  13
ATOM     13  O   UNL     1      48.831  10.414  12.336  0.00  0.00    +0.000 OA
ATOM     14  H   UNL     1      49.606  10.648  12.876  0.00  0.00    +0.000 HD
ENDBRANCH  11  13
BRANCH  12  15
ATOM     15  O   UNL     1      47.664   8.102  11.282  0.00  0.00    +0.000 OA
ATOM     16  H   UNL     1      47.055   8.702  10.810  0.00  0.00    +0.000 HD
ENDBRANCH  12  15
ENDBRANCH   7   9
ENDBRANCH   1   7
BRANCH   5  17
ATOM     17  C   UNL     1      43.596   5.215  12.225  0.00  0.00    +0.000 C 
BRANCH  17  18
ATOM     18  C   UNL     1      43.399   4.593  10.839  0.00  0.00    +0.000 C 
BRANCH  18  19
ATOM     19  N   UNL     1      44.200   5.223   9.784  0.00  0.00    +0.000 N 
ATOM     20  C   UNL     1      44.964   4.244   9.099  0.00  0.00    +0.000 A 
ATOM     21  C   UNL     1      45.812   4.612   8.047  0.00  0.00    +0.000 A 
ATOM     22  N   UNL     1      46.595   3.736   7.351  0.00  0.00    +0.000 NA
ATOM     23  C   UNL     1      46.482   2.442   7.756  0.00  0.00    +0.000 A 
ATOM     24  C   UNL     1      45.639   2.055   8.781  0.00  0.00    +0.000 A 
ATOM     25  N   UNL     1      44.872   2.944   9.459  0.00  0.00    +0.000 NA
ATOM     26  H   UNL     1      44.837   5.922  10.160  0.00  0.00    +0.000 HD
BRANCH  23  27
ATOM     27  C   UNL     1      47.312   1.409   7.076  0.00  0.00    +0.000 C 
ATOM     28  N   UNL     1      48.444   1.851   6.447  0.00  0.00    +0.000 N 
ATOM     29  O   UNL     1      47.002   0.223   7.076  0.00  0.00    +0.000 OA
ATOM     30  H   UNL     1      48.682   2.835   6.446  0.00  0.00    +0.000 HD
ATOM     31  H   UNL     1      49.031   1.182   5.970  0.00  0.00    +0.000 HD
ENDBRANCH  23  27
ENDBRANCH  18  19
ENDBRANCH  17  18
ENDBRANCH   5  17
TORSDOF 8
ENDMDL
MODEL 9
REMARK VINA RESULT:    -6.349      3.355      5.666
REMARK INTER + INTRA:          -9.191
REMARK INTER:                  -8.443
REMARK INTRA:                  -0.748
REMARK UNBOUND:                -0.243
REMARK  Name = 
REMARK  9 active torsions:
REMARK  status: ('A' for Active; 'I' for Inactive)
REMARK    1  A    between atoms: C_1  and  C_2
REMARK    2  A    between atoms: C_2  and  O_3
REMARK    3  A    between atoms: O_3  and  C_4
REMARK    4  A    between atoms: C_8  and  C_9
REMARK    5  A    between atoms: C_9  and  C_10
REMARK    6  A    between atoms: C_10  and  N_11
REMARK    7  A    between atoms: C_15  and  C_16
REMARK    8  A    between atoms: C_23  and  O_24
REMARK    9  A    between atoms: C_25  and  O_26
REMARK                            x       y       z     vdW  Elec       q    Type
REMARK                         _______ _______ _______ _____ _____    ______ ____
ROOT
ATOM      1  C   UNL     1      49.210   7.049  18.121  0.00  0.00    +0.000 A 
ATOM      2  C   UNL     1      48.601   7.433  19.311  0.00  0.00    +0.000 A 
ATOM      3  C   UNL     1      47.515   6.707  19.798  0.00  0.00    +0.000 A 
ATOM      4  C   UNL     1      47.051   5.578  19.117  0.00  0.00    +0.000 A 
ATOM      5  C   UNL     1      47.673   5.152  17.938  0.00  0.00    +0.000 A 
ATOM      6  C   UNL     1      48.765   5.903  17.464  0.00  0.00    +0.000 A 
ENDROOT
BRANCH   1   7
ATOM      7  O   UNL     1      50.244   7.721  17.518  0.00  0.00    +0.000 OA
BRANCH   7   9
ATOM      8  C   UNL     1      50.756   7.629  15.100  0.00  0.00    +0.000 C 
ATOM      9  C   UNL     1      50.034   8.370  16.232  0.00  0.00    +0.000 C 
ATOM     10  C   UNL     1      50.438   9.878  16.246  0.00  0.00    +0.000 C 
ATOM     11  C   UNL     1      49.100  10.241  15.587  0.00  0.00    +0.000 C 
ATOM     12  C   UNL     1      48.571   8.824  15.920  0.00  0.00    +0.000 C 
BRANCH  11  13
ATOM     13  O   UNL     1      49.117  10.573  14.178  0.00  0.00    +0.000 OA
ATOM     14  H   UNL     1      49.827  11.228  14.058  0.00  0.00    +0.000 HD
ENDBRANCH  11  13
BRANCH  12  15
ATOM     15  O   UNL     1      47.898   8.143  14.832  0.00  0.00    +0.000 OA
ATOM     16  H   UNL     1      47.512   7.348  15.248  0.00  0.00    +0.000 HD
ENDBRANCH  12  15
ENDBRANCH   7   9
ENDBRANCH   1   7
BRANCH   5  17
ATOM     17  C   UNL     1      47.145   3.922  17.212  0.00  0.00    +0.000 C 
BRANCH  17  18
ATOM     18  C   UNL     1      47.426   3.946  15.707  0.00  0.00    +0.000 C 
BRANCH  18  19
ATOM     19  N   UNL     1      46.938   5.151  15.028  0.00  0.00    +0.000 N 
ATOM     20  C   UNL     1      46.223   4.797  13.855  0.00  0.00    +0.000 A 
ATOM     21  C   UNL     1      45.663   5.787  13.038  0.00  0.00    +0.000 A 
ATOM     22  N   UNL     1      44.979   5.531  11.884  0.00  0.00    +0.000 NA
ATOM     23  C   UNL     1      44.868   4.209  11.581  0.00  0.00    +0.000 A 
ATOM     24  C   UNL     1      45.399   3.216  12.382  0.00  0.00    +0.000 A 
ATOM     25  N   UNL     1      46.076   3.494  13.523  0.00  0.00    +0.000 NA
ATOM     26  H   UNL     1      47.701   5.771  14.764  0.00  0.00    +0.000 HD
BRANCH  23  27
ATOM     27  C   UNL     1      44.159   3.825  10.329  0.00  0.00    +0.000 C 
ATOM     28  N   UNL     1      43.970   4.814   9.404  0.00  0.00    +0.000 N 
ATOM     29  O   UNL     1      43.763   2.681  10.132  0.00  0.00    +0.000 OA
ATOM     30  H   UNL     1      44.293   5.757   9.585  0.00  0.00    +0.000 HD
ATOM     31  H   UNL     1      43.489   4.595   8.544  0.00  0.00    +0.000 HD
ENDBRANCH  23  27
ENDBRANCH  18  19
ENDBRANCH  17  18
ENDBRANCH   5  17
TORSDOF 8
ENDMDL
