MODEL 1
REMARK VINA RESULT:    -7.031      0.000      0.000
REMARK INTER + INTRA:          -9.740
REMARK INTER:                  -9.292
REMARK INTRA:                  -0.448
REMARK UNBOUND:                -0.448
REMARK  Name = 
REMARK  6 active torsions:
REMARK  status: ('A' for Active; 'I' for Inactive)
REMARK    1  A    between atoms: N_1  and  C_2
REMARK    2  A    between atoms: C_2  and  C_3
REMARK    3  A    between atoms: C_8  and  C_9
REMARK    4  A    between atoms: C_9  and  C_10
REMARK    5  A    between atoms: N_13  and  C_14
REMARK    6  A    between atoms: C_14  and  C_15
REMARK                            x       y       z     vdW  Elec       q    Type
REMARK                         _______ _______ _______ _____ _____    ______ ____
ROOT
ATOM      1  C   UNL     1      46.870   1.825   6.681  0.00  0.00    +0.000 C 
ATOM      2  O   UNL     1      47.027   0.535   7.335  0.00  0.00    +0.000 OA
ATOM      3  C   UNL     1      45.951   0.353   8.289  0.00  0.00    +0.000 C 
ATOM      4  C   UNL     1      45.448   1.723   8.554  0.00  0.00    +0.000 A 
ATOM      5  C   UNL     1      44.588   2.215   9.522  0.00  0.00    +0.000 A 
ATOM      6  C   UNL     1      44.335   3.595   9.538  0.00  0.00    +0.000 A 
ATOM      7  C   UNL     1      44.976   4.386   8.579  0.00  0.00    +0.000 A 
ATOM      8  N   UNL     1      45.776   3.914   7.599  0.00  0.00    +0.000 NA
ATOM      9  C   UNL     1      45.993   2.588   7.632  0.00  0.00    +0.000 A 
ENDROOT
BRANCH   1  10
ATOM     10  C   UNL     1      48.224   2.525   6.467  0.00  0.00    +0.000 C 
BRANCH  10  11
ATOM     11  N   UNL     1      48.660   2.612   5.065  0.00  0.00    +0.000 NA
ATOM     12  H   UNL     1      48.270   3.459   4.651  0.00  0.00    +0.000 HD
ATOM     13  H   UNL     1      48.273   1.831   4.537  0.00  0.00    +0.000 HD
ENDBRANCH  10  11
ENDBRANCH   1  10
BRANCH   6  14
ATOM     14  C   UNL     1      43.488   4.248  10.594  0.00  0.00    +0.000 C 
BRANCH  14  15
ATOM     15  C   UNL     1      43.699   3.954  12.104  0.00  0.00    +0.000 C 
ATOM     16  C   UNL     1      43.465   5.149  13.031  0.00  0.00    +0.000 C 
ATOM     17  C   UNL     1      44.652   6.104  13.099  0.00  0.00    +0.000 C 
ATOM     18  N   UNL     1      45.932   5.457  13.417  0.00  0.00    +0.000 NA
ATOM     19  C   UNL     1      46.196   4.218  12.673  0.00  0.00    +0.000 C 
ATOM     20  C   UNL     1      45.009   3.270  12.502  0.00  0.00    +0.000 C 
BRANCH  18  21
ATOM     21  C   UNL     1      47.064   6.409  13.178  0.00  0.00    +0.000 C 
BRANCH  21  22
ATOM     22  C   UNL     1      47.222   7.118  11.817  0.00  0.00    +0.000 C 
ATOM     23  F   UNL     1      46.733   6.409  10.779  0.00  0.00    +0.000 F 
ATOM     24  F   UNL     1      46.584   8.313  11.824  0.00  0.00    +0.000 F 
ATOM     25  F   UNL     1      48.530   7.366  11.559  0.00  0.00    +0.000 F 
ENDBRANCH  21  22
ENDBRANCH  18  21
ENDBRANCH  14  15
ENDBRANCH   6  14
TORSDOF 6
ENDMDL
MODEL 2
REMARK VINA RESULT:    -6.879      3.798      6.800
REMARK INTER + INTRA:          -9.539
REMARK INTER:                  -9.436
REMARK INTRA:                  -0.103
REMARK UNBOUND:                -0.448
REMARK  Name = 
REMARK  6 active torsions:
REMARK  status: ('A' for Active; 'I' for Inactive)
REMARK    1  A    between atoms: N_1  and  C_2
REMARK    2  A    between atoms: C_2  and  C_3
REMARK    3  A    between atoms: C_8  and  C_9
REMARK    4  A    between atoms: C_9  and  C_10
REMARK    5  A    between atoms: N_13  and  C_14
REMARK    6  A    between atoms: C_14  and  C_15
REMARK                            x       y       z     vdW  Elec       q    Type
REMARK                         _______ _______ _______ _____ _____    ______ ____
ROOT
ATOM      1  C   UNL     1      47.768   7.930  14.014  0.00  0.00    +0.000 C 
ATOM      2  O   UNL     1      47.102   8.927  13.189  0.00  0.00    +0.000 OA
ATOM      3  C   UNL     1      45.867   8.369  12.674  0.00  0.00    +0.000 C 
ATOM      4  C   UNL     1      46.044   6.900  12.786  0.00  0.00    +0.000 A 
ATOM      5  C   UNL     1      45.314   5.844  12.266  0.00  0.00    +0.000 A 
ATOM      6  C   UNL     1      45.769   4.541  12.519  0.00  0.00    +0.000 A 
ATOM      7  C   UNL     1      46.938   4.394  13.274  0.00  0.00    +0.000 A 
ATOM      8  N   UNL     1      47.631   5.411  13.829  0.00  0.00    +0.000 NA
ATOM      9  C   UNL     1      47.160   6.638  13.551  0.00  0.00    +0.000 A 
ENDROOT
BRANCH   1  10
ATOM     10  C   UNL     1      49.293   7.949  13.811  0.00  0.00    +0.000 C 
BRANCH  10  11
ATOM     11  N   UNL     1      49.778   7.128  12.690  0.00  0.00    +0.000 NA
ATOM     12  H   UNL     1      50.604   7.572  12.290  0.00  0.00    +0.000 HD
ATOM     13  H   UNL     1      49.076   7.109  11.952  0.00  0.00    +0.000 HD
ENDBRANCH  10  11
ENDBRANCH   1  10
BRANCH   6  14
ATOM     14  C   UNL     1      45.105   3.327  11.933  0.00  0.00    +0.000 C 
BRANCH  14  15
ATOM     15  C   UNL     1      44.188   3.423  10.684  0.00  0.00    +0.000 C 
ATOM     16  C   UNL     1      44.164   2.171   9.804  0.00  0.00    +0.000 C 
ATOM     17  C   UNL     1      45.359   2.072   8.861  0.00  0.00    +0.000 C 
ATOM     18  N   UNL     1      45.581   3.268   8.038  0.00  0.00    +0.000 NA
ATOM     19  C   UNL     1      45.490   4.541   8.765  0.00  0.00    +0.000 C 
ATOM     20  C   UNL     1      44.360   4.652   9.789  0.00  0.00    +0.000 C 
BRANCH  18  21
ATOM     21  C   UNL     1      46.920   3.194   7.370  0.00  0.00    +0.000 C 
BRANCH  21  22
ATOM     22  C   UNL     1      47.160   2.227   6.193  0.00  0.00    +0.000 C 
ATOM     23  F   UNL     1      48.445   2.182   5.785  0.00  0.00    +0.000 F 
ATOM     24  F   UNL     1      46.800   0.965   6.528  0.00  0.00    +0.000 F 
ATOM     25  F   UNL     1      46.408   2.585   5.122  0.00  0.00    +0.000 F 
ENDBRANCH  21  22
ENDBRANCH  18  21
ENDBRANCH  14  15
ENDBRANCH   6  14
TORSDOF 6
ENDMDL
MODEL 3
REMARK VINA RESULT:    -6.536      3.888      7.438
REMARK INTER + INTRA:          -9.085
REMARK INTER:                  -8.470
REMARK INTRA:                  -0.614
REMARK UNBOUND:                -0.448
REMARK  Name = 
REMARK  6 active torsions:
REMARK  status: ('A' for Active; 'I' for Inactive)
REMARK    1  A    between atoms: N_1  and  C_2
REMARK    2  A    between atoms: C_2  and  C_3
REMARK    3  A    between atoms: C_8  and  C_9
REMARK    4  A    between atoms: C_9  and  C_10
REMARK    5  A    between atoms: N_13  and  C_14
REMARK    6  A    between atoms: C_14  and  C_15
REMARK                            x       y       z     vdW  Elec       q    Type
REMARK                         _______ _______ _______ _____ _____    ______ ____
ROOT
ATOM      1  C   UNL     1      49.086   5.488  17.337  0.00  0.00    +0.000 C 
ATOM      2  O   UNL     1      48.256   4.550  18.078  0.00  0.00    +0.000 OA
ATOM      3  C   UNL     1      47.497   3.746  17.141  0.00  0.00    +0.000 C 
ATOM      4  C   UNL     1      47.504   4.530  15.881  0.00  0.00    +0.000 A 
ATOM      5  C   UNL     1      46.779   4.393  14.709  0.00  0.00    +0.000 A 
ATOM      6  C   UNL     1      46.985   5.338  13.693  0.00  0.00    +0.000 A 
ATOM      7  C   UNL     1      47.905   6.364  13.934  0.00  0.00    +0.000 A 
ATOM      8  N   UNL     1      48.656   6.481  15.050  0.00  0.00    +0.000 NA
ATOM      9  C   UNL     1      48.415   5.557  15.996  0.00  0.00    +0.000 A 
ENDROOT
BRANCH   1  10
ATOM     10  C   UNL     1      49.139   6.866  18.020  0.00  0.00    +0.000 C 
BRANCH  10  11
ATOM     11  N   UNL     1      47.981   7.733  17.753  0.00  0.00    +0.000 NA
ATOM     12  H   UNL     1      48.307   8.587  17.300  0.00  0.00    +0.000 HD
ATOM     13  H   UNL     1      47.557   8.020  18.634  0.00  0.00    +0.000 HD
ENDBRANCH  10  11
ENDBRANCH   1  10
BRANCH   6  14
ATOM     14  C   UNL     1      46.192   5.336  12.417  0.00  0.00    +0.000 C 
BRANCH  14  15
ATOM     15  C   UNL     1      44.767   4.724  12.344  0.00  0.00    +0.000 C 
ATOM     16  C   UNL     1      44.727   3.211  12.113  0.00  0.00    +0.000 C 
ATOM     17  C   UNL     1      44.920   2.817  10.653  0.00  0.00    +0.000 C 
ATOM     18  N   UNL     1      44.015   3.498   9.717  0.00  0.00    +0.000 NA
ATOM     19  C   UNL     1      43.876   4.943   9.938  0.00  0.00    +0.000 C 
ATOM     20  C   UNL     1      43.771   5.394  11.395  0.00  0.00    +0.000 C 
BRANCH  18  21
ATOM     21  C   UNL     1      44.466   3.271   8.306  0.00  0.00    +0.000 C 
BRANCH  21  22
ATOM     22  C   UNL     1      45.925   3.550   7.892  0.00  0.00    +0.000 C 
ATOM     23  F   UNL     1      46.425   4.689   8.413  0.00  0.00    +0.000 F 
ATOM     24  F   UNL     1      46.736   2.538   8.284  0.00  0.00    +0.000 F 
ATOM     25  F   UNL     1      46.028   3.642   6.542  0.00  0.00    +0.000 F 
ENDBRANCH  21  22
ENDBRANCH  18  21
ENDBRANCH  14  15
ENDBRANCH   6  14
TORSDOF 6
ENDMDL
MODEL 4
REMARK VINA RESULT:    -6.381      4.713      8.323
REMARK INTER + INTRA:          -8.881
REMARK INTER:                  -8.384
REMARK INTRA:                  -0.496
REMARK UNBOUND:                -0.448
REMARK  Name = 
REMARK  6 active torsions:
REMARK  status: ('A' for Active; 'I' for Inactive)
REMARK    1  A    between atoms: N_1  and  C_2
REMARK    2  A    between atoms: C_2  and  C_3
REMARK    3  A    between atoms: C_8  and  C_9
REMARK    4  A    between atoms: C_9  and  C_10
REMARK    5  A    between atoms: N_13  and  C_14
REMARK    6  A    between atoms: C_14  and  C_15
REMARK                            x       y       z     vdW  Elec       q    Type
REMARK                         _______ _______ _______ _____ _____    ______ ____
ROOT
ATOM      1  C   UNL     1      48.804   5.822  18.886  0.00  0.00    +0.000 C 
ATOM      2  O   UNL     1      49.828   6.752  18.432  0.00  0.00    +0.000 OA
ATOM      3  C   UNL     1      49.514   7.182  17.084  0.00  0.00    +0.000 C 
ATOM      4  C   UNL     1      48.592   6.143  16.564  0.00  0.00    +0.000 A 
ATOM      5  C   UNL     1      48.127   5.884  15.285  0.00  0.00    +0.000 A 
ATOM      6  C   UNL     1      47.281   4.780  15.103  0.00  0.00    +0.000 A 
ATOM      7  C   UNL     1      46.970   4.005  16.226  0.00  0.00    +0.000 A 
ATOM      8  N   UNL     1      47.375   4.274  17.486  0.00  0.00    +0.000 NA
ATOM      9  C   UNL     1      48.189   5.337  17.605  0.00  0.00    +0.000 A 
ENDROOT
BRANCH   1  10
ATOM     10  C   UNL     1      49.407   4.666  19.704  0.00  0.00    +0.000 C 
BRANCH  10  11
ATOM     11  N   UNL     1      48.431   3.677  20.187  0.00  0.00    +0.000 NA
ATOM     12  H   UNL     1      48.898   3.044  20.837  0.00  0.00    +0.000 HD
ATOM     13  H   UNL     1      48.111   3.103  19.408  0.00  0.00    +0.000 HD
ENDBRANCH  10  11
ENDBRANCH   1  10
BRANCH   6  14
ATOM     14  C   UNL     1      46.786   4.356  13.749  0.00  0.00    +0.000 C 
BRANCH  14  15
ATOM     15  C   UNL     1      45.358   4.712  13.255  0.00  0.00    +0.000 C 
ATOM     16  C   UNL     1      44.631   3.584  12.520  0.00  0.00    +0.000 C 
ATOM     17  C   UNL     1      45.050   3.445  11.059  0.00  0.00    +0.000 C 
ATOM     18  N   UNL     1      44.969   4.691  10.286  0.00  0.00    +0.000 NA
ATOM     19  C   UNL     1      45.521   5.872  10.963  0.00  0.00    +0.000 C 
ATOM     20  C   UNL     1      45.202   6.005  12.452  0.00  0.00    +0.000 C 
BRANCH  18  21
ATOM     21  C   UNL     1      45.664   4.527   8.969  0.00  0.00    +0.000 C 
BRANCH  21  22
ATOM     22  C   UNL     1      45.435   3.266   8.109  0.00  0.00    +0.000 C 
ATOM     23  F   UNL     1      46.250   2.240   8.429  0.00  0.00    +0.000 F 
ATOM     24  F   UNL     1      44.161   2.824   8.239  0.00  0.00    +0.000 F 
ATOM     25  F   UNL     1      45.629   3.544   6.796  0.00  0.00    +0.000 F 
ENDBRANCH  21  22
ENDBRANCH  18  21
ENDBRANCH  14  15
ENDBRANCH   6  14
TORSDOF 6
ENDMDL
MODEL 5
REMARK VINA RESULT:    -6.071      1.642      2.368
REMARK INTER + INTRA:          -8.471
REMARK INTER:                  -7.768
REMARK INTRA:                  -0.703
REMARK UNBOUND:                -0.448
REMARK  Name = 
REMARK  6 active torsions:
REMARK  status: ('A' for Active; 'I' for Inactive)
REMARK    1  A    between atoms: N_1  and  C_2
REMARK    2  A    between atoms: C_2  and  C_3
REMARK    3  A    between atoms: C_8  and  C_9
REMARK    4  A    between atoms: C_9  and  C_10
REMARK    5  A    between atoms: N_13  and  C_14
REMARK    6  A    between atoms: C_14  and  C_15
REMARK                            x       y       z     vdW  Elec       q    Type
REMARK                         _______ _______ _______ _____ _____    ______ ____
ROOT
ATOM      1  C   UNL     1      46.052   2.173   7.558  0.00  0.00    +0.000 C 
ATOM      2  O   UNL     1      45.461   1.144   8.401  0.00  0.00    +0.000 OA
ATOM      3  C   UNL     1      44.541   1.764   9.333  0.00  0.00    +0.000 C 
ATOM      4  C   UNL     1      44.953   3.189   9.374  0.00  0.00    +0.000 A 
ATOM      5  C   UNL     1      44.603   4.222  10.227  0.00  0.00    +0.000 A 
ATOM      6  C   UNL     1      45.207   5.473  10.030  0.00  0.00    +0.000 A 
ATOM      7  C   UNL     1      46.132   5.592   8.988  0.00  0.00    +0.000 A 
ATOM      8  N   UNL     1      46.445   4.609   8.117  0.00  0.00    +0.000 NA
ATOM      9  C   UNL     1      45.846   3.429   8.354  0.00  0.00    +0.000 A 
ENDROOT
BRANCH   1  10
ATOM     10  C   UNL     1      47.544   1.904   7.291  0.00  0.00    +0.000 C 
BRANCH  10  11
ATOM     11  N   UNL     1      48.146   2.746   6.245  0.00  0.00    +0.000 NA
ATOM     12  H   UNL     1      47.739   2.494   5.345  0.00  0.00    +0.000 HD
ATOM     13  H   UNL     1      49.143   2.546   6.176  0.00  0.00    +0.000 HD
ENDBRANCH  10  11
ENDBRANCH   1  10
BRANCH   6  14
ATOM     14  C   UNL     1      44.967   6.639  10.947  0.00  0.00    +0.000 C 
BRANCH  14  15
ATOM     15  C   UNL     1      45.183   6.527  12.481  0.00  0.00    +0.000 C 
ATOM     16  C   UNL     1      45.554   7.838  13.177  0.00  0.00    +0.000 C 
ATOM     17  C   UNL     1      47.030   8.197  13.042  0.00  0.00    +0.000 C 
ATOM     18  N   UNL     1      47.953   7.129  13.448  0.00  0.00    +0.000 NA
ATOM     19  C   UNL     1      47.608   5.794  12.940  0.00  0.00    +0.000 C 
ATOM     20  C   UNL     1      46.125   5.425  12.971  0.00  0.00    +0.000 C 
BRANCH  18  21
ATOM     21  C   UNL     1      49.348   7.459  13.013  0.00  0.00    +0.000 C 
BRANCH  21  22
ATOM     22  C   UNL     1      49.650   7.820  11.544  0.00  0.00    +0.000 C 
ATOM     23  F   UNL     1      50.814   7.311  11.093  0.00  0.00    +0.000 F 
ATOM     24  F   UNL     1      48.669   7.367  10.728  0.00  0.00    +0.000 F 
ATOM     25  F   UNL     1      49.709   9.166  11.387  0.00  0.00    +0.000 F 
ENDBRANCH  21  22
ENDBRANCH  18  21
ENDBRANCH  14  15
ENDBRANCH   6  14
TORSDOF 6
ENDMDL
MODEL 6
REMARK VINA RESULT:    -5.936      3.957      7.667
REMARK INTER + INTRA:          -8.293
REMARK INTER:                  -7.718
REMARK INTRA:                  -0.575
REMARK UNBOUND:                -0.448
REMARK  Name = 
REMARK  6 active torsions:
REMARK  status: ('A' for Active; 'I' for Inactive)
REMARK    1  A    between atoms: N_1  and  C_2
REMARK    2  A    between atoms: C_2  and  C_3
REMARK    3  A    between atoms: C_8  and  C_9
REMARK    4  A    between atoms: C_9  and  C_10
REMARK    5  A    between atoms: N_13  and  C_14
REMARK    6  A    between atoms: C_14  and  C_15
REMARK                            x       y       z     vdW  Elec       q    Type
REMARK                         _______ _______ _______ _____ _____    ______ ____
ROOT
ATOM      1  C   UNL     1      49.572   8.777  15.908  0.00  0.00    +0.000 C 
ATOM      2  O   UNL     1      49.756   7.606  16.753  0.00  0.00    +0.000 OA
ATOM      3  C   UNL     1      49.427   6.417  15.993  0.00  0.00    +0.000 C 
ATOM      4  C   UNL     1      48.585   6.908  14.874  0.00  0.00    +0.000 A 
ATOM      5  C   UNL     1      47.800   6.236  13.951  0.00  0.00    +0.000 A 
ATOM      6  C   UNL     1      47.075   6.999  13.024  0.00  0.00    +0.000 A 
ATOM      7  C   UNL     1      47.184   8.392  13.098  0.00  0.00    +0.000 A 
ATOM      8  N   UNL     1      47.984   9.058  13.959  0.00  0.00    +0.000 NA
ATOM      9  C   UNL     1      48.651   8.283  14.831  0.00  0.00    +0.000 A 
ENDROOT
BRANCH   1  10
ATOM     10  C   UNL     1      48.957   9.952  16.690  0.00  0.00    +0.000 C 
BRANCH  10  11
ATOM     11  N   UNL     1      47.540   9.782  17.049  0.00  0.00    +0.000 NA
ATOM     12  H   UNL     1      47.065  10.679  16.948  0.00  0.00    +0.000 HD
ATOM     13  H   UNL     1      47.465   9.527  18.033  0.00  0.00    +0.000 HD
ENDBRANCH  10  11
ENDBRANCH   1  10
BRANCH   6  14
ATOM     14  C   UNL     1      46.127   6.380  12.035  0.00  0.00    +0.000 C 
BRANCH  14  15
ATOM     15  C   UNL     1      44.824   5.670  12.491  0.00  0.00    +0.000 C 
ATOM     16  C   UNL     1      45.006   4.220  12.945  0.00  0.00    +0.000 C 
ATOM     17  C   UNL     1      45.085   3.229  11.788  0.00  0.00    +0.000 C 
ATOM     18  N   UNL     1      43.976   3.326  10.830  0.00  0.00    +0.000 NA
ATOM     19  C   UNL     1      43.629   4.696  10.429  0.00  0.00    +0.000 C 
ATOM     20  C   UNL     1      43.625   5.743  11.543  0.00  0.00    +0.000 C 
BRANCH  18  21
ATOM     21  C   UNL     1      44.286   2.532   9.598  0.00  0.00    +0.000 C 
BRANCH  21  22
ATOM     22  C   UNL     1      45.295   3.058   8.556  0.00  0.00    +0.000 C 
ATOM     23  F   UNL     1      45.858   4.235   8.896  0.00  0.00    +0.000 F 
ATOM     24  F   UNL     1      46.299   2.168   8.371  0.00  0.00    +0.000 F 
ATOM     25  F   UNL     1      44.690   3.231   7.354  0.00  0.00    +0.000 F 
ENDBRANCH  21  22
ENDBRANCH  18  21
ENDBRANCH  14  15
ENDBRANCH   6  14
TORSDOF 6
ENDMDL
MODEL 7
REMARK VINA RESULT:    -5.760      4.824      6.586
REMARK INTER + INTRA:          -8.060
REMARK INTER:                  -7.012
REMARK INTRA:                  -1.047
REMARK UNBOUND:                -0.448
REMARK  Name = 
REMARK  6 active torsions:
REMARK  status: ('A' for Active; 'I' for Inactive)
REMARK    1  A    between atoms: N_1  and  C_2
REMARK    2  A    between atoms: C_2  and  C_3
REMARK    3  A    between atoms: C_8  and  C_9
REMARK    4  A    between atoms: C_9  and  C_10
REMARK    5  A    between atoms: N_13  and  C_14
REMARK    6  A    between atoms: C_14  and  C_15
REMARK                            x       y       z     vdW  Elec       q    Type
REMARK                         _______ _______ _______ _____ _____    ______ ____
ROOT
ATOM      1  C   UNL     1      43.868   5.229  12.900  0.00  0.00    +0.000 C 
ATOM      2  O   UNL     1      44.511   3.929  13.022  0.00  0.00    +0.000 OA
ATOM      3  C   UNL     1      45.924   4.121  13.280  0.00  0.00    +0.000 C 
ATOM      4  C   UNL     1      46.204   5.505  12.824  0.00  0.00    +0.000 A 
ATOM      5  C   UNL     1      47.395   6.179  12.613  0.00  0.00    +0.000 A 
ATOM      6  C   UNL     1      47.331   7.494  12.129  0.00  0.00    +0.000 A 
ATOM      7  C   UNL     1      46.065   8.036  11.881  0.00  0.00    +0.000 A 
ATOM      8  N   UNL     1      44.895   7.409  12.129  0.00  0.00    +0.000 NA
ATOM      9  C   UNL     1      45.011   6.150  12.584  0.00  0.00    +0.000 A 
ENDROOT
BRANCH   1  10
ATOM     10  C   UNL     1      42.805   5.237  11.788  0.00  0.00    +0.000 C 
BRANCH  10  11
ATOM     11  N   UNL     1      43.341   5.319  10.420  0.00  0.00    +0.000 NA
ATOM     12  H   UNL     1      42.705   5.876   9.850  0.00  0.00    +0.000 HD
ATOM     13  H   UNL     1      43.360   4.389  10.004  0.00  0.00    +0.000 HD
ENDBRANCH  10  11
ENDBRANCH   1  10
BRANCH   6  14
ATOM     14  C   UNL     1      48.559   8.288  11.784  0.00  0.00    +0.000 C 
BRANCH  14  15
ATOM     15  C   UNL     1      49.321   9.116  12.854  0.00  0.00    +0.000 C 
ATOM     16  C   UNL     1      50.553   8.428  13.446  0.00  0.00    +0.000 C 
ATOM     17  C   UNL     1      50.214   7.417  14.537  0.00  0.00    +0.000 C 
ATOM     18  N   UNL     1      49.364   7.947  15.611  0.00  0.00    +0.000 NA
ATOM     19  C   UNL     1      48.219   8.745  15.151  0.00  0.00    +0.000 C 
ATOM     20  C   UNL     1      48.491   9.708  13.995  0.00  0.00    +0.000 C 
BRANCH  18  21
ATOM     21  C   UNL     1      48.854   6.827  16.466  0.00  0.00    +0.000 C 
BRANCH  21  22
ATOM     22  C   UNL     1      49.771   6.147  17.502  0.00  0.00    +0.000 C 
ATOM     23  F   UNL     1      49.125   5.755  18.619  0.00  0.00    +0.000 F 
ATOM     24  F   UNL     1      50.361   5.049  16.971  0.00  0.00    +0.000 F 
ATOM     25  F   UNL     1      50.765   6.988  17.883  0.00  0.00    +0.000 F 
ENDBRANCH  21  22
ENDBRANCH  18  21
ENDBRANCH  14  15
ENDBRANCH   6  14
TORSDOF 6
ENDMDL
MODEL 8
REMARK VINA RESULT:    -5.749      3.894      5.848
REMARK INTER + INTRA:          -8.045
REMARK INTER:                  -7.288
REMARK INTRA:                  -0.757
REMARK UNBOUND:                -0.448
REMARK  Name = 
REMARK  6 active torsions:
REMARK  status: ('A' for Active; 'I' for Inactive)
REMARK    1  A    between atoms: N_1  and  C_2
REMARK    2  A    between atoms: C_2  and  C_3
REMARK    3  A    between atoms: C_8  and  C_9
REMARK    4  A    between atoms: C_9  and  C_10
REMARK    5  A    between atoms: N_13  and  C_14
REMARK    6  A    between atoms: C_14  and  C_15
REMARK                            x       y       z     vdW  Elec       q    Type
REMARK                         _______ _______ _______ _____ _____    ______ ____
ROOT
ATOM      1  C   UNL     1      44.769   3.281  10.701  0.00  0.00    +0.000 C 
ATOM      2  O   UNL     1      44.690   3.751   9.326  0.00  0.00    +0.000 OA
ATOM      3  C   UNL     1      45.496   4.947   9.187  0.00  0.00    +0.000 C 
ATOM      4  C   UNL     1      45.651   5.459  10.571  0.00  0.00    +0.000 A 
ATOM      5  C   UNL     1      46.124   6.667  11.056  0.00  0.00    +0.000 A 
ATOM      6  C   UNL     1      46.104   6.872  12.444  0.00  0.00    +0.000 A 
ATOM      7  C   UNL     1      45.599   5.844  13.247  0.00  0.00    +0.000 A 
ATOM      8  N   UNL     1      45.181   4.643  12.793  0.00  0.00    +0.000 NA
ATOM      9  C   UNL     1      45.212   4.500  11.457  0.00  0.00    +0.000 A 
ENDROOT
BRANCH   1  10
ATOM     10  C   UNL     1      43.411   2.759  11.205  0.00  0.00    +0.000 C 
BRANCH  10  11
ATOM     11  N   UNL     1      43.453   2.089  12.514  0.00  0.00    +0.000 NA
ATOM     12  H   UNL     1      43.123   1.131  12.404  0.00  0.00    +0.000 HD
ATOM     13  H   UNL     1      42.804   2.545  13.153  0.00  0.00    +0.000 HD
ENDBRANCH  10  11
ENDBRANCH   1  10
BRANCH   6  14
ATOM     14  C   UNL     1      46.513   8.174  13.073  0.00  0.00    +0.000 C 
BRANCH  14  15
ATOM     15  C   UNL     1      48.006   8.543  13.286  0.00  0.00    +0.000 C 
ATOM     16  C   UNL     1      48.961   7.349  13.356  0.00  0.00    +0.000 C 
ATOM     17  C   UNL     1      48.982   6.671  14.722  0.00  0.00    +0.000 C 
ATOM     18  N   UNL     1      49.226   7.583  15.847  0.00  0.00    +0.000 NA
ATOM     19  C   UNL     1      48.452   8.831  15.805  0.00  0.00    +0.000 C 
ATOM     20  C   UNL     1      48.327   9.500  14.436  0.00  0.00    +0.000 C 
BRANCH  18  21
ATOM     21  C   UNL     1      48.943   6.889  17.145  0.00  0.00    +0.000 C 
BRANCH  21  22
ATOM     22  C   UNL     1      49.604   5.535  17.474  0.00  0.00    +0.000 C 
ATOM     23  F   UNL     1      49.692   5.285  18.796  0.00  0.00    +0.000 F 
ATOM     24  F   UNL     1      48.909   4.515  16.916  0.00  0.00    +0.000 F 
ATOM     25  F   UNL     1      50.862   5.484  16.967  0.00  0.00    +0.000 F 
ENDBRANCH  21  22
ENDBRANCH  18  21
ENDBRANCH  14  15
ENDBRANCH   6  14
TORSDOF 6
ENDMDL
MODEL 9
REMARK VINA RESULT:    -5.727      3.492      5.343
REMARK INTER + INTRA:          -8.016
REMARK INTER:                  -7.190
REMARK INTRA:                  -0.825
REMARK UNBOUND:                -0.448
REMARK  Name = 
REMARK  6 active torsions:
REMARK  status: ('A' for Active; 'I' for Inactive)
REMARK    1  A    between atoms: N_1  and  C_2
REMARK    2  A    between atoms: C_2  and  C_3
REMARK    3  A    between atoms: C_8  and  C_9
REMARK    4  A    between atoms: C_9  and  C_10
REMARK    5  A    between atoms: N_13  and  C_14
REMARK    6  A    between atoms: C_14  and  C_15
REMARK                            x       y       z     vdW  Elec       q    Type
REMARK                         _______ _______ _______ _____ _____    ______ ____
ROOT
ATOM      1  C   UNL     1      43.909   3.357  10.329  0.00  0.00    +0.000 C 
ATOM      2  O   UNL     1      43.502   2.650  11.534  0.00  0.00    +0.000 OA
ATOM      3  C   UNL     1      43.422   3.592  12.632  0.00  0.00    +0.000 C 
ATOM      4  C   UNL     1      44.248   4.746  12.198  0.00  0.00    +0.000 A 
ATOM      5  C   UNL     1      44.727   5.845  12.891  0.00  0.00    +0.000 A 
ATOM      6  C   UNL     1      45.534   6.760  12.199  0.00  0.00    +0.000 A 
ATOM      7  C   UNL     1      45.811   6.496  10.853  0.00  0.00    +0.000 A 
ATOM      8  N   UNL     1      45.311   5.456  10.152  0.00  0.00    +0.000 NA
ATOM      9  C   UNL     1      44.550   4.605  10.862  0.00  0.00    +0.000 A 
ENDROOT
BRANCH   1  10
ATOM     10  C   UNL     1      44.893   2.526   9.485  0.00  0.00    +0.000 C 
BRANCH  10  11
ATOM     11  N   UNL     1      45.189   3.081   8.155  0.00  0.00    +0.000 NA
ATOM     12  H   UNL     1      44.353   3.543   7.798  0.00  0.00    +0.000 HD
ATOM     13  H   UNL     1      45.398   2.324   7.507  0.00  0.00    +0.000 HD
ENDBRANCH  10  11
ENDBRANCH   1  10
BRANCH   6  14
ATOM     14  C   UNL     1      46.176   7.940  12.871  0.00  0.00    +0.000 C 
BRANCH  14  15
ATOM     15  C   UNL     1      47.719   8.094  12.948  0.00  0.00    +0.000 C 
ATOM     16  C   UNL     1      48.491   6.781  13.093  0.00  0.00    +0.000 C 
ATOM     17  C   UNL     1      48.520   6.251  14.523  0.00  0.00    +0.000 C 
ATOM     18  N   UNL     1      48.983   7.225  15.521  0.00  0.00    +0.000 NA
ATOM     19  C   UNL     1      48.399   8.567  15.386  0.00  0.00    +0.000 C 
ATOM     20  C   UNL     1      48.267   9.103  13.960  0.00  0.00    +0.000 C 
BRANCH  18  21
ATOM     21  C   UNL     1      48.704   6.720  16.903  0.00  0.00    +0.000 C 
BRANCH  21  22
ATOM     22  C   UNL     1      49.456   5.494  17.460  0.00  0.00    +0.000 C 
ATOM     23  F   UNL     1      50.648   5.277  16.867  0.00  0.00    +0.000 F 
ATOM     24  F   UNL     1      49.686   5.636  18.787  0.00  0.00    +0.000 F 
ATOM     25  F   UNL     1      48.715   4.369  17.302  0.00  0.00    +0.000 F 
ENDBRANCH  21  22
ENDBRANCH  18  21
ENDBRANCH  14  15
ENDBRANCH   6  14
TORSDOF 6
ENDMDL
