MODEL 1
REMARK VINA RESULT:    -8.533      0.000      0.000
REMARK INTER + INTRA:         -10.584
REMARK INTER:                 -10.030
REMARK INTRA:                  -0.555
REMARK UNBOUND:                -0.555
REMARK  Name = 
REMARK  3 active torsions:
REMARK  status: ('A' for Active; 'I' for Inactive)
REMARK    1  A    between atoms: C_2  and  C_4
REMARK    2  A    between atoms: N_8  and  C_9
REMARK    3  A    between atoms: C_9  and  C_10
REMARK                            x       y       z     vdW  Elec       q    Type
REMARK                         _______ _______ _______ _____ _____    ______ ____
ROOT
ATOM      1  C   UNL     1      46.454   2.688   7.552  0.00  0.00    +0.000 A 
ATOM      2  C   UNL     1      46.060   4.009   7.638  0.00  0.00    +0.000 A 
ATOM      3  C   UNL     1      45.237   4.387   8.699  0.00  0.00    +0.000 A 
ATOM      4  C   UNL     1      44.830   3.439   9.628  0.00  0.00    +0.000 A 
ATOM      5  N   UNL     1      43.914   3.708  10.653  0.00  0.00    +0.000 N 
ATOM      6  N   UNL     1      45.250   2.157   9.504  0.00  0.00    +0.000 NA
ATOM      7  N   UNL     1      46.073   1.771   8.467  0.00  0.00    +0.000 NA
ATOM      8  H   UNL     1      43.840   2.855  11.205  0.00  0.00    +0.000 HD
ENDROOT
BRANCH   1  10
ATOM      9  N   UNL     1      47.326   3.010   5.305  0.00  0.00    +0.000 N 
ATOM     10  C   UNL     1      47.290   2.211   6.416  0.00  0.00    +0.000 C 
ATOM     11  O   UNL     1      47.919   1.163   6.467  0.00  0.00    +0.000 OA
ATOM     12  H   UNL     1      47.900   2.733   4.520  0.00  0.00    +0.000 HD
ATOM     13  H   UNL     1      46.819   3.885   5.273  0.00  0.00    +0.000 HD
ENDBRANCH   1  10
BRANCH   5  14
ATOM     14  C   UNL     1      43.860   4.967  11.416  0.00  0.00    +0.000 C 
ATOM     15  C   UNL     1      42.593   5.157  12.244  0.00  0.00    +0.000 C 
ATOM     16  C   UNL     1      42.875   6.078  11.107  0.00  0.00    +0.000 C 
BRANCH  14  17
ATOM     17  C   UNL     1      45.196   5.341  12.053  0.00  0.00    +0.000 A 
ATOM     18  C   UNL     1      46.000   6.371  11.531  0.00  0.00    +0.000 A 
ATOM     19  C   UNL     1      47.190   6.759  12.154  0.00  0.00    +0.000 A 
ATOM     20  C   UNL     1      47.605   6.129  13.327  0.00  0.00    +0.000 A 
ATOM     21 CL   UNL     1      49.061   6.684  14.071  0.00  0.00    +0.000 Cl
ATOM     22  C   UNL     1      46.833   5.093  13.860  0.00  0.00    +0.000 A 
ATOM     23 CL   UNL     1      47.276   4.260  15.309  0.00  0.00    +0.000 Cl
ATOM     24  C   UNL     1      45.647   4.706  13.224  0.00  0.00    +0.000 A 
ENDBRANCH  14  17
ENDBRANCH   5  14
TORSDOF 3
ENDMDL
MODEL 2
REMARK VINA RESULT:    -7.260      4.457      6.683
REMARK INTER + INTRA:          -9.089
REMARK INTER:                  -8.885
REMARK INTRA:                  -0.204
REMARK UNBOUND:                -0.555
REMARK  Name = 
REMARK  3 active torsions:
REMARK  status: ('A' for Active; 'I' for Inactive)
REMARK    1  A    between atoms: C_2  and  C_4
REMARK    2  A    between atoms: N_8  and  C_9
REMARK    3  A    between atoms: C_9  and  C_10
REMARK                            x       y       z     vdW  Elec       q    Type
REMARK                         _______ _______ _______ _____ _____    ______ ____
ROOT
ATOM      1  C   UNL     1      47.885   6.263  14.132  0.00  0.00    +0.000 A 
ATOM      2  C   UNL     1      47.115   5.134  14.334  0.00  0.00    +0.000 A 
ATOM      3  C   UNL     1      46.223   4.753  13.332  0.00  0.00    +0.000 A 
ATOM      4  C   UNL     1      46.123   5.510  12.174  0.00  0.00    +0.000 A 
ATOM      5  N   UNL     1      45.174   5.266  11.172  0.00  0.00    +0.000 N 
ATOM      6  N   UNL     1      46.905   6.605  12.019  0.00  0.00    +0.000 NA
ATOM      7  N   UNL     1      47.800   6.988  12.996  0.00  0.00    +0.000 NA
ATOM      8  H   UNL     1      45.361   5.936  10.428  0.00  0.00    +0.000 HD
ENDROOT
BRANCH   1  10
ATOM      9  N   UNL     1      48.251   7.299  16.301  0.00  0.00    +0.000 N 
ATOM     10  C   UNL     1      48.820   6.750  15.185  0.00  0.00    +0.000 C 
ATOM     11  O   UNL     1      50.034   6.663  15.065  0.00  0.00    +0.000 OA
ATOM     12  H   UNL     1      48.850   7.622  17.049  0.00  0.00    +0.000 HD
ATOM     13  H   UNL     1      47.246   7.352  16.405  0.00  0.00    +0.000 HD
ENDBRANCH   1  10
BRANCH   5  14
ATOM     14  C   UNL     1      44.749   3.925  10.732  0.00  0.00    +0.000 C 
ATOM     15  C   UNL     1      43.267   3.626  10.936  0.00  0.00    +0.000 C 
ATOM     16  C   UNL     1      44.288   2.848  11.694  0.00  0.00    +0.000 C 
BRANCH  14  17
ATOM     17  C   UNL     1      45.394   3.494   9.417  0.00  0.00    +0.000 A 
ATOM     18  C   UNL     1      45.811   4.435   8.456  0.00  0.00    +0.000 A 
ATOM     19  C   UNL     1      46.464   4.044   7.283  0.00  0.00    +0.000 A 
ATOM     20  C   UNL     1      46.725   2.695   7.043  0.00  0.00    +0.000 A 
ATOM     21 CL   UNL     1      47.572   2.283   5.596  0.00  0.00    +0.000 Cl
ATOM     22  C   UNL     1      46.309   1.739   7.972  0.00  0.00    +0.000 A 
ATOM     23 CL   UNL     1      46.591   0.048   7.750  0.00  0.00    +0.000 Cl
ATOM     24  C   UNL     1      45.649   2.139   9.141  0.00  0.00    +0.000 A 
ENDBRANCH  14  17
ENDBRANCH   5  14
TORSDOF 3
ENDMDL
MODEL 3
REMARK VINA RESULT:    -5.692      3.381      5.044
REMARK INTER + INTRA:          -7.245
REMARK INTER:                  -7.309
REMARK INTRA:                   0.064
REMARK UNBOUND:                -0.555
REMARK  Name = 
REMARK  3 active torsions:
REMARK  status: ('A' for Active; 'I' for Inactive)
REMARK    1  A    between atoms: C_2  and  C_4
REMARK    2  A    between atoms: N_8  and  C_9
REMARK    3  A    between atoms: C_9  and  C_10
REMARK                            x       y       z     vdW  Elec       q    Type
REMARK                         _______ _______ _______ _____ _____    ______ ____
ROOT
ATOM      1  C   UNL     1      44.801   3.803  11.719  0.00  0.00    +0.000 A 
ATOM      2  C   UNL     1      45.256   4.918  11.043  0.00  0.00    +0.000 A 
ATOM      3  C   UNL     1      45.945   5.894  11.763  0.00  0.00    +0.000 A 
ATOM      4  C   UNL     1      46.148   5.730  13.126  0.00  0.00    +0.000 A 
ATOM      5  N   UNL     1      46.725   6.711  13.943  0.00  0.00    +0.000 N 
ATOM      6  N   UNL     1      45.689   4.615  13.742  0.00  0.00    +0.000 NA
ATOM      7  N   UNL     1      45.017   3.636  13.042  0.00  0.00    +0.000 NA
ATOM      8  H   UNL     1      46.794   6.306  14.875  0.00  0.00    +0.000 HD
ENDROOT
BRANCH   1  10
ATOM      9  N   UNL     1      44.562   2.244   9.868  0.00  0.00    +0.000 N 
ATOM     10  C   UNL     1      44.016   2.750  11.017  0.00  0.00    +0.000 C 
ATOM     11  O   UNL     1      42.941   2.350  11.441  0.00  0.00    +0.000 OA
ATOM     12  H   UNL     1      44.071   1.511   9.373  0.00  0.00    +0.000 HD
ATOM     13  H   UNL     1      45.460   2.564   9.530  0.00  0.00    +0.000 HD
ENDBRANCH   1  10
BRANCH   5  14
ATOM     14  C   UNL     1      47.844   7.581  13.541  0.00  0.00    +0.000 C 
ATOM     15  C   UNL     1      47.448   9.014  13.198  0.00  0.00    +0.000 C 
ATOM     16  C   UNL     1      48.002   8.127  12.136  0.00  0.00    +0.000 C 
BRANCH  14  17
ATOM     17  C   UNL     1      49.102   7.366  14.381  0.00  0.00    +0.000 A 
ATOM     18  C   UNL     1      50.340   7.923  14.010  0.00  0.00    +0.000 A 
ATOM     19  C   UNL     1      51.475   7.784  14.814  0.00  0.00    +0.000 A 
ATOM     20  C   UNL     1      51.399   7.088  16.020  0.00  0.00    +0.000 A 
ATOM     21 CL   UNL     1      52.826   6.990  16.987  0.00  0.00    +0.000 Cl
ATOM     22  C   UNL     1      50.186   6.513  16.406  0.00  0.00    +0.000 A 
ATOM     23 CL   UNL     1      50.007   5.633  17.883  0.00  0.00    +0.000 Cl
ATOM     24  C   UNL     1      49.056   6.650  15.590  0.00  0.00    +0.000 A 
ENDBRANCH  14  17
ENDBRANCH   5  14
TORSDOF 3
ENDMDL
MODEL 4
REMARK VINA RESULT:    -5.596      5.260      7.263
REMARK INTER + INTRA:          -7.132
REMARK INTER:                  -6.925
REMARK INTRA:                  -0.207
REMARK UNBOUND:                -0.555
REMARK  Name = 
REMARK  3 active torsions:
REMARK  status: ('A' for Active; 'I' for Inactive)
REMARK    1  A    between atoms: C_2  and  C_4
REMARK    2  A    between atoms: N_8  and  C_9
REMARK    3  A    between atoms: C_9  and  C_10
REMARK                            x       y       z     vdW  Elec       q    Type
REMARK                         _______ _______ _______ _____ _____    ______ ____
ROOT
ATOM      1  C   UNL     1      47.678   4.202  16.249  0.00  0.00    +0.000 A 
ATOM      2  C   UNL     1      48.234   5.460  16.374  0.00  0.00    +0.000 A 
ATOM      3  C   UNL     1      48.403   6.227  15.221  0.00  0.00    +0.000 A 
ATOM      4  C   UNL     1      48.024   5.713  13.989  0.00  0.00    +0.000 A 
ATOM      5  N   UNL     1      48.265   6.366  12.773  0.00  0.00    +0.000 N 
ATOM      6  N   UNL     1      47.475   4.477  13.919  0.00  0.00    +0.000 NA
ATOM      7  N   UNL     1      47.291   3.711  15.051  0.00  0.00    +0.000 NA
ATOM      8  H   UNL     1      47.841   5.791  12.047  0.00  0.00    +0.000 HD
ENDROOT
BRANCH   1  10
ATOM      9  N   UNL     1      48.555   3.290  18.325  0.00  0.00    +0.000 N 
ATOM     10  C   UNL     1      47.517   3.315  17.434  0.00  0.00    +0.000 C 
ATOM     11  O   UNL     1      46.509   2.645  17.611  0.00  0.00    +0.000 OA
ATOM     12  H   UNL     1      48.476   2.717  19.155  0.00  0.00    +0.000 HD
ATOM     13  H   UNL     1      49.379   3.860  18.185  0.00  0.00    +0.000 HD
ENDBRANCH   1  10
BRANCH   5  14
ATOM     14  C   UNL     1      48.164   7.822  12.573  0.00  0.00    +0.000 C 
ATOM     15  C   UNL     1      49.354   8.451  11.854  0.00  0.00    +0.000 C 
ATOM     16  C   UNL     1      49.071   8.817  13.271  0.00  0.00    +0.000 C 
BRANCH  14  17
ATOM     17  C   UNL     1      46.762   8.277  12.172  0.00  0.00    +0.000 A 
ATOM     18  C   UNL     1      46.448   9.638  12.004  0.00  0.00    +0.000 A 
ATOM     19  C   UNL     1      45.184  10.050  11.570  0.00  0.00    +0.000 A 
ATOM     20  C   UNL     1      44.199   9.105  11.285  0.00  0.00    +0.000 A 
ATOM     21 CL   UNL     1      42.673   9.677  10.713  0.00  0.00    +0.000 Cl
ATOM     22  C   UNL     1      44.479   7.748  11.458  0.00  0.00    +0.000 A 
ATOM     23 CL   UNL     1      43.314   6.513  11.129  0.00  0.00    +0.000 Cl
ATOM     24  C   UNL     1      45.745   7.345  11.900  0.00  0.00    +0.000 A 
ENDBRANCH  14  17
ENDBRANCH   5  14
TORSDOF 3
ENDMDL
MODEL 5
REMARK VINA RESULT:    -5.559      4.614      6.811
REMARK INTER + INTRA:          -7.088
REMARK INTER:                  -7.335
REMARK INTRA:                   0.247
REMARK UNBOUND:                -0.555
REMARK  Name = 
REMARK  3 active torsions:
REMARK  status: ('A' for Active; 'I' for Inactive)
REMARK    1  A    between atoms: C_2  and  C_4
REMARK    2  A    between atoms: N_8  and  C_9
REMARK    3  A    between atoms: C_9  and  C_10
REMARK                            x       y       z     vdW  Elec       q    Type
REMARK                         _______ _______ _______ _____ _____    ______ ____
ROOT
ATOM      1  C   UNL     1      48.318   3.917  16.849  0.00  0.00    +0.000 A 
ATOM      2  C   UNL     1      47.924   5.168  16.415  0.00  0.00    +0.000 A 
ATOM      3  C   UNL     1      47.352   5.278  15.148  0.00  0.00    +0.000 A 
ATOM      4  C   UNL     1      47.202   4.148  14.358  0.00  0.00    +0.000 A 
ATOM      5  N   UNL     1      46.747   4.187  13.033  0.00  0.00    +0.000 N 
ATOM      6  N   UNL     1      47.598   2.942  14.831  0.00  0.00    +0.000 NA
ATOM      7  N   UNL     1      48.154   2.815  16.087  0.00  0.00    +0.000 NA
ATOM      8  H   UNL     1      46.690   3.220  12.718  0.00  0.00    +0.000 HD
ENDROOT
BRANCH   1  10
ATOM      9  N   UNL     1      48.298   3.007  19.104  0.00  0.00    +0.000 N 
ATOM     10  C   UNL     1      48.981   3.740  18.172  0.00  0.00    +0.000 C 
ATOM     11  O   UNL     1      50.079   4.219  18.417  0.00  0.00    +0.000 OA
ATOM     12  H   UNL     1      48.722   2.845  20.007  0.00  0.00    +0.000 HD
ATOM     13  H   UNL     1      47.398   2.597  18.891  0.00  0.00    +0.000 HD
ENDBRANCH   1  10
BRANCH   5  14
ATOM     14  C   UNL     1      45.684   5.081  12.541  0.00  0.00    +0.000 C 
ATOM     15  C   UNL     1      44.300   4.806  13.121  0.00  0.00    +0.000 C 
ATOM     16  C   UNL     1      44.544   4.603  11.664  0.00  0.00    +0.000 C 
BRANCH  14  17
ATOM     17  C   UNL     1      46.133   6.535  12.416  0.00  0.00    +0.000 A 
ATOM     18  C   UNL     1      45.285   7.602  12.768  0.00  0.00    +0.000 A 
ATOM     19  C   UNL     1      45.720   8.930  12.719  0.00  0.00    +0.000 A 
ATOM     20  C   UNL     1      47.024   9.227  12.323  0.00  0.00    +0.000 A 
ATOM     21 CL   UNL     1      47.512  10.883  12.326  0.00  0.00    +0.000 Cl
ATOM     22  C   UNL     1      47.883   8.188  11.954  0.00  0.00    +0.000 A 
ATOM     23 CL   UNL     1      49.512   8.469  11.450  0.00  0.00    +0.000 Cl
ATOM     24  C   UNL     1      47.436   6.861  11.999  0.00  0.00    +0.000 A 
ENDBRANCH  14  17
ENDBRANCH   5  14
TORSDOF 3
ENDMDL
