MODEL 1
REMARK VINA RESULT:    -8.431      0.000      0.000
REMARK INTER + INTRA:         -13.637
REMARK INTER:                 -12.374
REMARK INTRA:                  -1.263
REMARK UNBOUND:                -1.263
REMARK  Name = 
REMARK  9 active torsions:
REMARK  status: ('A' for Active; 'I' for Inactive)
REMARK    1  A    between atoms: C_1  and  O_2
REMARK    2  A    between atoms: O_2  and  C_3
REMARK    3  A    between atoms: C_5  and  C_6
REMARK    4  A    between atoms: C_6  and  N_7
REMARK    5  A    between atoms: C_8  and  C_10
REMARK    6  A    between atoms: C_22  and  C_23
REMARK    7  A    between atoms: C_23  and  N_24
REMARK    8  A    between atoms: N_24  and  C_25
REMARK    9  A    between atoms: C_25  and  C_26
REMARK                            x       y       z     vdW  Elec       q    Type
REMARK                         _______ _______ _______ _____ _____    ______ ____
ROOT
ATOM      1  C   UNL     1      45.256   5.635  12.802  0.00  0.00    +0.000 A 
ATOM      2  C   UNL     1      46.258   6.375  13.458  0.00  0.00    +0.000 A 
ATOM      3  C   UNL     1      46.560   7.694  13.084  0.00  0.00    +0.000 A 
ATOM      4  C   UNL     1      45.828   8.274  12.046  0.00  0.00    +0.000 A 
ATOM      5  C   UNL     1      44.801   7.563  11.422  0.00  0.00    +0.000 A 
ATOM      6  C   UNL     1      44.469   6.252  11.815  0.00  0.00    +0.000 A 
ENDROOT
BRANCH   1   8
ATOM      7  C   UNL     1      45.981   3.378  12.809  0.00  0.00    +0.000 C 
ATOM      8  O   UNL     1      45.063   4.364  13.283  0.00  0.00    +0.000 OA
ENDBRANCH   1   8
BRANCH   3   9
ATOM      9  C   UNL     1      47.614   8.500  13.804  0.00  0.00    +0.000 C 
BRANCH   9  10
ATOM     10  N   UNL     1      47.882   7.965  15.119  0.00  0.00    +0.000 N 
ATOM     11  C   UNL     1      48.983   7.182  15.364  0.00  0.00    +0.000 C 
ATOM     12  O   UNL     1      49.821   6.950  14.496  0.00  0.00    +0.000 OA
ATOM     13  H   UNL     1      47.106   7.952  15.772  0.00  0.00    +0.000 HD
BRANCH  11  14
ATOM     14  C   UNL     1      49.150   6.680  16.737  0.00  0.00    +0.000 A 
ATOM     15  C   UNL     1      49.728   7.492  17.704  0.00  0.00    +0.000 A 
ATOM     16  S   UNL     1      49.788   6.783  19.255  0.00  0.00    +0.000 S 
ATOM     17  C   UNL     1      49.090   5.341  18.682  0.00  0.00    +0.000 A 
ATOM     18  N   UNL     1      48.869   4.291  19.517  0.00  0.00    +0.000 NA
ATOM     19  C   UNL     1      48.353   3.254  18.944  0.00  0.00    +0.000 A 
ATOM     20  N   UNL     1      48.032   3.175  17.612  0.00  0.00    +0.000 N 
ATOM     21  C   UNL     1      48.230   4.214  16.733  0.00  0.00    +0.000 A 
ATOM     22  O   UNL     1      47.921   4.119  15.554  0.00  0.00    +0.000 OA
ATOM     23  C   UNL     1      48.804   5.406  17.329  0.00  0.00    +0.000 A 
ATOM     24  H   UNL     1      47.627   2.336  17.225  0.00  0.00    +0.000 HD
ENDBRANCH  11  14
ENDBRANCH   9  10
ENDBRANCH   3   9
BRANCH   6  25
ATOM     25  C   UNL     1      43.250   5.625  11.178  0.00  0.00    +0.000 C 
BRANCH  25  26
ATOM     26  N   UNL     1      43.493   4.986   9.884  0.00  0.00    +0.000 NA
ATOM     27  H   UNL     1      44.278   5.458   9.431  0.00  0.00    +0.000 HD
BRANCH  26  28
ATOM     28  C   UNL     1      43.880   3.574   9.998  0.00  0.00    +0.000 C 
BRANCH  28  29
ATOM     29  C   UNL     1      45.003   3.251   9.026  0.00  0.00    +0.000 A 
ATOM     30  C   UNL     1      45.392   1.927   8.836  0.00  0.00    +0.000 A 
ATOM     31  C   UNL     1      46.378   1.660   7.897  0.00  0.00    +0.000 A 
ATOM     32 CL   UNL     1      46.877   0.036   7.622  0.00  0.00    +0.000 Cl
ATOM     33  C   UNL     1      46.958   2.691   7.173  0.00  0.00    +0.000 A 
ATOM     34  C   UNL     1      46.514   3.974   7.425  0.00  0.00    +0.000 A 
ATOM     35  N   UNL     1      45.558   4.277   8.330  0.00  0.00    +0.000 NA
ENDBRANCH  28  29
ENDBRANCH  26  28
ENDBRANCH  25  26
ENDBRANCH   6  25
TORSDOF 8
ENDMDL
MODEL 2
REMARK VINA RESULT:    -8.060      1.292      1.992
REMARK INTER + INTRA:         -13.092
REMARK INTER:                 -11.932
REMARK INTRA:                  -1.160
REMARK UNBOUND:                -1.263
REMARK  Name = 
REMARK  9 active torsions:
REMARK  status: ('A' for Active; 'I' for Inactive)
REMARK    1  A    between atoms: C_1  and  O_2
REMARK    2  A    between atoms: O_2  and  C_3
REMARK    3  A    between atoms: C_5  and  C_6
REMARK    4  A    between atoms: C_6  and  N_7
REMARK    5  A    between atoms: C_8  and  C_10
REMARK    6  A    between atoms: C_22  and  C_23
REMARK    7  A    between atoms: C_23  and  N_24
REMARK    8  A    between atoms: N_24  and  C_25
REMARK    9  A    between atoms: C_25  and  C_26
REMARK                            x       y       z     vdW  Elec       q    Type
REMARK                         _______ _______ _______ _____ _____    ______ ____
ROOT
ATOM      1  C   UNL     1      44.791   5.870  12.433  0.00  0.00    +0.000 A 
ATOM      2  C   UNL     1      45.986   6.453  12.895  0.00  0.00    +0.000 A 
ATOM      3  C   UNL     1      46.977   5.689  13.533  0.00  0.00    +0.000 A 
ATOM      4  C   UNL     1      46.761   4.319  13.688  0.00  0.00    +0.000 A 
ATOM      5  C   UNL     1      45.599   3.725  13.190  0.00  0.00    +0.000 A 
ATOM      6  C   UNL     1      44.617   4.479  12.519  0.00  0.00    +0.000 A 
ENDROOT
BRANCH   1   8
ATOM      7  C   UNL     1      44.487   7.974  11.382  0.00  0.00    +0.000 C 
ATOM      8  O   UNL     1      43.922   6.737  11.819  0.00  0.00    +0.000 OA
ENDBRANCH   1   8
BRANCH   3   9
ATOM      9  C   UNL     1      48.272   6.306  14.004  0.00  0.00    +0.000 C 
BRANCH   9  10
ATOM     10  N   UNL     1      48.321   6.396  15.445  0.00  0.00    +0.000 N 
ATOM     11  C   UNL     1      49.500   6.633  16.109  0.00  0.00    +0.000 C 
ATOM     12  O   UNL     1      50.553   6.839  15.510  0.00  0.00    +0.000 OA
ATOM     13  H   UNL     1      47.532   6.010  15.953  0.00  0.00    +0.000 HD
BRANCH  11  14
ATOM     14  C   UNL     1      49.435   6.691  17.578  0.00  0.00    +0.000 A 
ATOM     15  C   UNL     1      49.738   7.876  18.237  0.00  0.00    +0.000 A 
ATOM     16  S   UNL     1      49.552   7.791  19.931  0.00  0.00    +0.000 S 
ATOM     17  C   UNL     1      49.111   6.150  19.854  0.00  0.00    +0.000 A 
ATOM     18  N   UNL     1      48.822   5.449  20.983  0.00  0.00    +0.000 NA
ATOM     19  C   UNL     1      48.521   4.209  20.780  0.00  0.00    +0.000 A 
ATOM     20  N   UNL     1      48.478   3.608  19.547  0.00  0.00    +0.000 N 
ATOM     21  C   UNL     1      48.754   4.278  18.378  0.00  0.00    +0.000 A 
ATOM     22  O   UNL     1      48.693   3.718  17.293  0.00  0.00    +0.000 OA
ATOM     23  C   UNL     1      49.092   5.678  18.552  0.00  0.00    +0.000 A 
ATOM     24  H   UNL     1      48.233   2.633  19.454  0.00  0.00    +0.000 HD
ENDBRANCH  11  14
ENDBRANCH   9  10
ENDBRANCH   3   9
BRANCH   6  25
ATOM     25  C   UNL     1      43.470   3.720  11.892  0.00  0.00    +0.000 C 
BRANCH  25  26
ATOM     26  N   UNL     1      43.799   3.035  10.641  0.00  0.00    +0.000 NA
ATOM     27  H   UNL     1      42.985   2.494  10.343  0.00  0.00    +0.000 HD
BRANCH  26  28
ATOM     28  C   UNL     1      44.099   3.955   9.537  0.00  0.00    +0.000 C 
BRANCH  28  29
ATOM     29  C   UNL     1      45.225   3.404   8.676  0.00  0.00    +0.000 A 
ATOM     30  C   UNL     1      45.460   2.033   8.643  0.00  0.00    +0.000 A 
ATOM     31  C   UNL     1      46.455   1.556   7.803  0.00  0.00    +0.000 A 
ATOM     32 CL   UNL     1      46.769  -0.134   7.721  0.00  0.00    +0.000 Cl
ATOM     33  C   UNL     1      47.194   2.432   7.021  0.00  0.00    +0.000 A 
ATOM     34  C   UNL     1      46.895   3.777   7.115  0.00  0.00    +0.000 A 
ATOM     35  N   UNL     1      45.936   4.281   7.922  0.00  0.00    +0.000 NA
ENDBRANCH  28  29
ENDBRANCH  26  28
ENDBRANCH  25  26
ENDBRANCH   6  25
TORSDOF 8
ENDMDL
MODEL 3
REMARK VINA RESULT:    -7.665      1.629      2.212
REMARK INTER + INTRA:         -12.513
REMARK INTER:                 -11.177
REMARK INTRA:                  -1.335
REMARK UNBOUND:                -1.263
REMARK  Name = 
REMARK  9 active torsions:
REMARK  status: ('A' for Active; 'I' for Inactive)
REMARK    1  A    between atoms: C_1  and  O_2
REMARK    2  A    between atoms: O_2  and  C_3
REMARK    3  A    between atoms: C_5  and  C_6
REMARK    4  A    between atoms: C_6  and  N_7
REMARK    5  A    between atoms: C_8  and  C_10
REMARK    6  A    between atoms: C_22  and  C_23
REMARK    7  A    between atoms: C_23  and  N_24
REMARK    8  A    between atoms: N_24  and  C_25
REMARK    9  A    between atoms: C_25  and  C_26
REMARK                            x       y       z     vdW  Elec       q    Type
REMARK                         _______ _______ _______ _____ _____    ______ ____
ROOT
ATOM      1  C   UNL     1      45.742   4.890  12.475  0.00  0.00    +0.000 A 
ATOM      2  C   UNL     1      46.653   5.740  13.127  0.00  0.00    +0.000 A 
ATOM      3  C   UNL     1      46.640   7.129  12.918  0.00  0.00    +0.000 A 
ATOM      4  C   UNL     1      45.682   7.661  12.053  0.00  0.00    +0.000 A 
ATOM      5  C   UNL     1      44.744   6.829  11.440  0.00  0.00    +0.000 A 
ATOM      6  C   UNL     1      44.730   5.439  11.671  0.00  0.00    +0.000 A 
ENDROOT
BRANCH   1   8
ATOM      7  C   UNL     1      46.835   3.245  13.787  0.00  0.00    +0.000 C 
ATOM      8  O   UNL     1      45.865   3.558  12.786  0.00  0.00    +0.000 OA
ENDBRANCH   1   8
BRANCH   3   9
ATOM      9  C   UNL     1      47.598   8.048  13.638  0.00  0.00    +0.000 C 
BRANCH   9  10
ATOM     10  N   UNL     1      47.821   7.619  14.999  0.00  0.00    +0.000 N 
ATOM     11  C   UNL     1      49.016   7.068  15.391  0.00  0.00    +0.000 C 
ATOM     12  O   UNL     1      49.970   6.970  14.621  0.00  0.00    +0.000 OA
ATOM     13  H   UNL     1      46.996   7.480  15.574  0.00  0.00    +0.000 HD
BRANCH  11  14
ATOM     14  C   UNL     1      49.128   6.654  16.798  0.00  0.00    +0.000 A 
ATOM     15  C   UNL     1      49.651   5.406  17.112  0.00  0.00    +0.000 A 
ATOM     16  S   UNL     1      49.770   5.109  18.788  0.00  0.00    +0.000 S 
ATOM     17  C   UNL     1      49.076   6.617  19.159  0.00  0.00    +0.000 A 
ATOM     18  N   UNL     1      48.877   6.997  20.450  0.00  0.00    +0.000 NA
ATOM     19  C   UNL     1      48.323   8.157  20.585  0.00  0.00    +0.000 A 
ATOM     20  N   UNL     1      47.957   8.974  19.545  0.00  0.00    +0.000 N 
ATOM     21  C   UNL     1      48.146   8.636  18.225  0.00  0.00    +0.000 A 
ATOM     22  O   UNL     1      47.822   9.391  17.321  0.00  0.00    +0.000 OA
ATOM     23  C   UNL     1      48.770   7.342  18.020  0.00  0.00    +0.000 A 
ATOM     24  H   UNL     1      47.530   9.872  19.717  0.00  0.00    +0.000 HD
ENDBRANCH  11  14
ENDBRANCH   9  10
ENDBRANCH   3   9
BRANCH   6  25
ATOM     25  C   UNL     1      43.586   4.650  11.076  0.00  0.00    +0.000 C 
BRANCH  25  26
ATOM     26  N   UNL     1      43.985   3.625  10.109  0.00  0.00    +0.000 NA
ATOM     27  H   UNL     1      43.198   2.989   9.967  0.00  0.00    +0.000 HD
BRANCH  26  28
ATOM     28  C   UNL     1      44.308   4.172   8.785  0.00  0.00    +0.000 C 
BRANCH  28  29
ATOM     29  C   UNL     1      45.481   3.423   8.173  0.00  0.00    +0.000 A 
ATOM     30  C   UNL     1      45.544   2.036   8.276  0.00  0.00    +0.000 A 
ATOM     31  C   UNL     1      46.595   1.378   7.656  0.00  0.00    +0.000 A 
ATOM     32 CL   UNL     1      46.703  -0.337   7.747  0.00  0.00    +0.000 Cl
ATOM     33  C   UNL     1      47.556   2.092   6.954  0.00  0.00    +0.000 A 
ATOM     34  C   UNL     1      47.418   3.464   6.902  0.00  0.00    +0.000 A 
ATOM     35  N   UNL     1      46.410   4.143   7.493  0.00  0.00    +0.000 NA
ENDBRANCH  28  29
ENDBRANCH  26  28
ENDBRANCH  25  26
ENDBRANCH   6  25
TORSDOF 8
ENDMDL
MODEL 4
REMARK VINA RESULT:    -7.595      2.060      2.338
REMARK INTER + INTRA:         -12.410
REMARK INTER:                 -11.129
REMARK INTRA:                  -1.281
REMARK UNBOUND:                -1.263
REMARK  Name = 
REMARK  9 active torsions:
REMARK  status: ('A' for Active; 'I' for Inactive)
REMARK    1  A    between atoms: C_1  and  O_2
REMARK    2  A    between atoms: O_2  and  C_3
REMARK    3  A    between atoms: C_5  and  C_6
REMARK    4  A    between atoms: C_6  and  N_7
REMARK    5  A    between atoms: C_8  and  C_10
REMARK    6  A    between atoms: C_22  and  C_23
REMARK    7  A    between atoms: C_23  and  N_24
REMARK    8  A    between atoms: N_24  and  C_25
REMARK    9  A    between atoms: C_25  and  C_26
REMARK                            x       y       z     vdW  Elec       q    Type
REMARK                         _______ _______ _______ _____ _____    ______ ____
ROOT
ATOM      1  C   UNL     1      46.031   5.229  13.001  0.00  0.00    +0.000 A 
ATOM      2  C   UNL     1      46.873   6.204  13.567  0.00  0.00    +0.000 A 
ATOM      3  C   UNL     1      46.860   7.536  13.118  0.00  0.00    +0.000 A 
ATOM      4  C   UNL     1      45.971   7.883  12.099  0.00  0.00    +0.000 A 
ATOM      5  C   UNL     1      45.099   6.932  11.566  0.00  0.00    +0.000 A 
ATOM      6  C   UNL     1      45.083   5.604  12.034  0.00  0.00    +0.000 A 
ENDROOT
BRANCH   1   8
ATOM      7  C   UNL     1      47.145   3.831  14.559  0.00  0.00    +0.000 C 
ATOM      8  O   UNL     1      46.145   3.975  13.549  0.00  0.00    +0.000 OA
ENDBRANCH   1   8
BRANCH   3   9
ATOM      9  C   UNL     1      47.742   8.591  13.741  0.00  0.00    +0.000 C 
BRANCH   9  10
ATOM     10  N   UNL     1      47.521   8.691  15.165  0.00  0.00    +0.000 N 
ATOM     11  C   UNL     1      48.306   9.492  15.958  0.00  0.00    +0.000 C 
ATOM     12  O   UNL     1      49.190  10.204  15.488  0.00  0.00    +0.000 OA
ATOM     13  H   UNL     1      46.966   7.958  15.593  0.00  0.00    +0.000 HD
BRANCH  11  14
ATOM     14  C   UNL     1      48.000   9.507  17.397  0.00  0.00    +0.000 A 
ATOM     15  C   UNL     1      47.695  10.707  18.026  0.00  0.00    +0.000 A 
ATOM     16  S   UNL     1      47.303  10.541  19.678  0.00  0.00    +0.000 S 
ATOM     17  C   UNL     1      47.578   8.863  19.629  0.00  0.00    +0.000 A 
ATOM     18  N   UNL     1      47.426   8.096  20.743  0.00  0.00    +0.000 NA
ATOM     19  C   UNL     1      47.686   6.843  20.567  0.00  0.00    +0.000 A 
ATOM     20  N   UNL     1      48.078   6.286  19.376  0.00  0.00    +0.000 N 
ATOM     21  C   UNL     1      48.235   7.019  18.223  0.00  0.00    +0.000 A 
ATOM     22  O   UNL     1      48.571   6.492  17.173  0.00  0.00    +0.000 OA
ATOM     23  C   UNL     1      47.950   8.435  18.367  0.00  0.00    +0.000 A 
ATOM     24  H   UNL     1      48.263   5.296  19.302  0.00  0.00    +0.000 HD
ENDBRANCH  11  14
ENDBRANCH   9  10
ENDBRANCH   3   9
BRANCH   6  25
ATOM     25  C   UNL     1      44.004   4.692  11.496  0.00  0.00    +0.000 C 
BRANCH  25  26
ATOM     26  N   UNL     1      44.485   3.624  10.618  0.00  0.00    +0.000 NA
ATOM     27  H   UNL     1      43.889   2.804  10.748  0.00  0.00    +0.000 HD
BRANCH  26  28
ATOM     28  C   UNL     1      44.399   3.964   9.192  0.00  0.00    +0.000 C 
BRANCH  28  29
ATOM     29  C   UNL     1      45.509   3.275   8.414  0.00  0.00    +0.000 A 
ATOM     30  C   UNL     1      45.615   1.888   8.446  0.00  0.00    +0.000 A 
ATOM     31  C   UNL     1      46.601   1.286   7.678  0.00  0.00    +0.000 A 
ATOM     32 CL   UNL     1      46.758  -0.428   7.677  0.00  0.00    +0.000 Cl
ATOM     33  C   UNL     1      47.456   2.055   6.902  0.00  0.00    +0.000 A 
ATOM     34  C   UNL     1      47.281   3.425   6.929  0.00  0.00    +0.000 A 
ATOM     35  N   UNL     1      46.335   4.049   7.664  0.00  0.00    +0.000 NA
ENDBRANCH  28  29
ENDBRANCH  26  28
ENDBRANCH  25  26
ENDBRANCH   6  25
TORSDOF 8
ENDMDL
MODEL 5
REMARK VINA RESULT:    -7.484      2.422      2.777
REMARK INTER + INTRA:         -12.247
REMARK INTER:                 -11.124
REMARK INTRA:                  -1.123
REMARK UNBOUND:                -1.263
REMARK  Name = 
REMARK  9 active torsions:
REMARK  status: ('A' for Active; 'I' for Inactive)
REMARK    1  A    between atoms: C_1  and  O_2
REMARK    2  A    between atoms: O_2  and  C_3
REMARK    3  A    between atoms: C_5  and  C_6
REMARK    4  A    between atoms: C_6  and  N_7
REMARK    5  A    between atoms: C_8  and  C_10
REMARK    6  A    between atoms: C_22  and  C_23
REMARK    7  A    between atoms: C_23  and  N_24
REMARK    8  A    between atoms: N_24  and  C_25
REMARK    9  A    between atoms: C_25  and  C_26
REMARK                            x       y       z     vdW  Elec       q    Type
REMARK                         _______ _______ _______ _____ _____    ______ ____
ROOT
ATOM      1  C   UNL     1      46.693   4.646  13.401  0.00  0.00    +0.000 A 
ATOM      2  C   UNL     1      47.695   5.627  13.516  0.00  0.00    +0.000 A 
ATOM      3  C   UNL     1      47.718   6.754  12.679  0.00  0.00    +0.000 A 
ATOM      4  C   UNL     1      46.705   6.896  11.728  0.00  0.00    +0.000 A 
ATOM      5  C   UNL     1      45.681   5.951  11.640  0.00  0.00    +0.000 A 
ATOM      6  C   UNL     1      45.633   4.836  12.499  0.00  0.00    +0.000 A 
ENDROOT
BRANCH   1   8
ATOM      7  C   UNL     1      47.101   3.977  15.639  0.00  0.00    +0.000 C 
ATOM      8  O   UNL     1      46.791   3.608  14.294  0.00  0.00    +0.000 OA
ENDBRANCH   1   8
BRANCH   3   9
ATOM      9  C   UNL     1      48.776   7.823  12.818  0.00  0.00    +0.000 C 
BRANCH   9  10
ATOM     10  N   UNL     1      49.912   7.348  13.573  0.00  0.00    +0.000 N 
ATOM     11  C   UNL     1      50.679   8.200  14.328  0.00  0.00    +0.000 C 
ATOM     12  O   UNL     1      50.402   9.392  14.445  0.00  0.00    +0.000 OA
ATOM     13  H   UNL     1      50.285   6.440  13.313  0.00  0.00    +0.000 HD
BRANCH  11  14
ATOM     14  C   UNL     1      51.820   7.609  15.045  0.00  0.00    +0.000 A 
ATOM     15  C   UNL     1      53.117   7.932  14.665  0.00  0.00    +0.000 A 
ATOM     16  S   UNL     1      54.320   7.213  15.638  0.00  0.00    +0.000 S 
ATOM     17  C   UNL     1      53.154   6.399  16.572  0.00  0.00    +0.000 A 
ATOM     18  N   UNL     1      53.524   5.582  17.594  0.00  0.00    +0.000 NA
ATOM     19  C   UNL     1      52.537   5.013  18.205  0.00  0.00    +0.000 A 
ATOM     20  N   UNL     1      51.214   5.193  17.889  0.00  0.00    +0.000 N 
ATOM     21  C   UNL     1      50.794   6.015  16.870  0.00  0.00    +0.000 A 
ATOM     22  O   UNL     1      49.607   6.166  16.621  0.00  0.00    +0.000 OA
ATOM     23  C   UNL     1      51.865   6.683  16.155  0.00  0.00    +0.000 A 
ATOM     24  H   UNL     1      50.488   4.720  18.408  0.00  0.00    +0.000 HD
ENDBRANCH  11  14
ENDBRANCH   9  10
ENDBRANCH   3   9
BRANCH   6  25
ATOM     25  C   UNL     1      44.408   3.954  12.421  0.00  0.00    +0.000 C 
BRANCH  25  26
ATOM     26  N   UNL     1      44.406   3.003  11.308  0.00  0.00    +0.000 NA
ATOM     27  H   UNL     1      43.670   2.313  11.470  0.00  0.00    +0.000 HD
BRANCH  26  28
ATOM     28  C   UNL     1      44.097   3.626  10.014  0.00  0.00    +0.000 C 
BRANCH  28  29
ATOM     29  C   UNL     1      45.151   3.259   8.982  0.00  0.00    +0.000 A 
ATOM     30  C   UNL     1      45.522   1.928   8.817  0.00  0.00    +0.000 A 
ATOM     31  C   UNL     1      46.443   1.619   7.826  0.00  0.00    +0.000 A 
ATOM     32 CL   UNL     1      46.917  -0.016   7.579  0.00  0.00    +0.000 Cl
ATOM     33  C   UNL     1      46.977   2.619   7.027  0.00  0.00    +0.000 A 
ATOM     34  C   UNL     1      46.555   3.913   7.258  0.00  0.00    +0.000 A 
ATOM     35  N   UNL     1      45.662   4.255   8.213  0.00  0.00    +0.000 NA
ENDBRANCH  28  29
ENDBRANCH  26  28
ENDBRANCH  25  26
ENDBRANCH   6  25
TORSDOF 8
ENDMDL
MODEL 6
REMARK VINA RESULT:    -7.355      2.174      3.003
REMARK INTER + INTRA:         -12.058
REMARK INTER:                 -10.623
REMARK INTRA:                  -1.435
REMARK UNBOUND:                -1.263
REMARK  Name = 
REMARK  9 active torsions:
REMARK  status: ('A' for Active; 'I' for Inactive)
REMARK    1  A    between atoms: C_1  and  O_2
REMARK    2  A    between atoms: O_2  and  C_3
REMARK    3  A    between atoms: C_5  and  C_6
REMARK    4  A    between atoms: C_6  and  N_7
REMARK    5  A    between atoms: C_8  and  C_10
REMARK    6  A    between atoms: C_22  and  C_23
REMARK    7  A    between atoms: C_23  and  N_24
REMARK    8  A    between atoms: N_24  and  C_25
REMARK    9  A    between atoms: C_25  and  C_26
REMARK                            x       y       z     vdW  Elec       q    Type
REMARK                         _______ _______ _______ _____ _____    ______ ____
ROOT
ATOM      1  C   UNL     1      45.726   5.152  12.450  0.00  0.00    +0.000 A 
ATOM      2  C   UNL     1      46.561   6.105  13.062  0.00  0.00    +0.000 A 
ATOM      3  C   UNL     1      46.372   7.483  12.863  0.00  0.00    +0.000 A 
ATOM      4  C   UNL     1      45.315   7.897  12.050  0.00  0.00    +0.000 A 
ATOM      5  C   UNL     1      44.454   6.959  11.478  0.00  0.00    +0.000 A 
ATOM      6  C   UNL     1      44.617   5.578  11.700  0.00  0.00    +0.000 A 
ENDROOT
BRANCH   1   8
ATOM      7  C   UNL     1      46.833   3.642  13.905  0.00  0.00    +0.000 C 
ATOM      8  O   UNL     1      46.023   3.845  12.745  0.00  0.00    +0.000 OA
ENDBRANCH   1   8
BRANCH   3   9
ATOM      9  C   UNL     1      47.248   8.509  13.541  0.00  0.00    +0.000 C 
BRANCH   9  10
ATOM     10  N   UNL     1      48.382   7.891  14.189  0.00  0.00    +0.000 N 
ATOM     11  C   UNL     1      48.700   8.168  15.496  0.00  0.00    +0.000 C 
ATOM     12  O   UNL     1      48.004   8.905  16.191  0.00  0.00    +0.000 OA
ATOM     13  H   UNL     1      49.082   7.474  13.583  0.00  0.00    +0.000 HD
BRANCH  11  14
ATOM     14  C   UNL     1      49.884   7.492  16.049  0.00  0.00    +0.000 A 
ATOM     15  C   UNL     1      49.777   6.766  17.228  0.00  0.00    +0.000 A 
ATOM     16  S   UNL     1      51.224   5.994  17.698  0.00  0.00    +0.000 S 
ATOM     17  C   UNL     1      52.065   6.644  16.370  0.00  0.00    +0.000 A 
ATOM     18  N   UNL     1      53.385   6.378  16.179  0.00  0.00    +0.000 NA
ATOM     19  C   UNL     1      53.901   6.953  15.143  0.00  0.00    +0.000 A 
ATOM     20  N   UNL     1      53.213   7.766  14.277  0.00  0.00    +0.000 N 
ATOM     21  C   UNL     1      51.877   8.056  14.425  0.00  0.00    +0.000 A 
ATOM     22  O   UNL     1      51.288   8.772  13.629  0.00  0.00    +0.000 OA
ATOM     23  C   UNL     1      51.249   7.429  15.573  0.00  0.00    +0.000 A 
ATOM     24  H   UNL     1      53.674   8.184  13.482  0.00  0.00    +0.000 HD
ENDBRANCH  11  14
ENDBRANCH   9  10
ENDBRANCH   3   9
BRANCH   6  25
ATOM     25  C   UNL     1      43.548   4.657  11.157  0.00  0.00    +0.000 C 
BRANCH  25  26
ATOM     26  N   UNL     1      44.025   3.663  10.195  0.00  0.00    +0.000 NA
ATOM     27  H   UNL     1      43.284   2.976  10.043  0.00  0.00    +0.000 HD
BRANCH  26  28
ATOM     28  C   UNL     1      44.325   4.231   8.875  0.00  0.00    +0.000 C 
BRANCH  28  29
ATOM     29  C   UNL     1      45.486   3.491   8.229  0.00  0.00    +0.000 A 
ATOM     30  C   UNL     1      45.558   2.104   8.323  0.00  0.00    +0.000 A 
ATOM     31  C   UNL     1      46.596   1.453   7.673  0.00  0.00    +0.000 A 
ATOM     32 CL   UNL     1      46.713  -0.262   7.751  0.00  0.00    +0.000 Cl
ATOM     33  C   UNL     1      47.535   2.175   6.952  0.00  0.00    +0.000 A 
ATOM     34  C   UNL     1      47.390   3.548   6.910  0.00  0.00    +0.000 A 
ATOM     35  N   UNL     1      46.395   4.219   7.531  0.00  0.00    +0.000 NA
ENDBRANCH  28  29
ENDBRANCH  26  28
ENDBRANCH  25  26
ENDBRANCH   6  25
TORSDOF 8
ENDMDL
MODEL 7
REMARK VINA RESULT:    -6.858      2.674      3.571
REMARK INTER + INTRA:         -11.329
REMARK INTER:                  -9.928
REMARK INTRA:                  -1.400
REMARK UNBOUND:                -1.263
REMARK  Name = 
REMARK  9 active torsions:
REMARK  status: ('A' for Active; 'I' for Inactive)
REMARK    1  A    between atoms: C_1  and  O_2
REMARK    2  A    between atoms: O_2  and  C_3
REMARK    3  A    between atoms: C_5  and  C_6
REMARK    4  A    between atoms: C_6  and  N_7
REMARK    5  A    between atoms: C_8  and  C_10
REMARK    6  A    between atoms: C_22  and  C_23
REMARK    7  A    between atoms: C_23  and  N_24
REMARK    8  A    between atoms: N_24  and  C_25
REMARK    9  A    between atoms: C_25  and  C_26
REMARK                            x       y       z     vdW  Elec       q    Type
REMARK                         _______ _______ _______ _____ _____    ______ ____
ROOT
ATOM      1  C   UNL     1      45.113   6.513  12.381  0.00  0.00    +0.000 A 
ATOM      2  C   UNL     1      46.292   7.281  12.395  0.00  0.00    +0.000 A 
ATOM      3  C   UNL     1      47.446   6.842  13.065  0.00  0.00    +0.000 A 
ATOM      4  C   UNL     1      47.408   5.605  13.711  0.00  0.00    +0.000 A 
ATOM      5  C   UNL     1      46.257   4.817  13.661  0.00  0.00    +0.000 A 
ATOM      6  C   UNL     1      45.108   5.235  12.963  0.00  0.00    +0.000 A 
ENDROOT
BRANCH   1   8
ATOM      7  C   UNL     1      44.285   8.387  11.188  0.00  0.00    +0.000 C 
ATOM      8  O   UNL     1      44.070   7.062  11.677  0.00  0.00    +0.000 OA
ENDBRANCH   1   8
BRANCH   3   9
ATOM      9  C   UNL     1      48.721   7.651  13.058  0.00  0.00    +0.000 C 
BRANCH   9  10
ATOM     10  N   UNL     1      49.718   7.074  13.930  0.00  0.00    +0.000 N 
ATOM     11  C   UNL     1      49.854   7.482  15.234  0.00  0.00    +0.000 C 
ATOM     12  O   UNL     1      49.099   8.312  15.737  0.00  0.00    +0.000 OA
ATOM     13  H   UNL     1      50.478   6.572  13.483  0.00  0.00    +0.000 HD
BRANCH  11  14
ATOM     14  C   UNL     1      50.912   6.835  16.026  0.00  0.00    +0.000 A 
ATOM     15  C   UNL     1      50.572   6.029  17.104  0.00  0.00    +0.000 A 
ATOM     16  S   UNL     1      51.911   5.305  17.875  0.00  0.00    +0.000 S 
ATOM     17  C   UNL     1      53.002   6.086  16.829  0.00  0.00    +0.000 A 
ATOM     18  N   UNL     1      54.344   5.903  16.955  0.00  0.00    +0.000 NA
ATOM     19  C   UNL     1      55.055   6.572  16.108  0.00  0.00    +0.000 A 
ATOM     20  N   UNL     1      54.544   7.402  15.142  0.00  0.00    +0.000 N 
ATOM     21  C   UNL     1      53.195   7.610  14.972  0.00  0.00    +0.000 A 
ATOM     22  O   UNL     1      52.770   8.344  14.093  0.00  0.00    +0.000 OA
ATOM     23  C   UNL     1      52.352   6.876  15.897  0.00  0.00    +0.000 A 
ATOM     24  H   UNL     1      55.154   7.895  14.507  0.00  0.00    +0.000 HD
ENDBRANCH  11  14
ENDBRANCH   9  10
ENDBRANCH   3   9
BRANCH   6  25
ATOM     25  C   UNL     1      43.970   4.246  12.847  0.00  0.00    +0.000 C 
BRANCH  25  26
ATOM     26  N   UNL     1      43.401   4.120  11.504  0.00  0.00    +0.000 NA
ATOM     27  H   UNL     1      43.807   4.846  10.910  0.00  0.00    +0.000 HD
BRANCH  26  28
ATOM     28  C   UNL     1      43.722   2.842  10.856  0.00  0.00    +0.000 C 
BRANCH  28  29
ATOM     29  C   UNL     1      44.704   3.056   9.716  0.00  0.00    +0.000 A 
ATOM     30  C   UNL     1      45.324   1.958   9.125  0.00  0.00    +0.000 A 
ATOM     31  C   UNL     1      46.170   2.182   8.048  0.00  0.00    +0.000 A 
ATOM     32 CL   UNL     1      46.945   0.852   7.278  0.00  0.00    +0.000 Cl
ATOM     33  C   UNL     1      46.387   3.470   7.581  0.00  0.00    +0.000 A 
ATOM     34  C   UNL     1      45.733   4.501   8.226  0.00  0.00    +0.000 A 
ATOM     35  N   UNL     1      44.904   4.325   9.278  0.00  0.00    +0.000 NA
ENDBRANCH  28  29
ENDBRANCH  26  28
ENDBRANCH  25  26
ENDBRANCH   6  25
TORSDOF 8
ENDMDL
MODEL 8
REMARK VINA RESULT:    -6.788      3.203      4.902
REMARK INTER + INTRA:         -11.225
REMARK INTER:                 -10.054
REMARK INTRA:                  -1.171
REMARK UNBOUND:                -1.263
REMARK  Name = 
REMARK  9 active torsions:
REMARK  status: ('A' for Active; 'I' for Inactive)
REMARK    1  A    between atoms: C_1  and  O_2
REMARK    2  A    between atoms: O_2  and  C_3
REMARK    3  A    between atoms: C_5  and  C_6
REMARK    4  A    between atoms: C_6  and  N_7
REMARK    5  A    between atoms: C_8  and  C_10
REMARK    6  A    between atoms: C_22  and  C_23
REMARK    7  A    between atoms: C_23  and  N_24
REMARK    8  A    between atoms: N_24  and  C_25
REMARK    9  A    between atoms: C_25  and  C_26
REMARK                            x       y       z     vdW  Elec       q    Type
REMARK                         _______ _______ _______ _____ _____    ______ ____
ROOT
ATOM      1  C   UNL     1      45.775   7.281  12.431  0.00  0.00    +0.000 A 
ATOM      2  C   UNL     1      46.935   7.405  13.217  0.00  0.00    +0.000 A 
ATOM      3  C   UNL     1      47.418   6.334  13.987  0.00  0.00    +0.000 A 
ATOM      4  C   UNL     1      46.728   5.122  13.945  0.00  0.00    +0.000 A 
ATOM      5  C   UNL     1      45.603   4.977  13.130  0.00  0.00    +0.000 A 
ATOM      6  C   UNL     1      45.132   6.036  12.330  0.00  0.00    +0.000 A 
ENDROOT
BRANCH   1   8
ATOM      7  C   UNL     1      45.778   9.650  12.331  0.00  0.00    +0.000 C 
ATOM      8  O   UNL     1      45.429   8.405  11.723  0.00  0.00    +0.000 OA
ENDBRANCH   1   8
BRANCH   3   9
ATOM      9  C   UNL     1      48.679   6.456  14.810  0.00  0.00    +0.000 C 
BRANCH   9  10
ATOM     10  N   UNL     1      49.583   7.434  14.251  0.00  0.00    +0.000 N 
ATOM     11  C   UNL     1      50.825   7.655  14.793  0.00  0.00    +0.000 C 
ATOM     12  O   UNL     1      51.248   6.993  15.738  0.00  0.00    +0.000 OA
ATOM     13  H   UNL     1      49.177   8.131  13.636  0.00  0.00    +0.000 HD
BRANCH  11  14
ATOM     14  C   UNL     1      51.657   8.684  14.151  0.00  0.00    +0.000 A 
ATOM     15  C   UNL     1      52.411   9.550  14.933  0.00  0.00    +0.000 A 
ATOM     16  S   UNL     1      53.367  10.639  14.032  0.00  0.00    +0.000 S 
ATOM     17  C   UNL     1      52.769  10.030  12.560  0.00  0.00    +0.000 A 
ATOM     18  N   UNL     1      53.181  10.545  11.371  0.00  0.00    +0.000 NA
ATOM     19  C   UNL     1      52.631  10.002  10.335  0.00  0.00    +0.000 A 
ATOM     20  N   UNL     1      51.710   8.987  10.382  0.00  0.00    +0.000 N 
ATOM     21  C   UNL     1      51.270   8.429  11.560  0.00  0.00    +0.000 A 
ATOM     22  O   UNL     1      50.459   7.515  11.569  0.00  0.00    +0.000 OA
ATOM     23  C   UNL     1      51.862   9.002  12.754  0.00  0.00    +0.000 A 
ATOM     24  H   UNL     1      51.319   8.602   9.535  0.00  0.00    +0.000 HD
ENDBRANCH  11  14
ENDBRANCH   9  10
ENDBRANCH   3   9
BRANCH   6  25
ATOM     25  C   UNL     1      43.999   5.732  11.376  0.00  0.00    +0.000 C 
BRANCH  25  26
ATOM     26  N   UNL     1      44.418   5.374  10.020  0.00  0.00    +0.000 NA
ATOM     27  H   UNL     1      45.430   5.491   9.951  0.00  0.00    +0.000 HD
BRANCH  26  28
ATOM     28  C   UNL     1      44.149   3.970   9.683  0.00  0.00    +0.000 C 
BRANCH  28  29
ATOM     29  C   UNL     1      45.232   3.428   8.764  0.00  0.00    +0.000 A 
ATOM     30  C   UNL     1      45.475   2.058   8.716  0.00  0.00    +0.000 A 
ATOM     31  C   UNL     1      46.428   1.589   7.824  0.00  0.00    +0.000 A 
ATOM     32 CL   UNL     1      46.748  -0.098   7.722  0.00  0.00    +0.000 Cl
ATOM     33  C   UNL     1      47.119   2.471   7.006  0.00  0.00    +0.000 A 
ATOM     34  C   UNL     1      46.817   3.814   7.118  0.00  0.00    +0.000 A 
ATOM     35  N   UNL     1      45.897   4.310   7.975  0.00  0.00    +0.000 NA
ENDBRANCH  28  29
ENDBRANCH  26  28
ENDBRANCH  25  26
ENDBRANCH   6  25
TORSDOF 8
ENDMDL
