MODEL 1
REMARK VINA RESULT:    -8.456      0.000      0.000
REMARK INTER + INTRA:         -11.864
REMARK INTER:                 -10.927
REMARK INTRA:                  -0.937
REMARK UNBOUND:                -0.937
REMARK  Name = 
REMARK  5 active torsions:
REMARK  status: ('A' for Active; 'I' for Inactive)
REMARK    1  A    between atoms: C_2  and  C_3
REMARK    2  A    between atoms: C_6  and  C_7
REMARK    3  A    between atoms: C_11  and  C_12
REMARK    4  A    between atoms: C_12  and  N_13
REMARK    5  A    between atoms: C_18  and  C_19
REMARK                            x       y       z     vdW  Elec       q    Type
REMARK                         _______ _______ _______ _____ _____    ______ ____
ROOT
ATOM      1  C   UNL     1      44.199   5.327  10.968  0.00  0.00    +0.000 C 
ATOM      2  C   UNL     1      43.020   6.248  11.242  0.00  0.00    +0.000 C 
ATOM      3  C   UNL     1      42.904   4.794  11.556  0.00  0.00    +0.000 C 
ENDROOT
BRANCH   1   4
ATOM      4  N   UNL     1      44.544   5.033   9.564  0.00  0.00    +0.000 N 
ATOM      5  C   UNL     1      45.068   3.802   9.141  0.00  0.00    +0.000 A 
ATOM      6  C   UNL     1      44.647   2.556   9.616  0.00  0.00    +0.000 A 
ATOM      7  N   UNL     1      45.100   1.362   9.142  0.00  0.00    +0.000 NA
ATOM      8  C   UNL     1      46.007   1.453   8.143  0.00  0.00    +0.000 A 
ATOM      9  C   UNL     1      46.440   2.678   7.668  0.00  0.00    +0.000 A 
ATOM     10  N   UNL     1      45.982   3.872   8.149  0.00  0.00    +0.000 NA
ATOM     11  H   UNL     1      45.099   5.747   9.094  0.00  0.00    +0.000 HD
BRANCH   9  12
ATOM     12  C   UNL     1      47.454   2.735   6.581  0.00  0.00    +0.000 C 
ATOM     13  N   UNL     1      47.137   3.551   5.529  0.00  0.00    +0.000 N 
ATOM     14  O   UNL     1      48.501   2.104   6.622  0.00  0.00    +0.000 OA
ATOM     15  H   UNL     1      46.258   4.056   5.529  0.00  0.00    +0.000 HD
ATOM     16  H   UNL     1      47.778   3.642   4.753  0.00  0.00    +0.000 HD
ENDBRANCH   9  12
ENDBRANCH   1   4
BRANCH   1  21
ATOM     17  C   UNL     1      47.527   6.712  12.344  0.00  0.00    +0.000 A 
ATOM     18  C   UNL     1      47.680   5.937  13.502  0.00  0.00    +0.000 A 
ATOM     19  C   UNL     1      46.735   4.968  13.849  0.00  0.00    +0.000 A 
ATOM     20  C   UNL     1      45.611   4.765  13.045  0.00  0.00    +0.000 A 
ATOM     21  C   UNL     1      45.414   5.511  11.873  0.00  0.00    +0.000 A 
ATOM     22  C   UNL     1      46.391   6.465  11.552  0.00  0.00    +0.000 A 
BRANCH  17  26
ATOM     23  C   UNL     1      50.419   9.718  11.250  0.00  0.00    +0.000 A 
ATOM     24  C   UNL     1      50.807   8.385  11.379  0.00  0.00    +0.000 A 
ATOM     25  C   UNL     1      49.855   7.416  11.705  0.00  0.00    +0.000 A 
ATOM     26  C   UNL     1      48.504   7.749  11.938  0.00  0.00    +0.000 A 
ATOM     27  C   UNL     1      48.138   9.096  11.800  0.00  0.00    +0.000 A 
ATOM     28  C   UNL     1      49.087  10.060  11.454  0.00  0.00    +0.000 A 
ATOM     29  F   UNL     1      48.687  11.337  11.330  0.00  0.00    +0.000 F 
BRANCH  23  31
ATOM     30  N   UNL     1      52.180  11.516  10.668  0.00  0.00    +0.000 NA
ATOM     31  C   UNL     1      51.376  10.715  10.916  0.00  0.00    +0.000 C 
ENDBRANCH  23  31
ENDBRANCH  17  26
ENDBRANCH   1  21
TORSDOF 5
ENDMDL
MODEL 2
REMARK VINA RESULT:    -8.364      3.506      4.949
REMARK INTER + INTRA:         -11.746
REMARK INTER:                 -11.064
REMARK INTRA:                  -0.682
REMARK UNBOUND:                -0.937
REMARK  Name = 
REMARK  5 active torsions:
REMARK  status: ('A' for Active; 'I' for Inactive)
REMARK    1  A    between atoms: C_2  and  C_3
REMARK    2  A    between atoms: C_6  and  C_7
REMARK    3  A    between atoms: C_11  and  C_12
REMARK    4  A    between atoms: C_12  and  N_13
REMARK    5  A    between atoms: C_18  and  C_19
REMARK                            x       y       z     vdW  Elec       q    Type
REMARK                         _______ _______ _______ _____ _____    ______ ____
ROOT
ATOM      1  C   UNL     1      44.712   5.408  11.007  0.00  0.00    +0.000 C 
ATOM      2  C   UNL     1      43.423   6.055  11.489  0.00  0.00    +0.000 C 
ATOM      3  C   UNL     1      43.704   4.632  11.837  0.00  0.00    +0.000 C 
ENDROOT
BRANCH   1   4
ATOM      4  N   UNL     1      44.852   5.122   9.566  0.00  0.00    +0.000 N 
ATOM      5  C   UNL     1      45.308   3.893   9.066  0.00  0.00    +0.000 A 
ATOM      6  C   UNL     1      44.959   2.644   9.591  0.00  0.00    +0.000 A 
ATOM      7  N   UNL     1      45.339   1.453   9.050  0.00  0.00    +0.000 NA
ATOM      8  C   UNL     1      46.093   1.548   7.932  0.00  0.00    +0.000 A 
ATOM      9  C   UNL     1      46.456   2.776   7.407  0.00  0.00    +0.000 A 
ATOM     10  N   UNL     1      46.072   3.968   7.955  0.00  0.00    +0.000 NA
ATOM     11  H   UNL     1      45.335   5.837   9.026  0.00  0.00    +0.000 HD
BRANCH   9  12
ATOM     12  C   UNL     1      47.304   2.839   6.186  0.00  0.00    +0.000 C 
ATOM     13  N   UNL     1      48.642   2.643   6.394  0.00  0.00    +0.000 N 
ATOM     14  O   UNL     1      46.842   3.046   5.072  0.00  0.00    +0.000 OA
ATOM     15  H   UNL     1      48.988   2.477   7.332  0.00  0.00    +0.000 HD
ATOM     16  H   UNL     1      49.281   2.671   5.612  0.00  0.00    +0.000 HD
ENDBRANCH   9  12
ENDBRANCH   1   4
BRANCH   1  21
ATOM     17  C   UNL     1      47.470   5.948  13.650  0.00  0.00    +0.000 A 
ATOM     18  C   UNL     1      48.360   6.769  12.943  0.00  0.00    +0.000 A 
ATOM     19  C   UNL     1      48.088   7.162  11.630  0.00  0.00    +0.000 A 
ATOM     20  C   UNL     1      46.921   6.729  10.996  0.00  0.00    +0.000 A 
ATOM     21  C   UNL     1      45.995   5.909  11.661  0.00  0.00    +0.000 A 
ATOM     22  C   UNL     1      46.298   5.547  12.982  0.00  0.00    +0.000 A 
BRANCH  17  26
ATOM     23  C   UNL     1      48.289   4.652  17.680  0.00  0.00    +0.000 A 
ATOM     24  C   UNL     1      48.863   5.825  17.190  0.00  0.00    +0.000 A 
ATOM     25  C   UNL     1      48.566   6.249  15.893  0.00  0.00    +0.000 A 
ATOM     26  C   UNL     1      47.719   5.508  15.043  0.00  0.00    +0.000 A 
ATOM     27  C   UNL     1      47.152   4.335  15.560  0.00  0.00    +0.000 A 
ATOM     28  C   UNL     1      47.433   3.922  16.864  0.00  0.00    +0.000 A 
ATOM     29  F   UNL     1      46.863   2.792  17.315  0.00  0.00    +0.000 F 
BRANCH  23  31
ATOM     30  N   UNL     1      48.791   3.868  20.090  0.00  0.00    +0.000 NA
ATOM     31  C   UNL     1      48.580   4.209  19.000  0.00  0.00    +0.000 C 
ENDBRANCH  23  31
ENDBRANCH  17  26
ENDBRANCH   1  21
TORSDOF 5
ENDMDL
MODEL 3
REMARK VINA RESULT:    -7.291      1.417      1.731
REMARK INTER + INTRA:         -10.360
REMARK INTER:                  -9.538
REMARK INTRA:                  -0.822
REMARK UNBOUND:                -0.937
REMARK  Name = 
REMARK  5 active torsions:
REMARK  status: ('A' for Active; 'I' for Inactive)
REMARK    1  A    between atoms: C_2  and  C_3
REMARK    2  A    between atoms: C_6  and  C_7
REMARK    3  A    between atoms: C_11  and  C_12
REMARK    4  A    between atoms: C_12  and  N_13
REMARK    5  A    between atoms: C_18  and  C_19
REMARK                            x       y       z     vdW  Elec       q    Type
REMARK                         _______ _______ _______ _____ _____    ______ ____
ROOT
ATOM      1  C   UNL     1      44.884   6.024  11.004  0.00  0.00    +0.000 C 
ATOM      2  C   UNL     1      43.841   7.072  11.360  0.00  0.00    +0.000 C 
ATOM      3  C   UNL     1      43.590   5.642  11.702  0.00  0.00    +0.000 C 
ENDROOT
BRANCH   1   4
ATOM      4  N   UNL     1      45.078   5.688   9.581  0.00  0.00    +0.000 N 
ATOM      5  C   UNL     1      45.300   4.380   9.122  0.00  0.00    +0.000 A 
ATOM      6  C   UNL     1      44.648   3.245   9.615  0.00  0.00    +0.000 A 
ATOM      7  N   UNL     1      44.807   1.991   9.109  0.00  0.00    +0.000 NA
ATOM      8  C   UNL     1      45.654   1.902   8.059  0.00  0.00    +0.000 A 
ATOM      9  C   UNL     1      46.313   3.014   7.565  0.00  0.00    +0.000 A 
ATOM     10  N   UNL     1      46.151   4.270   8.079  0.00  0.00    +0.000 NA
ATOM     11  H   UNL     1      45.746   6.273   9.083  0.00  0.00    +0.000 HD
BRANCH   9  12
ATOM     12  C   UNL     1      47.253   2.872   6.421  0.00  0.00    +0.000 C 
ATOM     13  N   UNL     1      48.574   2.766   6.759  0.00  0.00    +0.000 N 
ATOM     14  O   UNL     1      46.875   2.846   5.257  0.00  0.00    +0.000 OA
ATOM     15  H   UNL     1      48.849   2.795   7.734  0.00  0.00    +0.000 HD
ATOM     16  H   UNL     1      49.272   2.665   6.035  0.00  0.00    +0.000 HD
ENDBRANCH   9  12
ENDBRANCH   1   4
BRANCH   1  21
ATOM     17  C   UNL     1      48.432   7.059  12.111  0.00  0.00    +0.000 A 
ATOM     18  C   UNL     1      48.605   6.250  13.244  0.00  0.00    +0.000 A 
ATOM     19  C   UNL     1      47.603   5.369  13.657  0.00  0.00    +0.000 A 
ATOM     20  C   UNL     1      46.402   5.289  12.948  0.00  0.00    +0.000 A 
ATOM     21  C   UNL     1      46.181   6.074  11.806  0.00  0.00    +0.000 A 
ATOM     22  C   UNL     1      47.216   6.937  11.415  0.00  0.00    +0.000 A 
BRANCH  17  26
ATOM     23  C   UNL     1      51.387   9.842  10.656  0.00  0.00    +0.000 A 
ATOM     24  C   UNL     1      50.167  10.307  11.147  0.00  0.00    +0.000 A 
ATOM     25  C   UNL     1      49.230   9.397  11.642  0.00  0.00    +0.000 A 
ATOM     26  C   UNL     1      49.468   8.007  11.637  0.00  0.00    +0.000 A 
ATOM     27  C   UNL     1      50.703   7.565  11.142  0.00  0.00    +0.000 A 
ATOM     28  C   UNL     1      51.647   8.477  10.666  0.00  0.00    +0.000 A 
ATOM     29  F   UNL     1      52.817   8.005  10.204  0.00  0.00    +0.000 F 
BRANCH  23  31
ATOM     30  N   UNL     1      53.149  11.510   9.771  0.00  0.00    +0.000 NA
ATOM     31  C   UNL     1      52.351  10.757  10.151  0.00  0.00    +0.000 C 
ENDBRANCH  23  31
ENDBRANCH  17  26
ENDBRANCH   1  21
TORSDOF 5
ENDMDL
MODEL 4
REMARK VINA RESULT:    -7.030      4.914      8.425
REMARK INTER + INTRA:         -10.022
REMARK INTER:                  -9.246
REMARK INTRA:                  -0.776
REMARK UNBOUND:                -0.937
REMARK  Name = 
REMARK  5 active torsions:
REMARK  status: ('A' for Active; 'I' for Inactive)
REMARK    1  A    between atoms: C_2  and  C_3
REMARK    2  A    between atoms: C_6  and  C_7
REMARK    3  A    between atoms: C_11  and  C_12
REMARK    4  A    between atoms: C_12  and  N_13
REMARK    5  A    between atoms: C_18  and  C_19
REMARK                            x       y       z     vdW  Elec       q    Type
REMARK                         _______ _______ _______ _____ _____    ______ ____
ROOT
ATOM      1  C   UNL     1      49.212   8.982  15.581  0.00  0.00    +0.000 C 
ATOM      2  C   UNL     1      49.031  10.475  15.806  0.00  0.00    +0.000 C 
ATOM      3  C   UNL     1      50.394   9.879  15.905  0.00  0.00    +0.000 C 
ENDROOT
BRANCH   1   4
ATOM      4  N   UNL     1      48.692   8.055  16.604  0.00  0.00    +0.000 N 
ATOM      5  C   UNL     1      49.196   6.759  16.796  0.00  0.00    +0.000 A 
ATOM      6  C   UNL     1      50.552   6.418  16.739  0.00  0.00    +0.000 A 
ATOM      7  N   UNL     1      51.041   5.176  17.008  0.00  0.00    +0.000 NA
ATOM      8  C   UNL     1      50.110   4.259  17.354  0.00  0.00    +0.000 A 
ATOM      9  C   UNL     1      48.764   4.577  17.405  0.00  0.00    +0.000 A 
ATOM     10  N   UNL     1      48.279   5.826  17.133  0.00  0.00    +0.000 NA
ATOM     11  H   UNL     1      47.678   7.965  16.634  0.00  0.00    +0.000 HD
BRANCH   9  12
ATOM     12  C   UNL     1      47.769   3.534  17.771  0.00  0.00    +0.000 C 
ATOM     13  N   UNL     1      48.031   2.858  18.932  0.00  0.00    +0.000 N 
ATOM     14  O   UNL     1      46.781   3.297  17.088  0.00  0.00    +0.000 OA
ATOM     15  H   UNL     1      48.860   3.080  19.469  0.00  0.00    +0.000 HD
ATOM     16  H   UNL     1      47.398   2.136  19.245  0.00  0.00    +0.000 HD
ENDBRANCH   9  12
ENDBRANCH   1   4
BRANCH   1  21
ATOM     17  C   UNL     1      47.763   7.048  12.573  0.00  0.00    +0.000 A 
ATOM     18  C   UNL     1      48.552   7.551  11.528  0.00  0.00    +0.000 A 
ATOM     19  C   UNL     1      49.550   8.498  11.771  0.00  0.00    +0.000 A 
ATOM     20  C   UNL     1      49.769   8.968  13.069  0.00  0.00    +0.000 A 
ATOM     21  C   UNL     1      49.011   8.493  14.150  0.00  0.00    +0.000 A 
ATOM     22  C   UNL     1      48.027   7.534  13.867  0.00  0.00    +0.000 A 
BRANCH  17  26
ATOM     23  C   UNL     1      44.724   4.052  11.959  0.00  0.00    +0.000 A 
ATOM     24  C   UNL     1      45.391   4.135  13.181  0.00  0.00    +0.000 A 
ATOM     25  C   UNL     1      46.353   5.129  13.377  0.00  0.00    +0.000 A 
ATOM     26  C   UNL     1      46.696   6.043  12.360  0.00  0.00    +0.000 A 
ATOM     27  C   UNL     1      46.010   5.941  11.142  0.00  0.00    +0.000 A 
ATOM     28  C   UNL     1      45.034   4.960  10.953  0.00  0.00    +0.000 A 
ATOM     29  F   UNL     1      44.402   4.904   9.769  0.00  0.00    +0.000 F 
BRANCH  23  31
ATOM     30  N   UNL     1      42.963   2.205  11.558  0.00  0.00    +0.000 NA
ATOM     31  C   UNL     1      43.741   3.047  11.745  0.00  0.00    +0.000 C 
ENDBRANCH  23  31
ENDBRANCH  17  26
ENDBRANCH   1  21
TORSDOF 5
ENDMDL
MODEL 5
REMARK VINA RESULT:    -6.993      2.458      2.997
REMARK INTER + INTRA:          -9.974
REMARK INTER:                  -9.969
REMARK INTRA:                  -0.005
REMARK UNBOUND:                -0.937
REMARK  Name = 
REMARK  5 active torsions:
REMARK  status: ('A' for Active; 'I' for Inactive)
REMARK    1  A    between atoms: C_2  and  C_3
REMARK    2  A    between atoms: C_6  and  C_7
REMARK    3  A    between atoms: C_11  and  C_12
REMARK    4  A    between atoms: C_12  and  N_13
REMARK    5  A    between atoms: C_18  and  C_19
REMARK                            x       y       z     vdW  Elec       q    Type
REMARK                         _______ _______ _______ _____ _____    ______ ____
ROOT
ATOM      1  C   UNL     1      44.326   5.370  10.971  0.00  0.00    +0.000 C 
ATOM      2  C   UNL     1      42.992   4.987  11.594  0.00  0.00    +0.000 C 
ATOM      3  C   UNL     1      44.220   4.228  11.968  0.00  0.00    +0.000 C 
ENDROOT
BRANCH   1   4
ATOM      4  N   UNL     1      44.537   5.078   9.541  0.00  0.00    +0.000 N 
ATOM      5  C   UNL     1      45.104   3.883   9.074  0.00  0.00    +0.000 A 
ATOM      6  C   UNL     1      44.834   2.616   9.604  0.00  0.00    +0.000 A 
ATOM      7  N   UNL     1      45.323   1.452   9.093  0.00  0.00    +0.000 NA
ATOM      8  C   UNL     1      46.106   1.593   8.000  0.00  0.00    +0.000 A 
ATOM      9  C   UNL     1      46.390   2.839   7.469  0.00  0.00    +0.000 A 
ATOM     10  N   UNL     1      45.897   4.004   7.987  0.00  0.00    +0.000 NA
ATOM     11  H   UNL     1      44.981   5.823   9.006  0.00  0.00    +0.000 HD
BRANCH   9  12
ATOM     12  C   UNL     1      47.272   2.953   6.277  0.00  0.00    +0.000 C 
ATOM     13  N   UNL     1      48.580   2.608   6.482  0.00  0.00    +0.000 N 
ATOM     14  O   UNL     1      46.861   3.326   5.186  0.00  0.00    +0.000 OA
ATOM     15  H   UNL     1      48.884   2.307   7.401  0.00  0.00    +0.000 HD
ATOM     16  H   UNL     1      49.239   2.659   5.718  0.00  0.00    +0.000 HD
ENDBRANCH   9  12
ENDBRANCH   1   4
BRANCH   1  21
ATOM     17  C   UNL     1      46.750   7.926  12.543  0.00  0.00    +0.000 A 
ATOM     18  C   UNL     1      46.087   9.130  12.265  0.00  0.00    +0.000 A 
ATOM     19  C   UNL     1      44.866   9.137  11.585  0.00  0.00    +0.000 A 
ATOM     20  C   UNL     1      44.291   7.936  11.162  0.00  0.00    +0.000 A 
ATOM     21  C   UNL     1      44.913   6.705  11.420  0.00  0.00    +0.000 A 
ATOM     22  C   UNL     1      46.131   6.737  12.115  0.00  0.00    +0.000 A 
BRANCH  17  26
ATOM     23  C   UNL     1      50.560   7.726  14.554  0.00  0.00    +0.000 A 
ATOM     24  C   UNL     1      50.397   8.547  13.438  0.00  0.00    +0.000 A 
ATOM     25  C   UNL     1      49.150   8.625  12.813  0.00  0.00    +0.000 A 
ATOM     26  C   UNL     1      48.045   7.872  13.261  0.00  0.00    +0.000 A 
ATOM     27  C   UNL     1      48.232   7.058  14.387  0.00  0.00    +0.000 A 
ATOM     28  C   UNL     1      49.474   6.995  15.023  0.00  0.00    +0.000 A 
ATOM     29  F   UNL     1      49.604   6.202  16.099  0.00  0.00    +0.000 F 
BRANCH  23  31
ATOM     30  N   UNL     1      52.864   7.596  15.714  0.00  0.00    +0.000 NA
ATOM     31  C   UNL     1      51.822   7.638  15.201  0.00  0.00    +0.000 C 
ENDBRANCH  23  31
ENDBRANCH  17  26
ENDBRANCH   1  21
TORSDOF 5
ENDMDL
MODEL 6
REMARK VINA RESULT:    -6.980      2.177      2.742
REMARK INTER + INTRA:          -9.958
REMARK INTER:                  -9.963
REMARK INTRA:                   0.005
REMARK UNBOUND:                -0.937
REMARK  Name = 
REMARK  5 active torsions:
REMARK  status: ('A' for Active; 'I' for Inactive)
REMARK    1  A    between atoms: C_2  and  C_3
REMARK    2  A    between atoms: C_6  and  C_7
REMARK    3  A    between atoms: C_11  and  C_12
REMARK    4  A    between atoms: C_12  and  N_13
REMARK    5  A    between atoms: C_18  and  C_19
REMARK                            x       y       z     vdW  Elec       q    Type
REMARK                         _______ _______ _______ _____ _____    ______ ____
ROOT
ATOM      1  C   UNL     1      44.363   5.330  10.930  0.00  0.00    +0.000 C 
ATOM      2  C   UNL     1      43.024   4.960  11.549  0.00  0.00    +0.000 C 
ATOM      3  C   UNL     1      44.242   4.182  11.917  0.00  0.00    +0.000 C 
ENDROOT
BRANCH   1   4
ATOM      4  N   UNL     1      44.572   5.048   9.497  0.00  0.00    +0.000 N 
ATOM      5  C   UNL     1      45.140   3.856   9.022  0.00  0.00    +0.000 A 
ATOM      6  C   UNL     1      44.874   2.586   9.545  0.00  0.00    +0.000 A 
ATOM      7  N   UNL     1      45.364   1.426   9.026  0.00  0.00    +0.000 NA
ATOM      8  C   UNL     1      46.144   1.575   7.932  0.00  0.00    +0.000 A 
ATOM      9  C   UNL     1      46.425   2.824   7.409  0.00  0.00    +0.000 A 
ATOM     10  N   UNL     1      45.931   3.985   7.935  0.00  0.00    +0.000 NA
ATOM     11  H   UNL     1      45.014   5.796   8.967  0.00  0.00    +0.000 HD
BRANCH   9  12
ATOM     12  C   UNL     1      47.305   2.948   6.215  0.00  0.00    +0.000 C 
ATOM     13  N   UNL     1      48.618   2.626   6.422  0.00  0.00    +0.000 N 
ATOM     14  O   UNL     1      46.886   3.307   5.123  0.00  0.00    +0.000 OA
ATOM     15  H   UNL     1      48.928   2.335   7.342  0.00  0.00    +0.000 HD
ATOM     16  H   UNL     1      49.276   2.684   5.657  0.00  0.00    +0.000 HD
ENDBRANCH   9  12
ENDBRANCH   1   4
BRANCH   1  21
ATOM     17  C   UNL     1      46.850   7.848  12.468  0.00  0.00    +0.000 A 
ATOM     18  C   UNL     1      46.173   9.057  12.252  0.00  0.00    +0.000 A 
ATOM     19  C   UNL     1      44.924   9.080  11.626  0.00  0.00    +0.000 A 
ATOM     20  C   UNL     1      44.333   7.890  11.194  0.00  0.00    +0.000 A 
ATOM     21  C   UNL     1      44.968   6.653  11.390  0.00  0.00    +0.000 A 
ATOM     22  C   UNL     1      46.214   6.670  12.033  0.00  0.00    +0.000 A 
BRANCH  17  26
ATOM     23  C   UNL     1      50.673   7.707  14.456  0.00  0.00    +0.000 A 
ATOM     24  C   UNL     1      49.537   7.192  15.081  0.00  0.00    +0.000 A 
ATOM     25  C   UNL     1      48.310   7.217  14.415  0.00  0.00    +0.000 A 
ATOM     26  C   UNL     1      48.174   7.777  13.127  0.00  0.00    +0.000 A 
ATOM     27  C   UNL     1      49.331   8.285  12.519  0.00  0.00    +0.000 A 
ATOM     28  C   UNL     1      50.561   8.241  13.178  0.00  0.00    +0.000 A 
ATOM     29  F   UNL     1      51.641   8.738  12.552  0.00  0.00    +0.000 F 
BRANCH  23  31
ATOM     30  N   UNL     1      52.943   7.644  15.688  0.00  0.00    +0.000 NA
ATOM     31  C   UNL     1      51.929   7.686  15.122  0.00  0.00    +0.000 C 
ENDBRANCH  23  31
ENDBRANCH  17  26
ENDBRANCH   1  21
TORSDOF 5
ENDMDL
MODEL 7
REMARK VINA RESULT:    -6.602      5.494      8.662
REMARK INTER + INTRA:          -9.469
REMARK INTER:                  -8.706
REMARK INTRA:                  -0.763
REMARK UNBOUND:                -0.937
REMARK  Name = 
REMARK  5 active torsions:
REMARK  status: ('A' for Active; 'I' for Inactive)
REMARK    1  A    between atoms: C_2  and  C_3
REMARK    2  A    between atoms: C_6  and  C_7
REMARK    3  A    between atoms: C_11  and  C_12
REMARK    4  A    between atoms: C_12  and  N_13
REMARK    5  A    between atoms: C_18  and  C_19
REMARK                            x       y       z     vdW  Elec       q    Type
REMARK                         _______ _______ _______ _____ _____    ______ ____
ROOT
ATOM      1  C   UNL     1      50.039   7.679  16.846  0.00  0.00    +0.000 C 
ATOM      2  C   UNL     1      49.594   8.888  17.655  0.00  0.00    +0.000 C 
ATOM      3  C   UNL     1      51.050   8.615  17.486  0.00  0.00    +0.000 C 
ENDROOT
BRANCH   1   4
ATOM      4  N   UNL     1      49.817   6.337  17.418  0.00  0.00    +0.000 N 
ATOM      5  C   UNL     1      50.804   5.341  17.452  0.00  0.00    +0.000 A 
ATOM      6  C   UNL     1      52.154   5.572  17.738  0.00  0.00    +0.000 A 
ATOM      7  N   UNL     1      53.092   4.591  17.850  0.00  0.00    +0.000 NA
ATOM      8  C   UNL     1      52.626   3.334  17.672  0.00  0.00    +0.000 A 
ATOM      9  C   UNL     1      51.296   3.089  17.379  0.00  0.00    +0.000 A 
ATOM     10  N   UNL     1      50.361   4.079  17.266  0.00  0.00    +0.000 NA
ATOM     11  H   UNL     1      48.964   5.871  17.113  0.00  0.00    +0.000 HD
BRANCH   9  12
ATOM     12  C   UNL     1      50.827   1.693  17.171  0.00  0.00    +0.000 C 
ATOM     13  N   UNL     1      51.437   0.749  17.951  0.00  0.00    +0.000 N 
ATOM     14  O   UNL     1      49.954   1.405  16.363  0.00  0.00    +0.000 OA
ATOM     15  H   UNL     1      52.158   1.026  18.607  0.00  0.00    +0.000 HD
ATOM     16  H   UNL     1      51.170  -0.221  17.866  0.00  0.00    +0.000 HD
ENDBRANCH   9  12
ENDBRANCH   1   4
BRANCH   1  21
ATOM     17  C   UNL     1      48.452   7.038  13.388  0.00  0.00    +0.000 A 
ATOM     18  C   UNL     1      49.250   7.854  12.574  0.00  0.00    +0.000 A 
ATOM     19  C   UNL     1      50.298   8.605  13.113  0.00  0.00    +0.000 A 
ATOM     20  C   UNL     1      50.559   8.559  14.485  0.00  0.00    +0.000 A 
ATOM     21  C   UNL     1      49.793   7.755  15.343  0.00  0.00    +0.000 A 
ATOM     22  C   UNL     1      48.759   7.007  14.761  0.00  0.00    +0.000 A 
BRANCH  17  26
ATOM     23  C   UNL     1      45.253   4.595  11.843  0.00  0.00    +0.000 A 
ATOM     24  C   UNL     1      45.763   4.359  13.120  0.00  0.00    +0.000 A 
ATOM     25  C   UNL     1      46.779   5.176  13.621  0.00  0.00    +0.000 A 
ATOM     26  C   UNL     1      47.333   6.226  12.858  0.00  0.00    +0.000 A 
ATOM     27  C   UNL     1      46.802   6.445  11.579  0.00  0.00    +0.000 A 
ATOM     28  C   UNL     1      45.772   5.640  11.088  0.00  0.00    +0.000 A 
ATOM     29  F   UNL     1      45.294   5.891   9.857  0.00  0.00    +0.000 F 
BRANCH  23  31
ATOM     30  N   UNL     1      43.383   3.074  10.915  0.00  0.00    +0.000 NA
ATOM     31  C   UNL     1      44.217   3.773  11.322  0.00  0.00    +0.000 C 
ENDBRANCH  23  31
ENDBRANCH  17  26
ENDBRANCH   1  21
TORSDOF 5
ENDMDL
MODEL 8
REMARK VINA RESULT:    -6.445      5.169      6.988
REMARK INTER + INTRA:          -9.266
REMARK INTER:                  -9.108
REMARK INTRA:                  -0.158
REMARK UNBOUND:                -0.937
REMARK  Name = 
REMARK  5 active torsions:
REMARK  status: ('A' for Active; 'I' for Inactive)
REMARK    1  A    between atoms: C_2  and  C_3
REMARK    2  A    between atoms: C_6  and  C_7
REMARK    3  A    between atoms: C_11  and  C_12
REMARK    4  A    between atoms: C_12  and  N_13
REMARK    5  A    between atoms: C_18  and  C_19
REMARK                            x       y       z     vdW  Elec       q    Type
REMARK                         _______ _______ _______ _____ _____    ______ ____
ROOT
ATOM      1  C   UNL     1      47.718   7.785  13.426  0.00  0.00    +0.000 C 
ATOM      2  C   UNL     1      48.620   7.373  12.274  0.00  0.00    +0.000 C 
ATOM      3  C   UNL     1      48.094   8.767  12.330  0.00  0.00    +0.000 C 
ENDROOT
BRANCH   1   4
ATOM      4  N   UNL     1      46.352   7.230  13.477  0.00  0.00    +0.000 N 
ATOM      5  C   UNL     1      46.055   5.887  13.197  0.00  0.00    +0.000 A 
ATOM      6  C   UNL     1      46.838   4.801  13.601  0.00  0.00    +0.000 A 
ATOM      7  N   UNL     1      46.502   3.497  13.398  0.00  0.00    +0.000 NA
ATOM      8  C   UNL     1      45.321   3.304  12.769  0.00  0.00    +0.000 A 
ATOM      9  C   UNL     1      44.539   4.367  12.354  0.00  0.00    +0.000 A 
ATOM     10  N   UNL     1      44.883   5.674  12.559  0.00  0.00    +0.000 NA
ATOM     11  H   UNL     1      45.642   7.777  12.992  0.00  0.00    +0.000 HD
BRANCH   9  12
ATOM     12  C   UNL     1      43.256   4.113  11.646  0.00  0.00    +0.000 C 
ATOM     13  N   UNL     1      42.328   5.114  11.742  0.00  0.00    +0.000 N 
ATOM     14  O   UNL     1      43.042   3.085  11.017  0.00  0.00    +0.000 OA
ATOM     15  H   UNL     1      42.540   5.950  12.274  0.00  0.00    +0.000 HD
ATOM     16  H   UNL     1      41.432   5.013  11.286  0.00  0.00    +0.000 HD
ENDBRANCH   9  12
ENDBRANCH   1   4
BRANCH   1  21
ATOM     17  C   UNL     1      49.768   6.829  16.552  0.00  0.00    +0.000 A 
ATOM     18  C   UNL     1      49.681   8.012  17.300  0.00  0.00    +0.000 A 
ATOM     19  C   UNL     1      48.967   9.114  16.823  0.00  0.00    +0.000 A 
ATOM     20  C   UNL     1      48.334   9.055  15.578  0.00  0.00    +0.000 A 
ATOM     21  C   UNL     1      48.388   7.893  14.793  0.00  0.00    +0.000 A 
ATOM     22  C   UNL     1      49.103   6.804  15.312  0.00  0.00    +0.000 A 
BRANCH  17  26
ATOM     23  C   UNL     1      51.989   3.361  17.828  0.00  0.00    +0.000 A 
ATOM     24  C   UNL     1      52.635   4.585  17.661  0.00  0.00    +0.000 A 
ATOM     25  C   UNL     1      51.899   5.708  17.275  0.00  0.00    +0.000 A 
ATOM     26  C   UNL     1      50.514   5.638  17.020  0.00  0.00    +0.000 A 
ATOM     27  C   UNL     1      49.886   4.397  17.198  0.00  0.00    +0.000 A 
ATOM     28  C   UNL     1      50.619   3.279  17.603  0.00  0.00    +0.000 A 
ATOM     29  F   UNL     1      49.973   2.113  17.764  0.00  0.00    +0.000 F 
BRANCH  23  31
ATOM     30  N   UNL     1      53.354   1.282  18.528  0.00  0.00    +0.000 NA
ATOM     31  C   UNL     1      52.725   2.210  18.223  0.00  0.00    +0.000 C 
ENDBRANCH  23  31
ENDBRANCH  17  26
ENDBRANCH   1  21
TORSDOF 5
ENDMDL
MODEL 9
REMARK VINA RESULT:    -6.170      4.769      8.722
REMARK INTER + INTRA:          -8.910
REMARK INTER:                  -8.069
REMARK INTRA:                  -0.840
REMARK UNBOUND:                -0.937
REMARK  Name = 
REMARK  5 active torsions:
REMARK  status: ('A' for Active; 'I' for Inactive)
REMARK    1  A    between atoms: C_2  and  C_3
REMARK    2  A    between atoms: C_6  and  C_7
REMARK    3  A    between atoms: C_11  and  C_12
REMARK    4  A    between atoms: C_12  and  N_13
REMARK    5  A    between atoms: C_18  and  C_19
REMARK                            x       y       z     vdW  Elec       q    Type
REMARK                         _______ _______ _______ _____ _____    ______ ____
ROOT
ATOM      1  C   UNL     1      49.115   9.593  12.489  0.00  0.00    +0.000 C 
ATOM      2  C   UNL     1      49.945  10.406  11.509  0.00  0.00    +0.000 C 
ATOM      3  C   UNL     1      50.100   8.923  11.547  0.00  0.00    +0.000 C 
ENDROOT
BRANCH   1   4
ATOM      4  N   UNL     1      49.430   9.699  13.927  0.00  0.00    +0.000 N 
ATOM      5  C   UNL     1      49.261   8.642  14.833  0.00  0.00    +0.000 A 
ATOM      6  C   UNL     1      49.561   7.304  14.556  0.00  0.00    +0.000 A 
ATOM      7  N   UNL     1      49.472   6.295  15.466  0.00  0.00    +0.000 NA
ATOM      8  C   UNL     1      49.072   6.674  16.701  0.00  0.00    +0.000 A 
ATOM      9  C   UNL     1      48.762   7.991  16.989  0.00  0.00    +0.000 A 
ATOM     10  N   UNL     1      48.851   8.999  16.070  0.00  0.00    +0.000 NA
ATOM     11  H   UNL     1      49.060  10.526  14.393  0.00  0.00    +0.000 HD
BRANCH   9  12
ATOM     12  C   UNL     1      48.306   8.365  18.354  0.00  0.00    +0.000 C 
ATOM     13  N   UNL     1      47.171   7.733  18.784  0.00  0.00    +0.000 N 
ATOM     14  O   UNL     1      48.903   9.176  19.050  0.00  0.00    +0.000 OA
ATOM     15  H   UNL     1      46.702   7.070  18.178  0.00  0.00    +0.000 HD
ATOM     16  H   UNL     1      46.801   7.935  19.702  0.00  0.00    +0.000 HD
ENDBRANCH   9  12
ENDBRANCH   1   4
BRANCH   1  21
ATOM     17  C   UNL     1      45.615   8.104  11.839  0.00  0.00    +0.000 A 
ATOM     18  C   UNL     1      44.856   9.271  11.671  0.00  0.00    +0.000 A 
ATOM     19  C   UNL     1      45.449  10.533  11.756  0.00  0.00    +0.000 A 
ATOM     20  C   UNL     1      46.816  10.650  12.021  0.00  0.00    +0.000 A 
ATOM     21  C   UNL     1      47.620   9.513  12.193  0.00  0.00    +0.000 A 
ATOM     22  C   UNL     1      46.991   8.264  12.088  0.00  0.00    +0.000 A 
BRANCH  17  26
ATOM     23  C   UNL     1      43.956   4.127  11.684  0.00  0.00    +0.000 A 
ATOM     24  C   UNL     1      43.618   4.989  12.728  0.00  0.00    +0.000 A 
ATOM     25  C   UNL     1      44.140   6.284  12.751  0.00  0.00    +0.000 A 
ATOM     26  C   UNL     1      45.028   6.747  11.758  0.00  0.00    +0.000 A 
ATOM     27  C   UNL     1      45.349   5.864  10.717  0.00  0.00    +0.000 A 
ATOM     28  C   UNL     1      44.812   4.575  10.685  0.00  0.00    +0.000 A 
ATOM     29  F   UNL     1      45.147   3.767   9.665  0.00  0.00    +0.000 F 
BRANCH  23  31
ATOM     30  N   UNL     1      42.976   1.738  11.637  0.00  0.00    +0.000 NA
ATOM     31  C   UNL     1      43.431   2.807  11.646  0.00  0.00    +0.000 C 
ENDBRANCH  23  31
ENDBRANCH  17  26
ENDBRANCH   1  21
TORSDOF 5
ENDMDL
