MODEL 1
REMARK VINA RESULT:    -8.488      0.000      0.000
REMARK INTER + INTRA:         -11.951
REMARK INTER:                 -10.970
REMARK INTRA:                  -0.982
REMARK UNBOUND:                -0.982
REMARK  Name = 
REMARK  7 active torsions:
REMARK  status: ('A' for Active; 'I' for Inactive)
REMARK    1  A    between atoms: C_1  and  C_2
REMARK    2  A    between atoms: N_4  and  C_5
REMARK    3  A    between atoms: C_9  and  C_10
REMARK    4  A    between atoms: C_10  and  N_11
REMARK    5  A    between atoms: N_11  and  C_12
REMARK    6  A    between atoms: C_15  and  C_16
REMARK    7  A    between atoms: C_23  and  C_24
REMARK                            x       y       z     vdW  Elec       q    Type
REMARK                         _______ _______ _______ _____ _____    ______ ____
ROOT
ATOM      1  C   UNL     1      46.420   6.193  13.211  0.00  0.00    +0.000 A 
ATOM      2  C   UNL     1      47.120   5.128  13.789  0.00  0.00    +0.000 A 
ATOM      3  C   UNL     1      46.751   3.800  13.569  0.00  0.00    +0.000 A 
ATOM      4  C   UNL     1      45.648   3.508  12.777  0.00  0.00    +0.000 A 
ATOM      5  C   UNL     1      44.896   4.536  12.204  0.00  0.00    +0.000 A 
ATOM      6  C   UNL     1      45.316   5.862  12.405  0.00  0.00    +0.000 A 
ENDROOT
BRANCH   1  10
ATOM      7  C   UNL     1      49.236   8.086  11.543  0.00  0.00    +0.000 C 
ATOM      8  C   UNL     1      48.803   8.816  12.814  0.00  0.00    +0.000 C 
ATOM      9  C   UNL     1      48.156   7.877  13.850  0.00  0.00    +0.000 C 
ATOM     10  N   UNL     1      46.802   7.498  13.430  0.00  0.00    +0.000 N 
ATOM     11  C   UNL     1      45.934   8.637  13.094  0.00  0.00    +0.000 C 
ATOM     12  C   UNL     1      46.640   9.548  12.066  0.00  0.00    +0.000 C 
ATOM     13  C   UNL     1      45.829  10.818  11.833  0.00  0.00    +0.000 C 
ATOM     14  O   UNL     1      47.953   9.942  12.509  0.00  0.00    +0.000 OA
ENDBRANCH   1  10
BRANCH   5  15
ATOM     15  C   UNL     1      43.630   4.256  11.423  0.00  0.00    +0.000 C 
BRANCH  15  16
ATOM     16  N   UNL     1      43.770   4.665  10.029  0.00  0.00    +0.000 N 
ATOM     17  H   UNL     1      43.936   5.666   9.951  0.00  0.00    +0.000 HD
BRANCH  16  18
ATOM     18  C   UNL     1      44.623   3.921   9.197  0.00  0.00    +0.000 A 
ATOM     19  C   UNL     1      45.580   4.496   8.357  0.00  0.00    +0.000 A 
ATOM     20  C   UNL     1      46.456   3.698   7.616  0.00  0.00    +0.000 A 
ATOM     21  C   UNL     1      46.373   2.321   7.757  0.00  0.00    +0.000 A 
ATOM     22  N   UNL     1      45.489   1.704   8.584  0.00  0.00    +0.000 NA
ATOM     23  C   UNL     1      44.663   2.522   9.287  0.00  0.00    +0.000 A 
BRANCH  21  24
ATOM     24  C   UNL     1      47.308   1.441   6.982  0.00  0.00    +0.000 C 
ATOM     25  N   UNL     1      48.386   2.073   6.425  0.00  0.00    +0.000 N 
ATOM     26  O   UNL     1      47.126   0.237   6.849  0.00  0.00    +0.000 OA
ATOM     27  H   UNL     1      48.492   3.074   6.537  0.00  0.00    +0.000 HD
ATOM     28  H   UNL     1      49.043   1.543   5.870  0.00  0.00    +0.000 HD
ENDBRANCH  21  24
ENDBRANCH  16  18
ENDBRANCH  15  16
ENDBRANCH   5  15
TORSDOF 5
ENDMDL
MODEL 2
REMARK VINA RESULT:    -8.281      1.155      1.993
REMARK INTER + INTRA:         -11.683
REMARK INTER:                 -10.830
REMARK INTRA:                  -0.853
REMARK UNBOUND:                -0.982
REMARK  Name = 
REMARK  7 active torsions:
REMARK  status: ('A' for Active; 'I' for Inactive)
REMARK    1  A    between atoms: C_1  and  C_2
REMARK    2  A    between atoms: N_4  and  C_5
REMARK    3  A    between atoms: C_9  and  C_10
REMARK    4  A    between atoms: C_10  and  N_11
REMARK    5  A    between atoms: N_11  and  C_12
REMARK    6  A    between atoms: C_15  and  C_16
REMARK    7  A    between atoms: C_23  and  C_24
REMARK                            x       y       z     vdW  Elec       q    Type
REMARK                         _______ _______ _______ _____ _____    ______ ____
ROOT
ATOM      1  C   UNL     1      46.849   6.415  12.402  0.00  0.00    +0.000 A 
ATOM      2  C   UNL     1      47.287   5.496  13.364  0.00  0.00    +0.000 A 
ATOM      3  C   UNL     1      46.597   4.310  13.616  0.00  0.00    +0.000 A 
ATOM      4  C   UNL     1      45.428   4.025  12.921  0.00  0.00    +0.000 A 
ATOM      5  C   UNL     1      44.931   4.924  11.974  0.00  0.00    +0.000 A 
ATOM      6  C   UNL     1      45.671   6.090  11.708  0.00  0.00    +0.000 A 
ENDROOT
BRANCH   1  10
ATOM      7  C   UNL     1      48.185   8.881  14.937  0.00  0.00    +0.000 C 
ATOM      8  C   UNL     1      48.151   9.529  13.554  0.00  0.00    +0.000 C 
ATOM      9  C   UNL     1      47.099   8.894  12.624  0.00  0.00    +0.000 C 
ATOM     10  N   UNL     1      47.547   7.577  12.159  0.00  0.00    +0.000 N 
ATOM     11  C   UNL     1      48.891   7.573  11.560  0.00  0.00    +0.000 C 
ATOM     12  C   UNL     1      49.897   8.234  12.529  0.00  0.00    +0.000 C 
ATOM     13  C   UNL     1      51.257   8.391  11.860  0.00  0.00    +0.000 C 
ATOM     14  O   UNL     1      49.461   9.542  12.948  0.00  0.00    +0.000 OA
ENDBRANCH   1  10
BRANCH   5  15
ATOM     15  C   UNL     1      43.609   4.693  11.275  0.00  0.00    +0.000 C 
BRANCH  15  16
ATOM     16  N   UNL     1      43.743   4.845   9.829  0.00  0.00    +0.000 N 
ATOM     17  H   UNL     1      43.955   5.807   9.576  0.00  0.00    +0.000 HD
BRANCH  16  18
ATOM     18  C   UNL     1      44.545   3.926   9.134  0.00  0.00    +0.000 A 
ATOM     19  C   UNL     1      45.512   4.296   8.194  0.00  0.00    +0.000 A 
ATOM     20  C   UNL     1      46.336   3.338   7.598  0.00  0.00    +0.000 A 
ATOM     21  C   UNL     1      46.193   2.013   7.981  0.00  0.00    +0.000 A 
ATOM     22  N   UNL     1      45.299   1.595   8.915  0.00  0.00    +0.000 NA
ATOM     23  C   UNL     1      44.524   2.564   9.470  0.00  0.00    +0.000 A 
BRANCH  21  24
ATOM     24  C   UNL     1      47.072   0.967   7.365  0.00  0.00    +0.000 C 
ATOM     25  N   UNL     1      46.700  -0.329   7.601  0.00  0.00    +0.000 N 
ATOM     26  O   UNL     1      48.060   1.242   6.695  0.00  0.00    +0.000 OA
ATOM     27  H   UNL     1      45.890  -0.520   8.178  0.00  0.00    +0.000 HD
ATOM     28  H   UNL     1      47.262  -1.084   7.234  0.00  0.00    +0.000 HD
ENDBRANCH  21  24
ENDBRANCH  16  18
ENDBRANCH  15  16
ENDBRANCH   5  15
TORSDOF 5
ENDMDL
MODEL 3
REMARK VINA RESULT:    -7.924      1.821      3.215
REMARK INTER + INTRA:         -11.222
REMARK INTER:                 -10.367
REMARK INTRA:                  -0.855
REMARK UNBOUND:                -0.982
REMARK  Name = 
REMARK  7 active torsions:
REMARK  status: ('A' for Active; 'I' for Inactive)
REMARK    1  A    between atoms: C_1  and  C_2
REMARK    2  A    between atoms: N_4  and  C_5
REMARK    3  A    between atoms: C_9  and  C_10
REMARK    4  A    between atoms: C_10  and  N_11
REMARK    5  A    between atoms: N_11  and  C_12
REMARK    6  A    between atoms: C_15  and  C_16
REMARK    7  A    between atoms: C_23  and  C_24
REMARK                            x       y       z     vdW  Elec       q    Type
REMARK                         _______ _______ _______ _____ _____    ______ ____
ROOT
ATOM      1  C   UNL     1      46.783   6.564  13.114  0.00  0.00    +0.000 A 
ATOM      2  C   UNL     1      46.614   7.891  12.699  0.00  0.00    +0.000 A 
ATOM      3  C   UNL     1      45.529   8.281  11.912  0.00  0.00    +0.000 A 
ATOM      4  C   UNL     1      44.595   7.339  11.499  0.00  0.00    +0.000 A 
ATOM      5  C   UNL     1      44.737   5.997  11.860  0.00  0.00    +0.000 A 
ATOM      6  C   UNL     1      45.814   5.639  12.690  0.00  0.00    +0.000 A 
ENDROOT
BRANCH   1  10
ATOM      7  C   UNL     1      48.466   8.594  15.824  0.00  0.00    +0.000 C 
ATOM      8  C   UNL     1      49.375   7.441  15.402  0.00  0.00    +0.000 C 
ATOM      9  C   UNL     1      49.103   6.964  13.963  0.00  0.00    +0.000 C 
ATOM     10  N   UNL     1      47.854   6.197  13.899  0.00  0.00    +0.000 N 
ATOM     11  C   UNL     1      47.771   5.097  14.873  0.00  0.00    +0.000 C 
ATOM     12  C   UNL     1      48.067   5.632  16.292  0.00  0.00    +0.000 C 
ATOM     13  C   UNL     1      48.151   4.482  17.289  0.00  0.00    +0.000 C 
ATOM     14  O   UNL     1      49.315   6.351  16.347  0.00  0.00    +0.000 OA
ENDBRANCH   1  10
BRANCH   5  15
ATOM     15  C   UNL     1      43.796   4.930  11.343  0.00  0.00    +0.000 C 
BRANCH  15  16
ATOM     16  N   UNL     1      43.738   4.941   9.885  0.00  0.00    +0.000 N 
ATOM     17  H   UNL     1      43.809   5.888   9.518  0.00  0.00    +0.000 HD
BRANCH  16  18
ATOM     18  C   UNL     1      44.549   4.039   9.178  0.00  0.00    +0.000 A 
ATOM     19  C   UNL     1      45.557   4.432   8.292  0.00  0.00    +0.000 A 
ATOM     20  C   UNL     1      46.385   3.485   7.683  0.00  0.00    +0.000 A 
ATOM     21  C   UNL     1      46.204   2.148   8.000  0.00  0.00    +0.000 A 
ATOM     22  N   UNL     1      45.268   1.706   8.880  0.00  0.00    +0.000 NA
ATOM     23  C   UNL     1      44.491   2.664   9.451  0.00  0.00    +0.000 A 
BRANCH  21  24
ATOM     24  C   UNL     1      47.086   1.113   7.369  0.00  0.00    +0.000 C 
ATOM     25  N   UNL     1      46.785  -0.186   7.679  0.00  0.00    +0.000 N 
ATOM     26  O   UNL     1      48.017   1.399   6.628  0.00  0.00    +0.000 OA
ATOM     27  H   UNL     1      46.021  -0.385   8.314  0.00  0.00    +0.000 HD
ATOM     28  H   UNL     1      47.355  -0.933   7.306  0.00  0.00    +0.000 HD
ENDBRANCH  21  24
ENDBRANCH  16  18
ENDBRANCH  15  16
ENDBRANCH   5  15
TORSDOF 5
ENDMDL
MODEL 4
REMARK VINA RESULT:    -7.274      1.436      2.598
REMARK INTER + INTRA:         -10.382
REMARK INTER:                  -9.457
REMARK INTRA:                  -0.925
REMARK UNBOUND:                -0.982
REMARK  Name = 
REMARK  7 active torsions:
REMARK  status: ('A' for Active; 'I' for Inactive)
REMARK    1  A    between atoms: C_1  and  C_2
REMARK    2  A    between atoms: N_4  and  C_5
REMARK    3  A    between atoms: C_9  and  C_10
REMARK    4  A    between atoms: C_10  and  N_11
REMARK    5  A    between atoms: N_11  and  C_12
REMARK    6  A    between atoms: C_15  and  C_16
REMARK    7  A    between atoms: C_23  and  C_24
REMARK                            x       y       z     vdW  Elec       q    Type
REMARK                         _______ _______ _______ _____ _____    ______ ____
ROOT
ATOM      1  C   UNL     1      46.171   7.709  12.224  0.00  0.00    +0.000 A 
ATOM      2  C   UNL     1      45.143   8.517  11.723  0.00  0.00    +0.000 A 
ATOM      3  C   UNL     1      43.927   7.980  11.299  0.00  0.00    +0.000 A 
ATOM      4  C   UNL     1      43.720   6.608  11.343  0.00  0.00    +0.000 A 
ATOM      5  C   UNL     1      44.726   5.755  11.804  0.00  0.00    +0.000 A 
ATOM      6  C   UNL     1      45.925   6.326  12.267  0.00  0.00    +0.000 A 
ENDROOT
BRANCH   1  10
ATOM      7  C   UNL     1      48.510   6.373  14.877  0.00  0.00    +0.000 C 
ATOM      8  C   UNL     1      48.834   7.839  14.593  0.00  0.00    +0.000 C 
ATOM      9  C   UNL     1      47.625   8.621  14.044  0.00  0.00    +0.000 C 
ATOM     10  N   UNL     1      47.363   8.255  12.648  0.00  0.00    +0.000 N 
ATOM     11  C   UNL     1      48.536   8.357  11.766  0.00  0.00    +0.000 C 
ATOM     12  C   UNL     1      49.717   7.568  12.375  0.00  0.00    +0.000 C 
ATOM     13  C   UNL     1      50.987   7.799  11.563  0.00  0.00    +0.000 C 
ATOM     14  O   UNL     1      49.987   7.964  13.733  0.00  0.00    +0.000 OA
ENDBRANCH   1  10
BRANCH   5  15
ATOM     15  C   UNL     1      44.572   4.250  11.769  0.00  0.00    +0.000 C 
BRANCH  15  16
ATOM     16  N   UNL     1      43.957   3.813  10.519  0.00  0.00    +0.000 N 
ATOM     17  H   UNL     1      43.208   4.441  10.235  0.00  0.00    +0.000 HD
BRANCH  16  18
ATOM     18  C   UNL     1      44.797   3.471   9.446  0.00  0.00    +0.000 A 
ATOM     19  C   UNL     1      45.378   4.410   8.588  0.00  0.00    +0.000 A 
ATOM     20  C   UNL     1      46.271   4.011   7.590  0.00  0.00    +0.000 A 
ATOM     21  C   UNL     1      46.592   2.666   7.489  0.00  0.00    +0.000 A 
ATOM     22  N   UNL     1      46.090   1.712   8.316  0.00  0.00    +0.000 NA
ATOM     23  C   UNL     1      45.230   2.149   9.273  0.00  0.00    +0.000 A 
BRANCH  21  24
ATOM     24  C   UNL     1      47.556   2.213   6.434  0.00  0.00    +0.000 C 
ATOM     25  N   UNL     1      47.762   3.093   5.406  0.00  0.00    +0.000 N 
ATOM     26  O   UNL     1      48.126   1.130   6.479  0.00  0.00    +0.000 OA
ATOM     27  H   UNL     1      47.256   3.971   5.390  0.00  0.00    +0.000 HD
ATOM     28  H   UNL     1      48.381   2.841   4.649  0.00  0.00    +0.000 HD
ENDBRANCH  21  24
ENDBRANCH  16  18
ENDBRANCH  15  16
ENDBRANCH   5  15
TORSDOF 5
ENDMDL
MODEL 5
REMARK VINA RESULT:    -7.266      4.500      7.938
REMARK INTER + INTRA:         -10.372
REMARK INTER:                  -9.573
REMARK INTRA:                  -0.798
REMARK UNBOUND:                -0.982
REMARK  Name = 
REMARK  7 active torsions:
REMARK  status: ('A' for Active; 'I' for Inactive)
REMARK    1  A    between atoms: C_1  and  C_2
REMARK    2  A    between atoms: N_4  and  C_5
REMARK    3  A    between atoms: C_9  and  C_10
REMARK    4  A    between atoms: C_10  and  N_11
REMARK    5  A    between atoms: N_11  and  C_12
REMARK    6  A    between atoms: C_15  and  C_16
REMARK    7  A    between atoms: C_23  and  C_24
REMARK                            x       y       z     vdW  Elec       q    Type
REMARK                         _______ _______ _______ _____ _____    ______ ____
ROOT
ATOM      1  C   UNL     1      46.275   5.451  12.687  0.00  0.00    +0.000 A 
ATOM      2  C   UNL     1      46.662   6.336  11.673  0.00  0.00    +0.000 A 
ATOM      3  C   UNL     1      47.674   7.277  11.866  0.00  0.00    +0.000 A 
ATOM      4  C   UNL     1      48.311   7.371  13.096  0.00  0.00    +0.000 A 
ATOM      5  C   UNL     1      47.939   6.532  14.151  0.00  0.00    +0.000 A 
ATOM      6  C   UNL     1      46.948   5.564  13.916  0.00  0.00    +0.000 A 
ENDROOT
BRANCH   1  10
ATOM      7  C   UNL     1      42.814   6.045  11.286  0.00  0.00    +0.000 C 
ATOM      8  C   UNL     1      42.861   4.690  11.990  0.00  0.00    +0.000 C 
ATOM      9  C   UNL     1      43.947   4.623  13.081  0.00  0.00    +0.000 C 
ATOM     10  N   UNL     1      45.281   4.521  12.478  0.00  0.00    +0.000 N 
ATOM     11  C   UNL     1      45.416   3.437  11.493  0.00  0.00    +0.000 C 
ATOM     12  C   UNL     1      44.294   3.548  10.437  0.00  0.00    +0.000 C 
ATOM     13  C   UNL     1      44.316   2.340   9.507  0.00  0.00    +0.000 C 
ATOM     14  O   UNL     1      42.988   3.609  11.043  0.00  0.00    +0.000 OA
ENDBRANCH   1  10
BRANCH   5  15
ATOM     15  C   UNL     1      48.540   6.678  15.532  0.00  0.00    +0.000 C 
BRANCH  15  16
ATOM     16  N   UNL     1      48.061   5.630  16.428  0.00  0.00    +0.000 N 
ATOM     17  H   UNL     1      47.178   5.241  16.104  0.00  0.00    +0.000 HD
BRANCH  16  18
ATOM     18  C   UNL     1      48.964   4.632  16.830  0.00  0.00    +0.000 A 
ATOM     19  C   UNL     1      48.640   3.273  16.890  0.00  0.00    +0.000 A 
ATOM     20  C   UNL     1      49.608   2.319  17.217  0.00  0.00    +0.000 A 
ATOM     21  C   UNL     1      50.905   2.749  17.453  0.00  0.00    +0.000 A 
ATOM     22  N   UNL     1      51.290   4.050  17.375  0.00  0.00    +0.000 NA
ATOM     23  C   UNL     1      50.315   4.938  17.048  0.00  0.00    +0.000 A 
BRANCH  21  24
ATOM     24  C   UNL     1      51.965   1.746  17.796  0.00  0.00    +0.000 C 
ATOM     25  N   UNL     1      51.527   0.461  17.970  0.00  0.00    +0.000 N 
ATOM     26  O   UNL     1      53.146   2.046  17.917  0.00  0.00    +0.000 OA
ATOM     27  H   UNL     1      50.538   0.253  17.884  0.00  0.00    +0.000 HD
ATOM     28  H   UNL     1      52.186  -0.261  18.225  0.00  0.00    +0.000 HD
ENDBRANCH  21  24
ENDBRANCH  16  18
ENDBRANCH  15  16
ENDBRANCH   5  15
TORSDOF 5
ENDMDL
MODEL 6
REMARK VINA RESULT:    -6.978      2.707      7.858
REMARK INTER + INTRA:         -10.000
REMARK INTER:                  -9.287
REMARK INTRA:                  -0.713
REMARK UNBOUND:                -0.982
REMARK  Name = 
REMARK  7 active torsions:
REMARK  status: ('A' for Active; 'I' for Inactive)
REMARK    1  A    between atoms: C_1  and  C_2
REMARK    2  A    between atoms: N_4  and  C_5
REMARK    3  A    between atoms: C_9  and  C_10
REMARK    4  A    between atoms: C_10  and  N_11
REMARK    5  A    between atoms: N_11  and  C_12
REMARK    6  A    between atoms: C_15  and  C_16
REMARK    7  A    between atoms: C_23  and  C_24
REMARK                            x       y       z     vdW  Elec       q    Type
REMARK                         _______ _______ _______ _____ _____    ______ ____
ROOT
ATOM      1  C   UNL     1      44.439   3.400  10.260  0.00  0.00    +0.000 A 
ATOM      2  C   UNL     1      43.584   2.805  11.195  0.00  0.00    +0.000 A 
ATOM      3  C   UNL     1      43.383   3.355  12.462  0.00  0.00    +0.000 A 
ATOM      4  C   UNL     1      44.057   4.512  12.832  0.00  0.00    +0.000 A 
ATOM      5  C   UNL     1      44.946   5.127  11.947  0.00  0.00    +0.000 A 
ATOM      6  C   UNL     1      45.096   4.576  10.662  0.00  0.00    +0.000 A 
ENDROOT
BRANCH   1  10
ATOM      7  C   UNL     1      47.022   4.353   7.668  0.00  0.00    +0.000 C 
ATOM      8  C   UNL     1      45.908   3.537   7.013  0.00  0.00    +0.000 C 
ATOM      9  C   UNL     1      44.571   3.636   7.773  0.00  0.00    +0.000 C 
ATOM     10  N   UNL     1      44.620   2.850   9.010  0.00  0.00    +0.000 N 
ATOM     11  C   UNL     1      45.051   1.456   8.823  0.00  0.00    +0.000 C 
ATOM     12  C   UNL     1      46.385   1.420   8.045  0.00  0.00    +0.000 C 
ATOM     13  C   UNL     1      46.760  -0.015   7.695  0.00  0.00    +0.000 C 
ATOM     14  O   UNL     1      46.310   2.165   6.814  0.00  0.00    +0.000 OA
ENDBRANCH   1  10
BRANCH   5  15
ATOM     15  C   UNL     1      45.774   6.327  12.355  0.00  0.00    +0.000 C 
BRANCH  15  16
ATOM     16  N   UNL     1      47.137   5.934  12.700  0.00  0.00    +0.000 N 
ATOM     17  H   UNL     1      47.820   6.564  12.285  0.00  0.00    +0.000 HD
BRANCH  16  18
ATOM     18  C   UNL     1      47.429   5.646  14.043  0.00  0.00    +0.000 A 
ATOM     19  C   UNL     1      47.028   4.473  14.689  0.00  0.00    +0.000 A 
ATOM     20  C   UNL     1      47.422   4.208  16.003  0.00  0.00    +0.000 A 
ATOM     21  C   UNL     1      48.244   5.122  16.643  0.00  0.00    +0.000 A 
ATOM     22  N   UNL     1      48.697   6.261  16.057  0.00  0.00    +0.000 NA
ATOM     23  C   UNL     1      48.292   6.472  14.777  0.00  0.00    +0.000 A 
BRANCH  21  24
ATOM     24  C   UNL     1      48.691   4.857  18.050  0.00  0.00    +0.000 C 
ATOM     25  N   UNL     1      47.901   4.000  18.768  0.00  0.00    +0.000 N 
ATOM     26  O   UNL     1      49.692   5.369  18.534  0.00  0.00    +0.000 OA
ATOM     27  H   UNL     1      47.067   3.612  18.341  0.00  0.00    +0.000 HD
ATOM     28  H   UNL     1      48.131   3.797  19.730  0.00  0.00    +0.000 HD
ENDBRANCH  21  24
ENDBRANCH  16  18
ENDBRANCH  15  16
ENDBRANCH   5  15
TORSDOF 5
ENDMDL
MODEL 7
REMARK VINA RESULT:    -6.524      3.843      6.300
REMARK INTER + INTRA:          -9.412
REMARK INTER:                  -8.580
REMARK INTRA:                  -0.832
REMARK UNBOUND:                -0.982
REMARK  Name = 
REMARK  7 active torsions:
REMARK  status: ('A' for Active; 'I' for Inactive)
REMARK    1  A    between atoms: C_1  and  C_2
REMARK    2  A    between atoms: N_4  and  C_5
REMARK    3  A    between atoms: C_9  and  C_10
REMARK    4  A    between atoms: C_10  and  N_11
REMARK    5  A    between atoms: N_11  and  C_12
REMARK    6  A    between atoms: C_15  and  C_16
REMARK    7  A    between atoms: C_23  and  C_24
REMARK                            x       y       z     vdW  Elec       q    Type
REMARK                         _______ _______ _______ _____ _____    ______ ____
ROOT
ATOM      1  C   UNL     1      50.072   6.401  16.176  0.00  0.00    +0.000 A 
ATOM      2  C   UNL     1      51.224   7.184  16.038  0.00  0.00    +0.000 A 
ATOM      3  C   UNL     1      51.346   8.141  15.030  0.00  0.00    +0.000 A 
ATOM      4  C   UNL     1      50.317   8.321  14.114  0.00  0.00    +0.000 A 
ATOM      5  C   UNL     1      49.159   7.541  14.189  0.00  0.00    +0.000 A 
ATOM      6  C   UNL     1      49.045   6.616  15.241  0.00  0.00    +0.000 A 
ENDROOT
BRANCH   1  10
ATOM      7  C   UNL     1      47.524   3.625  16.486  0.00  0.00    +0.000 C 
ATOM      8  C   UNL     1      48.200   3.859  17.836  0.00  0.00    +0.000 C 
ATOM      9  C   UNL     1      48.749   5.291  17.987  0.00  0.00    +0.000 C 
ATOM     10  N   UNL     1      49.964   5.466  17.182  0.00  0.00    +0.000 N 
ATOM     11  C   UNL     1      50.997   4.447  17.420  0.00  0.00    +0.000 C 
ATOM     12  C   UNL     1      50.385   3.036  17.270  0.00  0.00    +0.000 C 
ATOM     13  C   UNL     1      51.397   1.971  17.677  0.00  0.00    +0.000 C 
ATOM     14  O   UNL     1      49.216   2.867  18.094  0.00  0.00    +0.000 OA
ENDBRANCH   1  10
BRANCH   5  15
ATOM     15  C   UNL     1      48.066   7.639  13.147  0.00  0.00    +0.000 C 
BRANCH  15  16
ATOM     16  N   UNL     1      46.786   7.183  13.682  0.00  0.00    +0.000 N 
ATOM     17  H   UNL     1      46.192   7.968  13.940  0.00  0.00    +0.000 HD
BRANCH  16  18
ATOM     18  C   UNL     1      46.081   6.196  12.975  0.00  0.00    +0.000 A 
ATOM     19  C   UNL     1      45.884   6.226  11.591  0.00  0.00    +0.000 A 
ATOM     20  C   UNL     1      45.246   5.170  10.935  0.00  0.00    +0.000 A 
ATOM     21  C   UNL     1      44.838   4.077  11.685  0.00  0.00    +0.000 A 
ATOM     22  N   UNL     1      45.034   3.972  13.026  0.00  0.00    +0.000 NA
ATOM     23  C   UNL     1      45.663   5.021  13.617  0.00  0.00    +0.000 A 
BRANCH  21  24
ATOM     24  C   UNL     1      44.160   2.925  11.005  0.00  0.00    +0.000 C 
ATOM     25  N   UNL     1      44.857   2.358   9.972  0.00  0.00    +0.000 N 
ATOM     26  O   UNL     1      43.057   2.514  11.341  0.00  0.00    +0.000 OA
ATOM     27  H   UNL     1      45.757   2.739   9.706  0.00  0.00    +0.000 HD
ATOM     28  H   UNL     1      44.447   1.593   9.455  0.00  0.00    +0.000 HD
ENDBRANCH  21  24
ENDBRANCH  16  18
ENDBRANCH  15  16
ENDBRANCH   5  15
TORSDOF 5
ENDMDL
MODEL 8
REMARK VINA RESULT:    -6.131      3.930      6.166
REMARK INTER + INTRA:          -8.905
REMARK INTER:                  -8.130
REMARK INTRA:                  -0.775
REMARK UNBOUND:                -0.982
REMARK  Name = 
REMARK  7 active torsions:
REMARK  status: ('A' for Active; 'I' for Inactive)
REMARK    1  A    between atoms: C_1  and  C_2
REMARK    2  A    between atoms: N_4  and  C_5
REMARK    3  A    between atoms: C_9  and  C_10
REMARK    4  A    between atoms: C_10  and  N_11
REMARK    5  A    between atoms: N_11  and  C_12
REMARK    6  A    between atoms: C_15  and  C_16
REMARK    7  A    between atoms: C_23  and  C_24
REMARK                            x       y       z     vdW  Elec       q    Type
REMARK                         _______ _______ _______ _____ _____    ______ ____
ROOT
ATOM      1  C   UNL     1      49.357   6.586  16.274  0.00  0.00    +0.000 A 
ATOM      2  C   UNL     1      50.682   7.040  16.273  0.00  0.00    +0.000 A 
ATOM      3  C   UNL     1      51.250   7.646  15.151  0.00  0.00    +0.000 A 
ATOM      4  C   UNL     1      50.506   7.790  13.987  0.00  0.00    +0.000 A 
ATOM      5  C   UNL     1      49.190   7.324  13.926  0.00  0.00    +0.000 A 
ATOM      6  C   UNL     1      48.629   6.759  15.084  0.00  0.00    +0.000 A 
ENDROOT
BRANCH   1  10
ATOM      7  C   UNL     1      49.368   2.921  17.199  0.00  0.00    +0.000 C 
ATOM      8  C   UNL     1      48.312   3.658  18.022  0.00  0.00    +0.000 C 
ATOM      9  C   UNL     1      47.800   4.935  17.326  0.00  0.00    +0.000 C 
ATOM     10  N   UNL     1      48.808   5.999  17.392  0.00  0.00    +0.000 N 
ATOM     11  C   UNL     1      49.313   6.269  18.747  0.00  0.00    +0.000 C 
ATOM     12  C   UNL     1      49.796   4.954  19.397  0.00  0.00    +0.000 C 
ATOM     13  C   UNL     1      50.165   5.185  20.858  0.00  0.00    +0.000 C 
ATOM     14  O   UNL     1      48.783   3.930  19.359  0.00  0.00    +0.000 OA
ENDBRANCH   1  10
BRANCH   5  15
ATOM     15  C   UNL     1      48.388   7.371  12.644  0.00  0.00    +0.000 C 
BRANCH  15  16
ATOM     16  N   UNL     1      46.960   7.225  12.910  0.00  0.00    +0.000 N 
ATOM     17  H   UNL     1      46.453   8.080  12.692  0.00  0.00    +0.000 HD
BRANCH  16  18
ATOM     18  C   UNL     1      46.305   6.082  12.424  0.00  0.00    +0.000 A 
ATOM     19  C   UNL     1      46.196   4.887  13.142  0.00  0.00    +0.000 A 
ATOM     20  C   UNL     1      45.458   3.813  12.637  0.00  0.00    +0.000 A 
ATOM     21  C   UNL     1      44.812   3.969  11.420  0.00  0.00    +0.000 A 
ATOM     22  N   UNL     1      44.849   5.117  10.693  0.00  0.00    +0.000 NA
ATOM     23  C   UNL     1      45.574   6.134  11.228  0.00  0.00    +0.000 A 
BRANCH  21  24
ATOM     24  C   UNL     1      44.005   2.836  10.861  0.00  0.00    +0.000 C 
ATOM     25  N   UNL     1      44.554   2.197   9.782  0.00  0.00    +0.000 N 
ATOM     26  O   UNL     1      42.925   2.498  11.329  0.00  0.00    +0.000 OA
ATOM     27  H   UNL     1      45.439   2.518   9.408  0.00  0.00    +0.000 HD
ATOM     28  H   UNL     1      44.051   1.440   9.342  0.00  0.00    +0.000 HD
ENDBRANCH  21  24
ENDBRANCH  16  18
ENDBRANCH  15  16
ENDBRANCH   5  15
TORSDOF 5
ENDMDL
MODEL 9
REMARK VINA RESULT:    -5.838      4.036      6.053
REMARK INTER + INTRA:          -8.526
REMARK INTER:                  -7.882
REMARK INTRA:                  -0.644
REMARK UNBOUND:                -0.982
REMARK  Name = 
REMARK  7 active torsions:
REMARK  status: ('A' for Active; 'I' for Inactive)
REMARK    1  A    between atoms: C_1  and  C_2
REMARK    2  A    between atoms: N_4  and  C_5
REMARK    3  A    between atoms: C_9  and  C_10
REMARK    4  A    between atoms: C_10  and  N_11
REMARK    5  A    between atoms: N_11  and  C_12
REMARK    6  A    between atoms: C_15  and  C_16
REMARK    7  A    between atoms: C_23  and  C_24
REMARK                            x       y       z     vdW  Elec       q    Type
REMARK                         _______ _______ _______ _____ _____    ______ ____
ROOT
ATOM      1  C   UNL     1      49.425   6.409  16.106  0.00  0.00    +0.000 A 
ATOM      2  C   UNL     1      50.697   6.979  15.975  0.00  0.00    +0.000 A 
ATOM      3  C   UNL     1      51.025   7.805  14.899  0.00  0.00    +0.000 A 
ATOM      4  C   UNL     1      50.086   8.062  13.909  0.00  0.00    +0.000 A 
ATOM      5  C   UNL     1      48.812   7.492  13.976  0.00  0.00    +0.000 A 
ATOM      6  C   UNL     1      48.494   6.700  15.093  0.00  0.00    +0.000 A 
ENDROOT
BRANCH   1  10
ATOM      7  C   UNL     1      51.588   5.615  19.102  0.00  0.00    +0.000 C 
ATOM      8  C   UNL     1      50.449   4.602  19.005  0.00  0.00    +0.000 C 
ATOM      9  C   UNL     1      49.918   4.439  17.567  0.00  0.00    +0.000 C 
ATOM     10  N   UNL     1      49.113   5.603  17.179  0.00  0.00    +0.000 N 
ATOM     11  C   UNL     1      48.045   5.943  18.130  0.00  0.00    +0.000 C 
ATOM     12  C   UNL     1      48.633   6.078  19.552  0.00  0.00    +0.000 C 
ATOM     13  C   UNL     1      47.519   6.263  20.575  0.00  0.00    +0.000 C 
ATOM     14  O   UNL     1      49.389   4.912  19.934  0.00  0.00    +0.000 OA
ENDBRANCH   1  10
BRANCH   5  15
ATOM     15  C   UNL     1      47.802   7.667  12.863  0.00  0.00    +0.000 C 
BRANCH  15  16
ATOM     16  N   UNL     1      46.470   7.249  13.289  0.00  0.00    +0.000 N 
ATOM     17  H   UNL     1      45.815   8.028  13.274  0.00  0.00    +0.000 HD
BRANCH  16  18
ATOM     18  C   UNL     1      45.924   6.086  12.724  0.00  0.00    +0.000 A 
ATOM     19  C   UNL     1      46.066   4.812  13.283  0.00  0.00    +0.000 A 
ATOM     20  C   UNL     1      45.428   3.705  12.718  0.00  0.00    +0.000 A 
ATOM     21  C   UNL     1      44.624   3.904  11.605  0.00  0.00    +0.000 A 
ATOM     22  N   UNL     1      44.416   5.121  11.038  0.00  0.00    +0.000 NA
ATOM     23  C   UNL     1      45.054   6.167  11.627  0.00  0.00    +0.000 A 
BRANCH  21  24
ATOM     24  C   UNL     1      43.919   2.735  10.985  0.00  0.00    +0.000 C 
ATOM     25  N   UNL     1      44.474   2.256   9.830  0.00  0.00    +0.000 N 
ATOM     26  O   UNL     1      42.911   2.237  11.470  0.00  0.00    +0.000 OA
ATOM     27  H   UNL     1      45.296   2.707   9.445  0.00  0.00    +0.000 HD
ATOM     28  H   UNL     1      44.036   1.485   9.347  0.00  0.00    +0.000 HD
ENDBRANCH  21  24
ENDBRANCH  16  18
ENDBRANCH  15  16
ENDBRANCH   5  15
TORSDOF 5
ENDMDL
