MODEL 1
REMARK VINA RESULT:    -7.960      0.000      0.000
REMARK INTER + INTRA:         -12.787
REMARK INTER:                 -11.683
REMARK INTRA:                  -1.104
REMARK UNBOUND:                -1.104
REMARK  Name = 
REMARK  10 active torsions:
REMARK  status: ('A' for Active; 'I' for Inactive)
REMARK    1  A    between atoms: C_1  and  C_2
REMARK    2  A    between atoms: C_5  and  O_6
REMARK    3  A    between atoms: O_6  and  C_7
REMARK    4  A    between atoms: C_9  and  N_10
REMARK    5  A    between atoms: N_10  and  C_11
REMARK    6  A    between atoms: C_11  and  C_12
REMARK    7  A    between atoms: C_12  and  C_15
REMARK    8  A    between atoms: C_18  and  S_19
REMARK    9  A    between atoms: S_19  and  C_20
REMARK   10  A    between atoms: C_26  and  C_27
REMARK                            x       y       z     vdW  Elec       q    Type
REMARK                         _______ _______ _______ _____ _____    ______ ____
ROOT
ATOM      1  C   UNL     1      47.623   5.190  15.349  0.00  0.00    +0.000 A 
ATOM      2  C   UNL     1      46.768   4.314  14.680  0.00  0.00    +0.000 A 
ATOM      3  C   UNL     1      46.422   4.511  13.340  0.00  0.00    +0.000 A 
ATOM      4  C   UNL     1      47.017   5.590  12.670  0.00  0.00    +0.000 A 
ATOM      5  C   UNL     1      47.887   6.477  13.328  0.00  0.00    +0.000 A 
ATOM      6  C   UNL     1      48.217   6.244  14.669  0.00  0.00    +0.000 A 
ENDROOT
BRANCH   5   7
ATOM      7  C   UNL     1      48.401   7.713  12.634  0.00  0.00    +0.000 C 
ATOM      8  F   UNL     1      49.531   7.495  11.903  0.00  0.00    +0.000 F 
ATOM      9  F   UNL     1      47.490   8.224  11.758  0.00  0.00    +0.000 F 
ATOM     10  F   UNL     1      48.702   8.724  13.495  0.00  0.00    +0.000 F 
ENDBRANCH   5   7
BRANCH   3  11
ATOM     11  N   UNL     1      45.608   3.632  12.633  0.00  0.00    +0.000 N 
ATOM     12  H   UNL     1      46.072   3.098  11.898  0.00  0.00    +0.000 HD
BRANCH  11  13
ATOM     13  C   UNL     1      44.202   3.985  12.360  0.00  0.00    +0.000 C 
BRANCH  13  14
ATOM     14  C   UNL     1      43.978   4.645  10.979  0.00  0.00    +0.000 C 
ATOM     15  F   UNL     1      42.643   4.578  10.688  0.00  0.00    +0.000 F 
ATOM     16  F   UNL     1      44.256   5.979  11.076  0.00  0.00    +0.000 F 
BRANCH  14  17
ATOM     17  C   UNL     1      44.828   3.968   9.917  0.00  0.00    +0.000 A 
ATOM     18  C   UNL     1      45.593   4.728   9.013  0.00  0.00    +0.000 A 
ATOM     19  C   UNL     1      46.375   4.094   8.041  0.00  0.00    +0.000 A 
ATOM     20  C   UNL     1      46.392   2.700   7.958  0.00  0.00    +0.000 A 
ATOM     21  C   UNL     1      45.623   1.928   8.842  0.00  0.00    +0.000 A 
ATOM     22  C   UNL     1      44.843   2.569   9.811  0.00  0.00    +0.000 A 
BRANCH  20  23
ATOM     23  S   UNL     1      47.290   1.893   6.644  0.00  0.00    +0.000 S 
ATOM     24  C   UNL     1      46.736   2.684   5.164  0.00  0.00    +0.000 C 
ATOM     25  O   UNL     1      48.703   2.194   6.828  0.00  0.00    +0.000 OA
ATOM     26  O   UNL     1      46.815   0.518   6.612  0.00  0.00    +0.000 OA
ENDBRANCH  20  23
ENDBRANCH  14  17
ENDBRANCH  13  14
ENDBRANCH  11  13
ENDBRANCH   3  11
BRANCH   1  27
ATOM     27  O   UNL     1      47.863   5.098  16.698  0.00  0.00    +0.000 OA
BRANCH  27  32
ATOM     28  C   UNL     1      50.249   2.066  17.099  0.00  0.00    +0.000 C 
ATOM     29  C   UNL     1      49.022   2.901  17.441  0.00  0.00    +0.000 C 
ATOM     30  N   UNL     1      48.937   3.266  18.869  0.00  0.00    +0.000 NA
ATOM     31  C   UNL     1      49.509   4.593  18.572  0.00  0.00    +0.000 C 
ATOM     32  C   UNL     1      49.093   4.423  17.092  0.00  0.00    +0.000 C 
ATOM     33  H   UNL     1      49.465   2.687  19.517  0.00  0.00    +0.000 HD
ENDBRANCH  27  32
ENDBRANCH   1  27
TORSDOF 8
ENDMDL
MODEL 2
REMARK VINA RESULT:    -7.850      2.769      4.170
REMARK INTER + INTRA:         -12.625
REMARK INTER:                 -11.559
REMARK INTRA:                  -1.067
REMARK UNBOUND:                -1.104
REMARK  Name = 
REMARK  10 active torsions:
REMARK  status: ('A' for Active; 'I' for Inactive)
REMARK    1  A    between atoms: C_1  and  C_2
REMARK    2  A    between atoms: C_5  and  O_6
REMARK    3  A    between atoms: O_6  and  C_7
REMARK    4  A    between atoms: C_9  and  N_10
REMARK    5  A    between atoms: N_10  and  C_11
REMARK    6  A    between atoms: C_11  and  C_12
REMARK    7  A    between atoms: C_12  and  C_15
REMARK    8  A    between atoms: C_18  and  S_19
REMARK    9  A    between atoms: S_19  and  C_20
REMARK   10  A    between atoms: C_26  and  C_27
REMARK                            x       y       z     vdW  Elec       q    Type
REMARK                         _______ _______ _______ _____ _____    ______ ____
ROOT
ATOM      1  C   UNL     1      48.077   6.276  14.409  0.00  0.00    +0.000 A 
ATOM      2  C   UNL     1      47.154   5.829  13.464  0.00  0.00    +0.000 A 
ATOM      3  C   UNL     1      46.450   4.634  13.639  0.00  0.00    +0.000 A 
ATOM      4  C   UNL     1      46.660   3.928  14.832  0.00  0.00    +0.000 A 
ATOM      5  C   UNL     1      47.581   4.370  15.799  0.00  0.00    +0.000 A 
ATOM      6  C   UNL     1      48.263   5.576  15.593  0.00  0.00    +0.000 A 
ENDROOT
BRANCH   5   7
ATOM      7  C   UNL     1      47.901   3.525  17.005  0.00  0.00    +0.000 C 
ATOM      8  F   UNL     1      46.794   3.084  17.669  0.00  0.00    +0.000 F 
ATOM      9  F   UNL     1      48.600   2.403  16.674  0.00  0.00    +0.000 F 
ATOM     10  F   UNL     1      48.656   4.178  17.932  0.00  0.00    +0.000 F 
ENDBRANCH   5   7
BRANCH   3  11
ATOM     11  N   UNL     1      45.491   4.184  12.738  0.00  0.00    +0.000 N 
ATOM     12  H   UNL     1      45.726   3.326  12.238  0.00  0.00    +0.000 HD
BRANCH  11  13
ATOM     13  C   UNL     1      44.682   5.153  11.974  0.00  0.00    +0.000 C 
BRANCH  13  14
ATOM     14  C   UNL     1      43.836   4.513  10.849  0.00  0.00    +0.000 C 
ATOM     15  F   UNL     1      42.980   3.613  11.421  0.00  0.00    +0.000 F 
ATOM     16  F   UNL     1      43.031   5.471  10.300  0.00  0.00    +0.000 F 
BRANCH  14  17
ATOM     17  C   UNL     1      44.732   3.867   9.805  0.00  0.00    +0.000 A 
ATOM     18  C   UNL     1      45.486   4.652   8.915  0.00  0.00    +0.000 A 
ATOM     19  C   UNL     1      46.310   4.046   7.960  0.00  0.00    +0.000 A 
ATOM     20  C   UNL     1      46.380   2.653   7.881  0.00  0.00    +0.000 A 
ATOM     21  C   UNL     1      45.622   1.855   8.751  0.00  0.00    +0.000 A 
ATOM     22  C   UNL     1      44.800   2.468   9.703  0.00  0.00    +0.000 A 
BRANCH  20  23
ATOM     23  S   UNL     1      47.334   1.878   6.587  0.00  0.00    +0.000 S 
ATOM     24  C   UNL     1      46.782   2.647   5.095  0.00  0.00    +0.000 C 
ATOM     25  O   UNL     1      48.731   2.230   6.799  0.00  0.00    +0.000 OA
ATOM     26  O   UNL     1      46.909   0.486   6.548  0.00  0.00    +0.000 OA
ENDBRANCH  20  23
ENDBRANCH  14  17
ENDBRANCH  13  14
ENDBRANCH  11  13
ENDBRANCH   3  11
BRANCH   1  27
ATOM     27  O   UNL     1      48.881   7.369  14.194  0.00  0.00    +0.000 OA
BRANCH  27  32
ATOM     28  C   UNL     1      51.093   7.866  11.046  0.00  0.00    +0.000 C 
ATOM     29  C   UNL     1      50.574   8.232  12.430  0.00  0.00    +0.000 C 
ATOM     30  N   UNL     1      50.057   9.613  12.518  0.00  0.00    +0.000 NA
ATOM     31  C   UNL     1      48.679   9.115  12.353  0.00  0.00    +0.000 C 
ATOM     32  C   UNL     1      49.148   7.711  12.803  0.00  0.00    +0.000 C 
ATOM     33  H   UNL     1      50.384  10.265  11.810  0.00  0.00    +0.000 HD
ENDBRANCH  27  32
ENDBRANCH   1  27
TORSDOF 8
ENDMDL
MODEL 3
REMARK VINA RESULT:    -7.672      2.954      3.824
REMARK INTER + INTRA:         -12.363
REMARK INTER:                 -11.570
REMARK INTRA:                  -0.793
REMARK UNBOUND:                -1.104
REMARK  Name = 
REMARK  10 active torsions:
REMARK  status: ('A' for Active; 'I' for Inactive)
REMARK    1  A    between atoms: C_1  and  C_2
REMARK    2  A    between atoms: C_5  and  O_6
REMARK    3  A    between atoms: O_6  and  C_7
REMARK    4  A    between atoms: C_9  and  N_10
REMARK    5  A    between atoms: N_10  and  C_11
REMARK    6  A    between atoms: C_11  and  C_12
REMARK    7  A    between atoms: C_12  and  C_15
REMARK    8  A    between atoms: C_18  and  S_19
REMARK    9  A    between atoms: S_19  and  C_20
REMARK   10  A    between atoms: C_26  and  C_27
REMARK                            x       y       z     vdW  Elec       q    Type
REMARK                         _______ _______ _______ _____ _____    ______ ____
ROOT
ATOM      1  C   UNL     1      48.289   6.953  14.438  0.00  0.00    +0.000 A 
ATOM      2  C   UNL     1      47.462   6.779  13.328  0.00  0.00    +0.000 A 
ATOM      3  C   UNL     1      46.702   5.618  13.158  0.00  0.00    +0.000 A 
ATOM      4  C   UNL     1      46.752   4.657  14.178  0.00  0.00    +0.000 A 
ATOM      5  C   UNL     1      47.574   4.821  15.307  0.00  0.00    +0.000 A 
ATOM      6  C   UNL     1      48.317   6.001  15.448  0.00  0.00    +0.000 A 
ENDROOT
BRANCH   5   7
ATOM      7  C   UNL     1      47.727   3.715  16.320  0.00  0.00    +0.000 C 
ATOM      8  F   UNL     1      46.659   3.594  17.157  0.00  0.00    +0.000 F 
ATOM      9  F   UNL     1      47.870   2.496  15.728  0.00  0.00    +0.000 F 
ATOM     10  F   UNL     1      48.816   3.872  17.123  0.00  0.00    +0.000 F 
ENDBRANCH   5   7
BRANCH   3  11
ATOM     11  N   UNL     1      45.835   5.434  12.087  0.00  0.00    +0.000 N 
ATOM     12  H   UNL     1      45.724   6.237  11.467  0.00  0.00    +0.000 HD
BRANCH  11  13
ATOM     13  C   UNL     1      44.632   4.594  12.246  0.00  0.00    +0.000 C 
BRANCH  13  14
ATOM     14  C   UNL     1      43.812   4.421  10.946  0.00  0.00    +0.000 C 
ATOM     15  F   UNL     1      42.712   3.662  11.236  0.00  0.00    +0.000 F 
ATOM     16  F   UNL     1      43.318   5.637  10.569  0.00  0.00    +0.000 F 
BRANCH  14  17
ATOM     17  C   UNL     1      44.664   3.797   9.853  0.00  0.00    +0.000 A 
ATOM     18  C   UNL     1      44.760   2.400   9.721  0.00  0.00    +0.000 A 
ATOM     19  C   UNL     1      45.545   1.836   8.710  0.00  0.00    +0.000 A 
ATOM     20  C   UNL     1      46.248   2.662   7.828  0.00  0.00    +0.000 A 
ATOM     21  C   UNL     1      46.177   4.058   7.957  0.00  0.00    +0.000 A 
ATOM     22  C   UNL     1      45.389   4.614   8.971  0.00  0.00    +0.000 A 
BRANCH  20  23
ATOM     23  S   UNL     1      47.345   1.948   6.616  0.00  0.00    +0.000 S 
ATOM     24  C   UNL     1      46.814   2.621   5.072  0.00  0.00    +0.000 C 
ATOM     25  O   UNL     1      48.688   2.437   6.896  0.00  0.00    +0.000 OA
ATOM     26  O   UNL     1      47.056   0.521   6.598  0.00  0.00    +0.000 OA
ENDBRANCH  20  23
ENDBRANCH  14  17
ENDBRANCH  13  14
ENDBRANCH  11  13
ENDBRANCH   3  11
BRANCH   1  27
ATOM     27  O   UNL     1      49.150   8.017  14.555  0.00  0.00    +0.000 OA
BRANCH  27  32
ATOM     28  C   UNL     1      47.845   9.147  18.029  0.00  0.00    +0.000 C 
ATOM     29  C   UNL     1      47.963   9.233  16.513  0.00  0.00    +0.000 C 
ATOM     30  N   UNL     1      48.393  10.561  16.031  0.00  0.00    +0.000 NA
ATOM     31  C   UNL     1      49.781  10.076  15.910  0.00  0.00    +0.000 C 
ATOM     32  C   UNL     1      49.254   8.623  15.877  0.00  0.00    +0.000 C 
ATOM     33  H   UNL     1      48.247  11.343  16.665  0.00  0.00    +0.000 HD
ENDBRANCH  27  32
ENDBRANCH   1  27
TORSDOF 8
ENDMDL
MODEL 4
REMARK VINA RESULT:    -7.583      3.919      8.517
REMARK INTER + INTRA:         -12.233
REMARK INTER:                 -11.235
REMARK INTRA:                  -0.998
REMARK UNBOUND:                -1.104
REMARK  Name = 
REMARK  10 active torsions:
REMARK  status: ('A' for Active; 'I' for Inactive)
REMARK    1  A    between atoms: C_1  and  C_2
REMARK    2  A    between atoms: C_5  and  O_6
REMARK    3  A    between atoms: O_6  and  C_7
REMARK    4  A    between atoms: C_9  and  N_10
REMARK    5  A    between atoms: N_10  and  C_11
REMARK    6  A    between atoms: C_11  and  C_12
REMARK    7  A    between atoms: C_12  and  C_15
REMARK    8  A    between atoms: C_18  and  S_19
REMARK    9  A    between atoms: S_19  and  C_20
REMARK   10  A    between atoms: C_26  and  C_27
REMARK                            x       y       z     vdW  Elec       q    Type
REMARK                         _______ _______ _______ _____ _____    ______ ____
ROOT
ATOM      1  C   UNL     1      45.557   5.238  11.584  0.00  0.00    +0.000 A 
ATOM      2  C   UNL     1      45.554   4.611  12.830  0.00  0.00    +0.000 A 
ATOM      3  C   UNL     1      46.441   4.993  13.842  0.00  0.00    +0.000 A 
ATOM      4  C   UNL     1      47.295   6.074  13.581  0.00  0.00    +0.000 A 
ATOM      5  C   UNL     1      47.304   6.722  12.332  0.00  0.00    +0.000 A 
ATOM      6  C   UNL     1      46.397   6.317  11.345  0.00  0.00    +0.000 A 
ENDROOT
BRANCH   5   7
ATOM      7  C   UNL     1      48.327   7.783  12.020  0.00  0.00    +0.000 C 
ATOM      8  F   UNL     1      49.116   7.480  10.950  0.00  0.00    +0.000 F 
ATOM      9  F   UNL     1      47.748   8.980  11.722  0.00  0.00    +0.000 F 
ATOM     10  F   UNL     1      49.179   8.026  13.055  0.00  0.00    +0.000 F 
ENDBRANCH   5   7
BRANCH   3  11
ATOM     11  N   UNL     1      46.433   4.418  15.108  0.00  0.00    +0.000 N 
ATOM     12  H   UNL     1      45.943   4.949  15.829  0.00  0.00    +0.000 HD
BRANCH  11  13
ATOM     13  C   UNL     1      47.604   3.653  15.580  0.00  0.00    +0.000 C 
BRANCH  13  14
ATOM     14  C   UNL     1      48.080   4.048  16.998  0.00  0.00    +0.000 C 
ATOM     15  F   UNL     1      48.050   5.412  17.091  0.00  0.00    +0.000 F 
ATOM     16  F   UNL     1      47.165   3.607  17.911  0.00  0.00    +0.000 F 
BRANCH  14  17
ATOM     17  C   UNL     1      49.465   3.486  17.273  0.00  0.00    +0.000 A 
ATOM     18  C   UNL     1      49.746   2.124  17.066  0.00  0.00    +0.000 A 
ATOM     19  C   UNL     1      51.025   1.618  17.320  0.00  0.00    +0.000 A 
ATOM     20  C   UNL     1      52.031   2.466  17.791  0.00  0.00    +0.000 A 
ATOM     21  C   UNL     1      51.763   3.824  18.019  0.00  0.00    +0.000 A 
ATOM     22  C   UNL     1      50.481   4.323  17.763  0.00  0.00    +0.000 A 
BRANCH  20  23
ATOM     23  S   UNL     1      53.627   1.801  18.232  0.00  0.00    +0.000 S 
ATOM     24  C   UNL     1      54.104   2.692  19.682  0.00  0.00    +0.000 C 
ATOM     25  O   UNL     1      53.438   0.403  18.591  0.00  0.00    +0.000 OA
ATOM     26  O   UNL     1      54.536   2.184  17.162  0.00  0.00    +0.000 OA
ENDBRANCH  20  23
ENDBRANCH  14  17
ENDBRANCH  13  14
ENDBRANCH  11  13
ENDBRANCH   3  11
BRANCH   1  27
ATOM     27  O   UNL     1      44.797   4.788  10.531  0.00  0.00    +0.000 OA
BRANCH  27  32
ATOM     28  C   UNL     1      46.508   3.501   7.296  0.00  0.00    +0.000 C 
ATOM     29  C   UNL     1      45.327   3.999   8.120  0.00  0.00    +0.000 C 
ATOM     30  N   UNL     1      44.167   3.085   8.097  0.00  0.00    +0.000 NA
ATOM     31  C   UNL     1      44.577   2.521   9.397  0.00  0.00    +0.000 C 
ATOM     32  C   UNL     1      45.416   3.792   9.666  0.00  0.00    +0.000 C 
ATOM     33  H   UNL     1      44.121   2.430   7.321  0.00  0.00    +0.000 HD
ENDBRANCH  27  32
ENDBRANCH   1  27
TORSDOF 8
ENDMDL
MODEL 5
REMARK VINA RESULT:    -7.433      1.617      2.105
REMARK INTER + INTRA:         -12.013
REMARK INTER:                 -10.841
REMARK INTRA:                  -1.172
REMARK UNBOUND:                -1.104
REMARK  Name = 
REMARK  10 active torsions:
REMARK  status: ('A' for Active; 'I' for Inactive)
REMARK    1  A    between atoms: C_1  and  C_2
REMARK    2  A    between atoms: C_5  and  O_6
REMARK    3  A    between atoms: O_6  and  C_7
REMARK    4  A    between atoms: C_9  and  N_10
REMARK    5  A    between atoms: N_10  and  C_11
REMARK    6  A    between atoms: C_11  and  C_12
REMARK    7  A    between atoms: C_12  and  C_15
REMARK    8  A    between atoms: C_18  and  S_19
REMARK    9  A    between atoms: S_19  and  C_20
REMARK   10  A    between atoms: C_26  and  C_27
REMARK                            x       y       z     vdW  Elec       q    Type
REMARK                         _______ _______ _______ _____ _____    ______ ____
ROOT
ATOM      1  C   UNL     1      48.056   6.503  14.113  0.00  0.00    +0.000 A 
ATOM      2  C   UNL     1      47.448   5.314  13.709  0.00  0.00    +0.000 A 
ATOM      3  C   UNL     1      46.332   5.314  12.866  0.00  0.00    +0.000 A 
ATOM      4  C   UNL     1      45.881   6.553  12.389  0.00  0.00    +0.000 A 
ATOM      5  C   UNL     1      46.489   7.760  12.780  0.00  0.00    +0.000 A 
ATOM      6  C   UNL     1      47.609   7.721  13.620  0.00  0.00    +0.000 A 
ENDROOT
BRANCH   5   7
ATOM      7  C   UNL     1      45.902   9.087  12.374  0.00  0.00    +0.000 C 
ATOM      8  F   UNL     1      46.818  10.096  12.329  0.00  0.00    +0.000 F 
ATOM      9  F   UNL     1      45.344   9.042  11.131  0.00  0.00    +0.000 F 
ATOM     10  F   UNL     1      44.916   9.515  13.212  0.00  0.00    +0.000 F 
ENDBRANCH   5   7
BRANCH   3  11
ATOM     11  N   UNL     1      45.731   4.146  12.410  0.00  0.00    +0.000 N 
ATOM     12  H   UNL     1      46.203   3.683  11.633  0.00  0.00    +0.000 HD
BRANCH  11  13
ATOM     13  C   UNL     1      44.261   4.020  12.416  0.00  0.00    +0.000 C 
BRANCH  13  14
ATOM     14  C   UNL     1      43.615   4.148  11.016  0.00  0.00    +0.000 C 
ATOM     15  F   UNL     1      42.425   3.475  11.035  0.00  0.00    +0.000 F 
ATOM     16  F   UNL     1      43.283   5.455  10.799  0.00  0.00    +0.000 F 
BRANCH  14  17
ATOM     17  C   UNL     1      44.553   3.620   9.943  0.00  0.00    +0.000 A 
ATOM     18  C   UNL     1      45.254   4.501   9.100  0.00  0.00    +0.000 A 
ATOM     19  C   UNL     1      46.117   4.005   8.117  0.00  0.00    +0.000 A 
ATOM     20  C   UNL     1      46.280   2.626   7.963  0.00  0.00    +0.000 A 
ATOM     21  C   UNL     1      45.576   1.733   8.784  0.00  0.00    +0.000 A 
ATOM     22  C   UNL     1      44.714   2.237   9.765  0.00  0.00    +0.000 A 
BRANCH  20  23
ATOM     23  S   UNL     1      47.284   1.987   6.633  0.00  0.00    +0.000 S 
ATOM     24  C   UNL     1      46.699   2.815   5.186  0.00  0.00    +0.000 C 
ATOM     25  O   UNL     1      48.658   2.403   6.880  0.00  0.00    +0.000 OA
ATOM     26  O   UNL     1      46.940   0.579   6.504  0.00  0.00    +0.000 OA
ENDBRANCH  20  23
ENDBRANCH  14  17
ENDBRANCH  13  14
ENDBRANCH  11  13
ENDBRANCH   3  11
BRANCH   1  27
ATOM     27  O   UNL     1      49.060   6.535  15.050  0.00  0.00    +0.000 OA
BRANCH  27  32
ATOM     28  C   UNL     1      47.768   6.795  18.698  0.00  0.00    +0.000 C 
ATOM     29  C   UNL     1      48.775   7.028  17.579  0.00  0.00    +0.000 C 
ATOM     30  N   UNL     1      50.129   6.529  17.892  0.00  0.00    +0.000 NA
ATOM     31  C   UNL     1      49.862   5.299  17.124  0.00  0.00    +0.000 C 
ATOM     32  C   UNL     1      48.724   6.032  16.375  0.00  0.00    +0.000 C 
ATOM     33  H   UNL     1      50.349   6.402  18.877  0.00  0.00    +0.000 HD
ENDBRANCH  27  32
ENDBRANCH   1  27
TORSDOF 8
ENDMDL
MODEL 6
REMARK VINA RESULT:    -7.168      4.347      8.319
REMARK INTER + INTRA:         -11.624
REMARK INTER:                 -10.842
REMARK INTRA:                  -0.782
REMARK UNBOUND:                -1.104
REMARK  Name = 
REMARK  10 active torsions:
REMARK  status: ('A' for Active; 'I' for Inactive)
REMARK    1  A    between atoms: C_1  and  C_2
REMARK    2  A    between atoms: C_5  and  O_6
REMARK    3  A    between atoms: O_6  and  C_7
REMARK    4  A    between atoms: C_9  and  N_10
REMARK    5  A    between atoms: N_10  and  C_11
REMARK    6  A    between atoms: C_11  and  C_12
REMARK    7  A    between atoms: C_12  and  C_15
REMARK    8  A    between atoms: C_18  and  S_19
REMARK    9  A    between atoms: S_19  and  C_20
REMARK   10  A    between atoms: C_26  and  C_27
REMARK                            x       y       z     vdW  Elec       q    Type
REMARK                         _______ _______ _______ _____ _____    ______ ____
ROOT
ATOM      1  C   UNL     1      46.622   6.229  11.980  0.00  0.00    +0.000 A 
ATOM      2  C   UNL     1      46.982   5.658  13.200  0.00  0.00    +0.000 A 
ATOM      3  C   UNL     1      46.358   4.502  13.679  0.00  0.00    +0.000 A 
ATOM      4  C   UNL     1      45.395   3.899  12.856  0.00  0.00    +0.000 A 
ATOM      5  C   UNL     1      45.026   4.458  11.619  0.00  0.00    +0.000 A 
ATOM      6  C   UNL     1      45.679   5.612  11.168  0.00  0.00    +0.000 A 
ENDROOT
BRANCH   5   7
ATOM      7  C   UNL     1      43.889   3.879  10.818  0.00  0.00    +0.000 C 
ATOM      8  F   UNL     1      44.141   2.626  10.343  0.00  0.00    +0.000 F 
ATOM      9  F   UNL     1      42.748   3.769  11.555  0.00  0.00    +0.000 F 
ATOM     10  F   UNL     1      43.562   4.632   9.730  0.00  0.00    +0.000 F 
ENDBRANCH   5   7
BRANCH   3  11
ATOM     11  N   UNL     1      46.724   3.884  14.869  0.00  0.00    +0.000 N 
ATOM     12  H   UNL     1      46.027   3.258  15.272  0.00  0.00    +0.000 HD
BRANCH  11  13
ATOM     13  C   UNL     1      47.561   4.604  15.848  0.00  0.00    +0.000 C 
BRANCH  13  14
ATOM     14  C   UNL     1      47.755   3.847  17.183  0.00  0.00    +0.000 C 
ATOM     15  F   UNL     1      47.317   4.655  18.196  0.00  0.00    +0.000 F 
ATOM     16  F   UNL     1      46.923   2.764  17.204  0.00  0.00    +0.000 F 
BRANCH  14  17
ATOM     17  C   UNL     1      49.209   3.442  17.363  0.00  0.00    +0.000 A 
ATOM     18  C   UNL     1      49.638   2.137  17.061  0.00  0.00    +0.000 A 
ATOM     19  C   UNL     1      50.979   1.776  17.228  0.00  0.00    +0.000 A 
ATOM     20  C   UNL     1      51.900   2.711  17.707  0.00  0.00    +0.000 A 
ATOM     21  C   UNL     1      51.486   4.012  18.029  0.00  0.00    +0.000 A 
ATOM     22  C   UNL     1      50.142   4.366  17.859  0.00  0.00    +0.000 A 
BRANCH  20  23
ATOM     23  S   UNL     1      53.583   2.220  18.037  0.00  0.00    +0.000 S 
ATOM     24  C   UNL     1      53.737   0.615  17.316  0.00  0.00    +0.000 C 
ATOM     25  O   UNL     1      54.458   3.136  17.317  0.00  0.00    +0.000 OA
ATOM     26  O   UNL     1      53.686   2.066  19.480  0.00  0.00    +0.000 OA
ENDBRANCH  20  23
ENDBRANCH  14  17
ENDBRANCH  13  14
ENDBRANCH  11  13
ENDBRANCH   3  11
BRANCH   1  27
ATOM     27  O   UNL     1      47.119   7.438  11.557  0.00  0.00    +0.000 OA
BRANCH  27  32
ATOM     28  C   UNL     1      48.133   8.913  14.998  0.00  0.00    +0.000 C 
ATOM     29  C   UNL     1      47.323   8.868  13.710  0.00  0.00    +0.000 C 
ATOM     30  N   UNL     1      47.367  10.129  12.942  0.00  0.00    +0.000 NA
ATOM     31  C   UNL     1      48.413   9.569  12.067  0.00  0.00    +0.000 C 
ATOM     32  C   UNL     1      47.984   8.144  12.492  0.00  0.00    +0.000 C 
ATOM     33  H   UNL     1      47.620  10.966  13.461  0.00  0.00    +0.000 HD
ENDBRANCH  27  32
ENDBRANCH   1  27
TORSDOF 8
ENDMDL
MODEL 7
REMARK VINA RESULT:    -7.027      3.958      7.838
REMARK INTER + INTRA:         -11.417
REMARK INTER:                  -9.695
REMARK INTRA:                  -1.722
REMARK UNBOUND:                -1.104
REMARK  Name = 
REMARK  10 active torsions:
REMARK  status: ('A' for Active; 'I' for Inactive)
REMARK    1  A    between atoms: C_1  and  C_2
REMARK    2  A    between atoms: C_5  and  O_6
REMARK    3  A    between atoms: O_6  and  C_7
REMARK    4  A    between atoms: C_9  and  N_10
REMARK    5  A    between atoms: N_10  and  C_11
REMARK    6  A    between atoms: C_11  and  C_12
REMARK    7  A    between atoms: C_12  and  C_15
REMARK    8  A    between atoms: C_18  and  S_19
REMARK    9  A    between atoms: S_19  and  C_20
REMARK   10  A    between atoms: C_26  and  C_27
REMARK                            x       y       z     vdW  Elec       q    Type
REMARK                         _______ _______ _______ _____ _____    ______ ____
ROOT
ATOM      1  C   UNL     1      46.703   4.008  13.596  0.00  0.00    +0.000 A 
ATOM      2  C   UNL     1      47.180   5.305  13.412  0.00  0.00    +0.000 A 
ATOM      3  C   UNL     1      46.663   6.140  12.416  0.00  0.00    +0.000 A 
ATOM      4  C   UNL     1      45.600   5.647  11.646  0.00  0.00    +0.000 A 
ATOM      5  C   UNL     1      45.101   4.344  11.825  0.00  0.00    +0.000 A 
ATOM      6  C   UNL     1      45.639   3.539  12.837  0.00  0.00    +0.000 A 
ENDROOT
BRANCH   5   7
ATOM      7  C   UNL     1      44.059   3.781  10.893  0.00  0.00    +0.000 C 
ATOM      8  F   UNL     1      43.051   3.128  11.537  0.00  0.00    +0.000 F 
ATOM      9  F   UNL     1      43.453   4.753  10.155  0.00  0.00    +0.000 F 
ATOM     10  F   UNL     1      44.568   2.891   9.996  0.00  0.00    +0.000 F 
ENDBRANCH   5   7
BRANCH   3  11
ATOM     11  N   UNL     1      47.087   7.452  12.236  0.00  0.00    +0.000 N 
ATOM     12  H   UNL     1      47.884   7.575  11.611  0.00  0.00    +0.000 HD
BRANCH  11  13
ATOM     13  C   UNL     1      47.013   8.413  13.354  0.00  0.00    +0.000 C 
BRANCH  13  14
ATOM     14  C   UNL     1      48.393   8.853  13.894  0.00  0.00    +0.000 C 
ATOM     15  F   UNL     1      49.354   8.369  13.050  0.00  0.00    +0.000 F 
ATOM     16  F   UNL     1      48.491  10.213  13.805  0.00  0.00    +0.000 F 
BRANCH  14  17
ATOM     17  C   UNL     1      48.590   8.368  15.321  0.00  0.00    +0.000 A 
ATOM     18  C   UNL     1      48.061   9.088  16.408  0.00  0.00    +0.000 A 
ATOM     19  C   UNL     1      48.246   8.631  17.717  0.00  0.00    +0.000 A 
ATOM     20  C   UNL     1      48.968   7.457  17.952  0.00  0.00    +0.000 A 
ATOM     21  C   UNL     1      49.516   6.737  16.881  0.00  0.00    +0.000 A 
ATOM     22  C   UNL     1      49.327   7.200  15.574  0.00  0.00    +0.000 A 
BRANCH  20  23
ATOM     23  S   UNL     1      49.309   6.938  19.624  0.00  0.00    +0.000 S 
ATOM     24  C   UNL     1      50.941   6.264  19.565  0.00  0.00    +0.000 C 
ATOM     25  O   UNL     1      49.332   8.131  20.460  0.00  0.00    +0.000 OA
ATOM     26  O   UNL     1      48.391   5.844  19.906  0.00  0.00    +0.000 OA
ENDBRANCH  20  23
ENDBRANCH  14  17
ENDBRANCH  13  14
ENDBRANCH  11  13
ENDBRANCH   3  11
BRANCH   1  27
ATOM     27  O   UNL     1      47.289   3.124  14.468  0.00  0.00    +0.000 OA
BRANCH  27  32
ATOM     28  C   UNL     1      49.423   3.126  17.708  0.00  0.00    +0.000 C 
ATOM     29  C   UNL     1      48.236   2.716  16.847  0.00  0.00    +0.000 C 
ATOM     30  N   UNL     1      46.929   2.986  17.481  0.00  0.00    +0.000 NA
ATOM     31  C   UNL     1      46.803   4.235  16.705  0.00  0.00    +0.000 C 
ATOM     32  C   UNL     1      47.839   3.692  15.692  0.00  0.00    +0.000 C 
ATOM     33  H   UNL     1      46.928   3.087  18.492  0.00  0.00    +0.000 HD
ENDBRANCH  27  32
ENDBRANCH   1  27
TORSDOF 8
ENDMDL
MODEL 8
REMARK VINA RESULT:    -6.837      3.660      5.482
REMARK INTER + INTRA:         -11.138
REMARK INTER:                  -9.794
REMARK INTRA:                  -1.344
REMARK UNBOUND:                -1.104
REMARK  Name = 
REMARK  10 active torsions:
REMARK  status: ('A' for Active; 'I' for Inactive)
REMARK    1  A    between atoms: C_1  and  C_2
REMARK    2  A    between atoms: C_5  and  O_6
REMARK    3  A    between atoms: O_6  and  C_7
REMARK    4  A    between atoms: C_9  and  N_10
REMARK    5  A    between atoms: N_10  and  C_11
REMARK    6  A    between atoms: C_11  and  C_12
REMARK    7  A    between atoms: C_12  and  C_15
REMARK    8  A    between atoms: C_18  and  S_19
REMARK    9  A    between atoms: S_19  and  C_20
REMARK   10  A    between atoms: C_26  and  C_27
REMARK                            x       y       z     vdW  Elec       q    Type
REMARK                         _______ _______ _______ _____ _____    ______ ____
ROOT
ATOM      1  C   UNL     1      48.378   6.683  18.047  0.00  0.00    +0.000 A 
ATOM      2  C   UNL     1      48.834   6.811  16.736  0.00  0.00    +0.000 A 
ATOM      3  C   UNL     1      48.866   8.051  16.091  0.00  0.00    +0.000 A 
ATOM      4  C   UNL     1      48.480   9.177  16.833  0.00  0.00    +0.000 A 
ATOM      5  C   UNL     1      48.025   9.065  18.159  0.00  0.00    +0.000 A 
ATOM      6  C   UNL     1      48.014   7.808  18.775  0.00  0.00    +0.000 A 
ENDROOT
BRANCH   5   7
ATOM      7  C   UNL     1      47.477  10.263  18.892  0.00  0.00    +0.000 C 
ATOM      8  F   UNL     1      47.104  11.281  18.066  0.00  0.00    +0.000 F 
ATOM      9  F   UNL     1      46.367   9.955  19.619  0.00  0.00    +0.000 F 
ATOM     10  F   UNL     1      48.365  10.804  19.773  0.00  0.00    +0.000 F 
ENDBRANCH   5   7
BRANCH   3  11
ATOM     11  N   UNL     1      49.356   8.219  14.800  0.00  0.00    +0.000 N 
ATOM     12  H   UNL     1      50.272   8.663  14.732  0.00  0.00    +0.000 HD
BRANCH  11  13
ATOM     13  C   UNL     1      48.430   8.519  13.691  0.00  0.00    +0.000 C 
BRANCH  13  14
ATOM     14  C   UNL     1      48.557   7.553  12.490  0.00  0.00    +0.000 C 
ATOM     15  F   UNL     1      48.788   8.300  11.367  0.00  0.00    +0.000 F 
ATOM     16  F   UNL     1      49.681   6.793  12.650  0.00  0.00    +0.000 F 
BRANCH  14  17
ATOM     17  C   UNL     1      47.310   6.694  12.359  0.00  0.00    +0.000 A 
ATOM     18  C   UNL     1      46.584   6.655  11.155  0.00  0.00    +0.000 A 
ATOM     19  C   UNL     1      45.439   5.859  11.044  0.00  0.00    +0.000 A 
ATOM     20  C   UNL     1      45.006   5.102  12.136  0.00  0.00    +0.000 A 
ATOM     21  C   UNL     1      45.710   5.142  13.349  0.00  0.00    +0.000 A 
ATOM     22  C   UNL     1      46.854   5.941  13.452  0.00  0.00    +0.000 A 
BRANCH  20  23
ATOM     23  S   UNL     1      43.481   4.182  12.038  0.00  0.00    +0.000 S 
ATOM     24  C   UNL     1      42.222   5.409  11.855  0.00  0.00    +0.000 C 
ATOM     25  O   UNL     1      43.527   3.382  10.822  0.00  0.00    +0.000 OA
ATOM     26  O   UNL     1      43.299   3.556  13.340  0.00  0.00    +0.000 OA
ENDBRANCH  20  23
ENDBRANCH  14  17
ENDBRANCH  13  14
ENDBRANCH  11  13
ENDBRANCH   3  11
BRANCH   1  27
ATOM     27  O   UNL     1      48.203   5.461  18.650  0.00  0.00    +0.000 OA
BRANCH  27  32
ATOM     28  C   UNL     1      47.768   3.211  15.520  0.00  0.00    +0.000 C 
ATOM     29  C   UNL     1      47.315   3.844  16.829  0.00  0.00    +0.000 C 
ATOM     30  N   UNL     1      46.867   2.859  17.835  0.00  0.00    +0.000 NA
ATOM     31  C   UNL     1      48.185   2.921  18.494  0.00  0.00    +0.000 C 
ATOM     32  C   UNL     1      48.441   4.289  17.818  0.00  0.00    +0.000 C 
ATOM     33  H   UNL     1      46.587   1.947  17.482  0.00  0.00    +0.000 HD
ENDBRANCH  27  32
ENDBRANCH   1  27
TORSDOF 8
ENDMDL
MODEL 9
REMARK VINA RESULT:    -6.688      3.862      5.513
REMARK INTER + INTRA:         -10.919
REMARK INTER:                  -9.533
REMARK INTRA:                  -1.386
REMARK UNBOUND:                -1.104
REMARK  Name = 
REMARK  10 active torsions:
REMARK  status: ('A' for Active; 'I' for Inactive)
REMARK    1  A    between atoms: C_1  and  C_2
REMARK    2  A    between atoms: C_5  and  O_6
REMARK    3  A    between atoms: O_6  and  C_7
REMARK    4  A    between atoms: C_9  and  N_10
REMARK    5  A    between atoms: N_10  and  C_11
REMARK    6  A    between atoms: C_11  and  C_12
REMARK    7  A    between atoms: C_12  and  C_15
REMARK    8  A    between atoms: C_18  and  S_19
REMARK    9  A    between atoms: S_19  and  C_20
REMARK   10  A    between atoms: C_26  and  C_27
REMARK                            x       y       z     vdW  Elec       q    Type
REMARK                         _______ _______ _______ _____ _____    ______ ____
ROOT
ATOM      1  C   UNL     1      51.186   5.362  17.631  0.00  0.00    +0.000 A 
ATOM      2  C   UNL     1      50.994   6.447  16.777  0.00  0.00    +0.000 A 
ATOM      3  C   UNL     1      49.812   6.604  16.048  0.00  0.00    +0.000 A 
ATOM      4  C   UNL     1      48.795   5.660  16.253  0.00  0.00    +0.000 A 
ATOM      5  C   UNL     1      48.969   4.564  17.118  0.00  0.00    +0.000 A 
ATOM      6  C   UNL     1      50.165   4.444  17.838  0.00  0.00    +0.000 A 
ENDROOT
BRANCH   5   7
ATOM      7  C   UNL     1      47.924   3.483  17.215  0.00  0.00    +0.000 C 
ATOM      8  F   UNL     1      47.855   2.902  18.447  0.00  0.00    +0.000 F 
ATOM      9  F   UNL     1      46.672   3.957  16.963  0.00  0.00    +0.000 F 
ATOM     10  F   UNL     1      48.124   2.464  16.333  0.00  0.00    +0.000 F 
ENDBRANCH   5   7
BRANCH   3  11
ATOM     11  N   UNL     1      49.573   7.697  15.222  0.00  0.00    +0.000 N 
ATOM     12  H   UNL     1      49.990   8.577  15.526  0.00  0.00    +0.000 HD
BRANCH  11  13
ATOM     13  C   UNL     1      48.280   7.825  14.521  0.00  0.00    +0.000 C 
BRANCH  13  14
ATOM     14  C   UNL     1      48.339   7.446  13.023  0.00  0.00    +0.000 C 
ATOM     15  F   UNL     1      48.283   8.601  12.291  0.00  0.00    +0.000 F 
ATOM     16  F   UNL     1      49.565   6.910  12.750  0.00  0.00    +0.000 F 
BRANCH  14  17
ATOM     17  C   UNL     1      47.214   6.489  12.667  0.00  0.00    +0.000 A 
ATOM     18  C   UNL     1      46.599   6.536  11.403  0.00  0.00    +0.000 A 
ATOM     19  C   UNL     1      45.566   5.648  11.085  0.00  0.00    +0.000 A 
ATOM     20  C   UNL     1      45.133   4.712  12.028  0.00  0.00    +0.000 A 
ATOM     21  C   UNL     1      45.725   4.663  13.299  0.00  0.00    +0.000 A 
ATOM     22  C   UNL     1      46.758   5.555  13.610  0.00  0.00    +0.000 A 
BRANCH  20  23
ATOM     23  S   UNL     1      43.736   3.662  11.670  0.00  0.00    +0.000 S 
ATOM     24  C   UNL     1      44.161   2.841  10.164  0.00  0.00    +0.000 C 
ATOM     25  O   UNL     1      43.650   2.667  12.731  0.00  0.00    +0.000 OA
ATOM     26  O   UNL     1      42.620   4.552  11.386  0.00  0.00    +0.000 OA
ENDBRANCH  20  23
ENDBRANCH  14  17
ENDBRANCH  13  14
ENDBRANCH  11  13
ENDBRANCH   3  11
BRANCH   1  27
ATOM     27  O   UNL     1      52.388   5.112  18.246  0.00  0.00    +0.000 OA
BRANCH  27  32
ATOM     28  C   UNL     1      53.189   1.328  17.940  0.00  0.00    +0.000 C 
ATOM     29  C   UNL     1      53.137   2.665  18.667  0.00  0.00    +0.000 C 
ATOM     30  N   UNL     1      54.443   3.093  19.209  0.00  0.00    +0.000 NA
ATOM     31  C   UNL     1      54.650   3.965  18.038  0.00  0.00    +0.000 C 
ATOM     32  C   UNL     1      53.126   3.948  17.774  0.00  0.00    +0.000 C 
ATOM     33  H   UNL     1      55.136   2.362  19.349  0.00  0.00    +0.000 HD
ENDBRANCH  27  32
ENDBRANCH   1  27
TORSDOF 8
ENDMDL
