MODEL 1
REMARK VINA RESULT:    -7.688      0.000      0.000
REMARK INTER + INTRA:         -10.127
REMARK INTER:                  -9.485
REMARK INTRA:                  -0.641
REMARK UNBOUND:                -0.641
REMARK  Name = 
REMARK  6 active torsions:
REMARK  status: ('A' for Active; 'I' for Inactive)
REMARK    1  A    between atoms: C_1  and  C_2
REMARK    2  A    between atoms: C_4  and  C_5
REMARK    3  A    between atoms: C_10  and  N_11
REMARK    4  A    between atoms: N_11  and  C_12
REMARK    5  A    between atoms: C_12  and  C_13
REMARK    6  A    between atoms: C_12  and  C_14
REMARK                            x       y       z     vdW  Elec       q    Type
REMARK                         _______ _______ _______ _____ _____    ______ ____
ROOT
ATOM      1  C   UNL     1      43.917   1.867  10.081  0.00  0.00    +0.000 C 
ATOM      2  C   UNL     1      44.843   2.659   9.200  0.00  0.00    +0.000 A 
ATOM      3  C   UNL     1      45.832   1.958   8.472  0.00  0.00    +0.000 A 
ATOM      4  C   UNL     1      46.729   2.620   7.625  0.00  0.00    +0.000 A 
ATOM      5  C   UNL     1      46.629   4.002   7.501  0.00  0.00    +0.000 A 
ATOM      6  C   UNL     1      45.629   4.699   8.191  0.00  0.00    +0.000 A 
ATOM      7  C   UNL     1      44.710   4.056   9.039  0.00  0.00    +0.000 A 
ENDROOT
BRANCH   4   8
ATOM      8  C   UNL     1      47.746   1.811   6.894  0.00  0.00    +0.000 C 
ATOM      9  N   UNL     1      48.679   2.457   6.131  0.00  0.00    +0.000 N 
ATOM     10  O   UNL     1      47.762   0.586   6.965  0.00  0.00    +0.000 OA
ATOM     11  H   UNL     1      48.760   3.456   6.026  0.00  0.00    +0.000 HD
ATOM     12  H   UNL     1      49.354   1.875   5.652  0.00  0.00    +0.000 HD
ENDBRANCH   4   8
BRANCH   7  13
ATOM     13  N   UNL     1      43.721   4.761   9.749  0.00  0.00    +0.000 N 
ATOM     14  H   UNL     1      42.801   4.543   9.373  0.00  0.00    +0.000 HD
BRANCH  13  15
ATOM     15  C   UNL     1      43.740   4.769  11.220  0.00  0.00    +0.000 C 
ATOM     16  C   UNL     1      42.598   5.613  11.805  0.00  0.00    +0.000 C 
BRANCH  15  17
ATOM     17  C   UNL     1      45.050   5.305  11.790  0.00  0.00    +0.000 A 
ATOM     18  C   UNL     1      45.559   6.573  11.477  0.00  0.00    +0.000 A 
ATOM     19  C   UNL     1      46.690   7.069  12.135  0.00  0.00    +0.000 A 
ATOM     20  C   UNL     1      47.326   6.308  13.112  0.00  0.00    +0.000 A 
ATOM     21  C   UNL     1      46.844   5.041  13.427  0.00  0.00    +0.000 A 
ATOM     22  C   UNL     1      45.718   4.544  12.770  0.00  0.00    +0.000 A 
ENDBRANCH  15  17
ENDBRANCH  13  15
ENDBRANCH   7  13
TORSDOF 4
ENDMDL
MODEL 2
REMARK VINA RESULT:    -7.545      0.977      1.486
REMARK INTER + INTRA:          -9.950
REMARK INTER:                  -9.323
REMARK INTRA:                  -0.627
REMARK UNBOUND:                -0.641
REMARK  Name = 
REMARK  6 active torsions:
REMARK  status: ('A' for Active; 'I' for Inactive)
REMARK    1  A    between atoms: C_1  and  C_2
REMARK    2  A    between atoms: C_4  and  C_5
REMARK    3  A    between atoms: C_10  and  N_11
REMARK    4  A    between atoms: N_11  and  C_12
REMARK    5  A    between atoms: C_12  and  C_13
REMARK    6  A    between atoms: C_12  and  C_14
REMARK                            x       y       z     vdW  Elec       q    Type
REMARK                         _______ _______ _______ _____ _____    ______ ____
ROOT
ATOM      1  C   UNL     1      44.014   2.328  10.368  0.00  0.00    +0.000 C 
ATOM      2  C   UNL     1      44.958   2.938   9.370  0.00  0.00    +0.000 A 
ATOM      3  C   UNL     1      45.703   2.070   8.539  0.00  0.00    +0.000 A 
ATOM      4  C   UNL     1      46.599   2.558   7.581  0.00  0.00    +0.000 A 
ATOM      5  C   UNL     1      46.744   3.935   7.448  0.00  0.00    +0.000 A 
ATOM      6  C   UNL     1      45.983   4.802   8.241  0.00  0.00    +0.000 A 
ATOM      7  C   UNL     1      45.069   4.337   9.203  0.00  0.00    +0.000 A 
ENDROOT
BRANCH   4   8
ATOM      8  C   UNL     1      47.352   1.578   6.746  0.00  0.00    +0.000 C 
ATOM      9  N   UNL     1      48.387   2.027   5.974  0.00  0.00    +0.000 N 
ATOM     10  O   UNL     1      47.063   0.385   6.742  0.00  0.00    +0.000 OA
ATOM     11  H   UNL     1      48.711   2.979   5.925  0.00  0.00    +0.000 HD
ATOM     12  H   UNL     1      48.875   1.332   5.423  0.00  0.00    +0.000 HD
ENDBRANCH   4   8
BRANCH   7  13
ATOM     13  N   UNL     1      44.322   5.209  10.015  0.00  0.00    +0.000 N 
ATOM     14  H   UNL     1      43.330   4.998   9.931  0.00  0.00    +0.000 HD
BRANCH  13  15
ATOM     15  C   UNL     1      44.731   5.446  11.408  0.00  0.00    +0.000 C 
ATOM     16  C   UNL     1      43.528   5.477  12.362  0.00  0.00    +0.000 C 
BRANCH  15  17
ATOM     17  C   UNL     1      45.495   6.755  11.584  0.00  0.00    +0.000 A 
ATOM     18  C   UNL     1      44.863   7.995  11.752  0.00  0.00    +0.000 A 
ATOM     19  C   UNL     1      45.608   9.141  12.049  0.00  0.00    +0.000 A 
ATOM     20  C   UNL     1      46.993   9.064  12.183  0.00  0.00    +0.000 A 
ATOM     21  C   UNL     1      47.640   7.845  12.007  0.00  0.00    +0.000 A 
ATOM     22  C   UNL     1      46.898   6.702  11.708  0.00  0.00    +0.000 A 
ENDBRANCH  15  17
ENDBRANCH  13  15
ENDBRANCH   7  13
TORSDOF 4
ENDMDL
MODEL 3
REMARK VINA RESULT:    -7.502      2.909      5.978
REMARK INTER + INTRA:          -9.897
REMARK INTER:                  -9.249
REMARK INTRA:                  -0.649
REMARK UNBOUND:                -0.641
REMARK  Name = 
REMARK  6 active torsions:
REMARK  status: ('A' for Active; 'I' for Inactive)
REMARK    1  A    between atoms: C_1  and  C_2
REMARK    2  A    between atoms: C_4  and  C_5
REMARK    3  A    between atoms: C_10  and  N_11
REMARK    4  A    between atoms: N_11  and  C_12
REMARK    5  A    between atoms: C_12  and  C_13
REMARK    6  A    between atoms: C_12  and  C_14
REMARK                            x       y       z     vdW  Elec       q    Type
REMARK                         _______ _______ _______ _____ _____    ______ ____
ROOT
ATOM      1  C   UNL     1      42.749   5.291  12.181  0.00  0.00    +0.000 C 
ATOM      2  C   UNL     1      44.137   5.746  11.827  0.00  0.00    +0.000 A 
ATOM      3  C   UNL     1      44.863   6.486  12.789  0.00  0.00    +0.000 A 
ATOM      4  C   UNL     1      46.163   6.941  12.540  0.00  0.00    +0.000 A 
ATOM      5  C   UNL     1      46.746   6.646  11.312  0.00  0.00    +0.000 A 
ATOM      6  C   UNL     1      46.048   5.883  10.367  0.00  0.00    +0.000 A 
ATOM      7  C   UNL     1      44.745   5.405  10.598  0.00  0.00    +0.000 A 
ENDROOT
BRANCH   4   8
ATOM      8  C   UNL     1      46.861   7.718  13.604  0.00  0.00    +0.000 C 
ATOM      9  N   UNL     1      46.433   8.987  13.883  0.00  0.00    +0.000 N 
ATOM     10  O   UNL     1      47.803   7.243  14.231  0.00  0.00    +0.000 OA
ATOM     11  H   UNL     1      45.659   9.454  13.439  0.00  0.00    +0.000 HD
ATOM     12  H   UNL     1      46.930   9.481  14.613  0.00  0.00    +0.000 HD
ENDBRANCH   4   8
BRANCH   7  13
ATOM     13  N   UNL     1      44.037   4.659   9.639  0.00  0.00    +0.000 N 
ATOM     14  H   UNL     1      44.094   5.115   8.732  0.00  0.00    +0.000 HD
BRANCH  13  15
ATOM     15  C   UNL     1      44.236   3.203   9.550  0.00  0.00    +0.000 C 
ATOM     16  C   UNL     1      44.759   2.613  10.867  0.00  0.00    +0.000 C 
BRANCH  15  17
ATOM     17  C   UNL     1      45.212   2.809   8.446  0.00  0.00    +0.000 A 
ATOM     18  C   UNL     1      45.609   3.685   7.425  0.00  0.00    +0.000 A 
ATOM     19  C   UNL     1      46.612   3.319   6.521  0.00  0.00    +0.000 A 
ATOM     20  C   UNL     1      47.232   2.076   6.624  0.00  0.00    +0.000 A 
ATOM     21  C   UNL     1      46.843   1.188   7.621  0.00  0.00    +0.000 A 
ATOM     22  C   UNL     1      45.841   1.550   8.522  0.00  0.00    +0.000 A 
ENDBRANCH  15  17
ENDBRANCH  13  15
ENDBRANCH   7  13
TORSDOF 4
ENDMDL
MODEL 4
REMARK VINA RESULT:    -7.418      1.144      2.174
REMARK INTER + INTRA:          -9.794
REMARK INTER:                  -8.684
REMARK INTRA:                  -1.110
REMARK UNBOUND:                -0.641
REMARK  Name = 
REMARK  6 active torsions:
REMARK  status: ('A' for Active; 'I' for Inactive)
REMARK    1  A    between atoms: C_1  and  C_2
REMARK    2  A    between atoms: C_4  and  C_5
REMARK    3  A    between atoms: C_10  and  N_11
REMARK    4  A    between atoms: N_11  and  C_12
REMARK    5  A    between atoms: C_12  and  C_13
REMARK    6  A    between atoms: C_12  and  C_14
REMARK                            x       y       z     vdW  Elec       q    Type
REMARK                         _______ _______ _______ _____ _____    ______ ____
ROOT
ATOM      1  C   UNL     1      46.141   5.511   8.682  0.00  0.00    +0.000 C 
ATOM      2  C   UNL     1      45.681   4.080   8.732  0.00  0.00    +0.000 A 
ATOM      3  C   UNL     1      46.479   3.100   8.099  0.00  0.00    +0.000 A 
ATOM      4  C   UNL     1      46.124   1.746   8.106  0.00  0.00    +0.000 A 
ATOM      5  C   UNL     1      44.956   1.369   8.761  0.00  0.00    +0.000 A 
ATOM      6  C   UNL     1      44.179   2.328   9.421  0.00  0.00    +0.000 A 
ATOM      7  C   UNL     1      44.520   3.693   9.438  0.00  0.00    +0.000 A 
ENDROOT
BRANCH   4   8
ATOM      8  C   UNL     1      47.016   0.773   7.412  0.00  0.00    +0.000 C 
ATOM      9  N   UNL     1      46.814  -0.565   7.610  0.00  0.00    +0.000 N 
ATOM     10  O   UNL     1      47.920   1.148   6.671  0.00  0.00    +0.000 OA
ATOM     11  H   UNL     1      46.089  -0.969   8.180  0.00  0.00    +0.000 HD
ATOM     12  H   UNL     1      47.438  -1.194   7.120  0.00  0.00    +0.000 HD
ENDBRANCH   4   8
BRANCH   7  13
ATOM     13  N   UNL     1      43.726   4.658  10.083  0.00  0.00    +0.000 N 
ATOM     14  H   UNL     1      42.846   4.774   9.585  0.00  0.00    +0.000 HD
BRANCH  13  15
ATOM     15  C   UNL     1      43.542   4.602  11.541  0.00  0.00    +0.000 C 
ATOM     16  C   UNL     1      42.388   5.499  12.011  0.00  0.00    +0.000 C 
BRANCH  15  17
ATOM     17  C   UNL     1      44.794   5.018  12.309  0.00  0.00    +0.000 A 
ATOM     18  C   UNL     1      45.609   4.107  12.996  0.00  0.00    +0.000 A 
ATOM     19  C   UNL     1      46.819   4.521  13.564  0.00  0.00    +0.000 A 
ATOM     20  C   UNL     1      47.231   5.847  13.453  0.00  0.00    +0.000 A 
ATOM     21  C   UNL     1      46.429   6.768  12.786  0.00  0.00    +0.000 A 
ATOM     22  C   UNL     1      45.221   6.358  12.222  0.00  0.00    +0.000 A 
ENDBRANCH  15  17
ENDBRANCH  13  15
ENDBRANCH   7  13
TORSDOF 4
ENDMDL
MODEL 5
REMARK VINA RESULT:    -6.728      3.004      6.098
REMARK INTER + INTRA:          -8.943
REMARK INTER:                  -9.421
REMARK INTRA:                   0.478
REMARK UNBOUND:                -0.641
REMARK  Name = 
REMARK  6 active torsions:
REMARK  status: ('A' for Active; 'I' for Inactive)
REMARK    1  A    between atoms: C_1  and  C_2
REMARK    2  A    between atoms: C_4  and  C_5
REMARK    3  A    between atoms: C_10  and  N_11
REMARK    4  A    between atoms: N_11  and  C_12
REMARK    5  A    between atoms: C_12  and  C_13
REMARK    6  A    between atoms: C_12  and  C_14
REMARK                            x       y       z     vdW  Elec       q    Type
REMARK                         _______ _______ _______ _____ _____    ______ ____
ROOT
ATOM      1  C   UNL     1      45.946   7.496  11.690  0.00  0.00    +0.000 C 
ATOM      2  C   UNL     1      46.052   6.096  12.228  0.00  0.00    +0.000 A 
ATOM      3  C   UNL     1      46.651   5.911  13.495  0.00  0.00    +0.000 A 
ATOM      4  C   UNL     1      46.782   4.641  14.069  0.00  0.00    +0.000 A 
ATOM      5  C   UNL     1      46.301   3.542  13.366  0.00  0.00    +0.000 A 
ATOM      6  C   UNL     1      45.674   3.719  12.126  0.00  0.00    +0.000 A 
ATOM      7  C   UNL     1      45.520   4.986  11.534  0.00  0.00    +0.000 A 
ENDROOT
BRANCH   4   8
ATOM      8  C   UNL     1      47.429   4.529  15.408  0.00  0.00    +0.000 C 
ATOM      9  N   UNL     1      46.916   3.645  16.317  0.00  0.00    +0.000 N 
ATOM     10  O   UNL     1      48.409   5.207  15.705  0.00  0.00    +0.000 OA
ATOM     11  H   UNL     1      46.132   3.033  16.160  0.00  0.00    +0.000 HD
ATOM     12  H   UNL     1      47.383   3.595  17.213  0.00  0.00    +0.000 HD
ENDBRANCH   4   8
BRANCH   7  13
ATOM     13  N   UNL     1      44.911   5.160  10.279  0.00  0.00    +0.000 N 
ATOM     14  H   UNL     1      45.526   5.687   9.663  0.00  0.00    +0.000 HD
BRANCH  13  15
ATOM     15  C   UNL     1      44.286   4.013   9.601  0.00  0.00    +0.000 C 
ATOM     16  C   UNL     1      43.771   2.967  10.599  0.00  0.00    +0.000 C 
BRANCH  15  17
ATOM     17  C   UNL     1      45.239   3.306   8.641  0.00  0.00    +0.000 A 
ATOM     18  C   UNL     1      46.021   3.988   7.698  0.00  0.00    +0.000 A 
ATOM     19  C   UNL     1      46.980   3.307   6.940  0.00  0.00    +0.000 A 
ATOM     20  C   UNL     1      47.171   1.938   7.113  0.00  0.00    +0.000 A 
ATOM     21  C   UNL     1      46.395   1.242   8.034  0.00  0.00    +0.000 A 
ATOM     22  C   UNL     1      45.437   1.919   8.789  0.00  0.00    +0.000 A 
ENDBRANCH  15  17
ENDBRANCH  13  15
ENDBRANCH   7  13
TORSDOF 4
ENDMDL
MODEL 6
REMARK VINA RESULT:    -6.547      3.522      6.065
REMARK INTER + INTRA:          -8.718
REMARK INTER:                  -8.039
REMARK INTRA:                  -0.680
REMARK UNBOUND:                -0.641
REMARK  Name = 
REMARK  6 active torsions:
REMARK  status: ('A' for Active; 'I' for Inactive)
REMARK    1  A    between atoms: C_1  and  C_2
REMARK    2  A    between atoms: C_4  and  C_5
REMARK    3  A    between atoms: C_10  and  N_11
REMARK    4  A    between atoms: N_11  and  C_12
REMARK    5  A    between atoms: C_12  and  C_13
REMARK    6  A    between atoms: C_12  and  C_14
REMARK                            x       y       z     vdW  Elec       q    Type
REMARK                         _______ _______ _______ _____ _____    ______ ____
ROOT
ATOM      1  C   UNL     1      46.794   4.423  14.679  0.00  0.00    +0.000 C 
ATOM      2  C   UNL     1      47.115   5.505  13.685  0.00  0.00    +0.000 A 
ATOM      3  C   UNL     1      48.196   6.371  13.968  0.00  0.00    +0.000 A 
ATOM      4  C   UNL     1      48.563   7.399  13.091  0.00  0.00    +0.000 A 
ATOM      5  C   UNL     1      47.841   7.557  11.913  0.00  0.00    +0.000 A 
ATOM      6  C   UNL     1      46.793   6.680  11.608  0.00  0.00    +0.000 A 
ATOM      7  C   UNL     1      46.411   5.634  12.467  0.00  0.00    +0.000 A 
ENDROOT
BRANCH   4   8
ATOM      8  C   UNL     1      49.712   8.274  13.462  0.00  0.00    +0.000 C 
ATOM      9  N   UNL     1      50.978   7.877  13.130  0.00  0.00    +0.000 N 
ATOM     10  O   UNL     1      49.544   9.337  14.053  0.00  0.00    +0.000 OA
ATOM     11  H   UNL     1      51.215   7.036  12.630  0.00  0.00    +0.000 HD
ATOM     12  H   UNL     1      51.731   8.498  13.397  0.00  0.00    +0.000 HD
ENDBRANCH   4   8
BRANCH   7  13
ATOM     13  N   UNL     1      45.343   4.768  12.170  0.00  0.00    +0.000 N 
ATOM     14  H   UNL     1      44.771   4.625  12.998  0.00  0.00    +0.000 HD
BRANCH  13  15
ATOM     15  C   UNL     1      44.535   4.989  10.960  0.00  0.00    +0.000 C 
ATOM     16  C   UNL     1      43.050   4.682  11.197  0.00  0.00    +0.000 C 
BRANCH  15  17
ATOM     17  C   UNL     1      45.000   4.144   9.778  0.00  0.00    +0.000 A 
ATOM     18  C   UNL     1      45.687   4.677   8.678  0.00  0.00    +0.000 A 
ATOM     19  C   UNL     1      46.214   3.837   7.691  0.00  0.00    +0.000 A 
ATOM     20  C   UNL     1      46.063   2.456   7.789  0.00  0.00    +0.000 A 
ATOM     21  C   UNL     1      45.373   1.909   8.866  0.00  0.00    +0.000 A 
ATOM     22  C   UNL     1      44.845   2.745   9.850  0.00  0.00    +0.000 A 
ENDBRANCH  15  17
ENDBRANCH  13  15
ENDBRANCH   7  13
TORSDOF 4
ENDMDL
MODEL 7
REMARK VINA RESULT:    -6.439      2.966      5.958
REMARK INTER + INTRA:          -8.586
REMARK INTER:                  -8.608
REMARK INTRA:                   0.022
REMARK UNBOUND:                -0.641
REMARK  Name = 
REMARK  6 active torsions:
REMARK  status: ('A' for Active; 'I' for Inactive)
REMARK    1  A    between atoms: C_1  and  C_2
REMARK    2  A    between atoms: C_4  and  C_5
REMARK    3  A    between atoms: C_10  and  N_11
REMARK    4  A    between atoms: N_11  and  C_12
REMARK    5  A    between atoms: C_12  and  C_13
REMARK    6  A    between atoms: C_12  and  C_14
REMARK                            x       y       z     vdW  Elec       q    Type
REMARK                         _______ _______ _______ _____ _____    ______ ____
ROOT
ATOM      1  C   UNL     1      44.678   7.812  11.371  0.00  0.00    +0.000 C 
ATOM      2  C   UNL     1      45.298   6.681  12.144  0.00  0.00    +0.000 A 
ATOM      3  C   UNL     1      46.448   6.955  12.919  0.00  0.00    +0.000 A 
ATOM      4  C   UNL     1      47.082   5.959  13.672  0.00  0.00    +0.000 A 
ATOM      5  C   UNL     1      46.552   4.674  13.653  0.00  0.00    +0.000 A 
ATOM      6  C   UNL     1      45.392   4.402  12.917  0.00  0.00    +0.000 A 
ATOM      7  C   UNL     1      44.731   5.387  12.161  0.00  0.00    +0.000 A 
ENDROOT
BRANCH   4   8
ATOM      8  C   UNL     1      48.293   6.326  14.461  0.00  0.00    +0.000 C 
ATOM      9  N   UNL     1      48.228   6.287  15.826  0.00  0.00    +0.000 N 
ATOM     10  O   UNL     1      49.340   6.657  13.911  0.00  0.00    +0.000 OA
ATOM     11  H   UNL     1      47.424   6.011  16.366  0.00  0.00    +0.000 HD
ATOM     12  H   UNL     1      49.070   6.541  16.327  0.00  0.00    +0.000 HD
ENDBRANCH   4   8
BRANCH   7  13
ATOM     13  N   UNL     1      43.579   5.107  11.403  0.00  0.00    +0.000 N 
ATOM     14  H   UNL     1      43.392   5.873  10.760  0.00  0.00    +0.000 HD
BRANCH  13  15
ATOM     15  C   UNL     1      43.420   3.789  10.770  0.00  0.00    +0.000 C 
ATOM     16  C   UNL     1      43.402   2.653  11.803  0.00  0.00    +0.000 C 
BRANCH  15  17
ATOM     17  C   UNL     1      44.526   3.481   9.764  0.00  0.00    +0.000 A 
ATOM     18  C   UNL     1      44.931   2.177   9.445  0.00  0.00    +0.000 A 
ATOM     19  C   UNL     1      45.849   1.948   8.415  0.00  0.00    +0.000 A 
ATOM     20  C   UNL     1      46.375   3.015   7.690  0.00  0.00    +0.000 A 
ATOM     21  C   UNL     1      45.995   4.317   8.001  0.00  0.00    +0.000 A 
ATOM     22  C   UNL     1      45.081   4.548   9.029  0.00  0.00    +0.000 A 
ENDBRANCH  15  17
ENDBRANCH  13  15
ENDBRANCH   7  13
TORSDOF 4
ENDMDL
MODEL 8
REMARK VINA RESULT:    -6.014      3.401      5.901
REMARK INTER + INTRA:          -8.061
REMARK INTER:                  -7.378
REMARK INTRA:                  -0.683
REMARK UNBOUND:                -0.641
REMARK  Name = 
REMARK  6 active torsions:
REMARK  status: ('A' for Active; 'I' for Inactive)
REMARK    1  A    between atoms: C_1  and  C_2
REMARK    2  A    between atoms: C_4  and  C_5
REMARK    3  A    between atoms: C_10  and  N_11
REMARK    4  A    between atoms: N_11  and  C_12
REMARK    5  A    between atoms: C_12  and  C_13
REMARK    6  A    between atoms: C_12  and  C_14
REMARK                            x       y       z     vdW  Elec       q    Type
REMARK                         _______ _______ _______ _____ _____    ______ ____
ROOT
ATOM      1  C   UNL     1      44.975   8.920  11.792  0.00  0.00    +0.000 C 
ATOM      2  C   UNL     1      46.079   7.963  12.149  0.00  0.00    +0.000 A 
ATOM      3  C   UNL     1      47.412   8.429  12.085  0.00  0.00    +0.000 A 
ATOM      4  C   UNL     1      48.496   7.603  12.407  0.00  0.00    +0.000 A 
ATOM      5  C   UNL     1      48.239   6.295  12.804  0.00  0.00    +0.000 A 
ATOM      6  C   UNL     1      46.919   5.837  12.905  0.00  0.00    +0.000 A 
ATOM      7  C   UNL     1      45.814   6.650  12.597  0.00  0.00    +0.000 A 
ENDROOT
BRANCH   4   8
ATOM      8  C   UNL     1      49.873   8.166  12.311  0.00  0.00    +0.000 C 
ATOM      9  N   UNL     1      50.842   7.438  11.678  0.00  0.00    +0.000 N 
ATOM     10  O   UNL     1      50.150   9.265  12.784  0.00  0.00    +0.000 OA
ATOM     11  H   UNL     1      50.708   6.540  11.242  0.00  0.00    +0.000 HD
ATOM     12  H   UNL     1      51.763   7.854  11.631  0.00  0.00    +0.000 HD
ENDBRANCH   4   8
BRANCH   7  13
ATOM     13  N   UNL     1      44.490   6.181  12.678  0.00  0.00    +0.000 N 
ATOM     14  H   UNL     1      43.968   6.729  13.357  0.00  0.00    +0.000 HD
BRANCH  13  15
ATOM     15  C   UNL     1      43.724   5.934  11.446  0.00  0.00    +0.000 C 
ATOM     16  C   UNL     1      42.264   5.565  11.742  0.00  0.00    +0.000 C 
BRANCH  15  17
ATOM     17  C   UNL     1      44.321   4.816  10.596  0.00  0.00    +0.000 A 
ATOM     18  C   UNL     1      43.976   3.466  10.754  0.00  0.00    +0.000 A 
ATOM     19  C   UNL     1      44.445   2.500   9.857  0.00  0.00    +0.000 A 
ATOM     20  C   UNL     1      45.263   2.869   8.791  0.00  0.00    +0.000 A 
ATOM     21  C   UNL     1      45.626   4.201   8.625  0.00  0.00    +0.000 A 
ATOM     22  C   UNL     1      45.161   5.165   9.520  0.00  0.00    +0.000 A 
ENDBRANCH  15  17
ENDBRANCH  13  15
ENDBRANCH   7  13
TORSDOF 4
ENDMDL
MODEL 9
REMARK VINA RESULT:    -6.013      3.189      5.378
REMARK INTER + INTRA:          -8.060
REMARK INTER:                  -7.307
REMARK INTRA:                  -0.753
REMARK UNBOUND:                -0.641
REMARK  Name = 
REMARK  6 active torsions:
REMARK  status: ('A' for Active; 'I' for Inactive)
REMARK    1  A    between atoms: C_1  and  C_2
REMARK    2  A    between atoms: C_4  and  C_5
REMARK    3  A    between atoms: C_10  and  N_11
REMARK    4  A    between atoms: N_11  and  C_12
REMARK    5  A    between atoms: C_12  and  C_13
REMARK    6  A    between atoms: C_12  and  C_14
REMARK                            x       y       z     vdW  Elec       q    Type
REMARK                         _______ _______ _______ _____ _____    ______ ____
ROOT
ATOM      1  C   UNL     1      47.011   4.376  14.740  0.00  0.00    +0.000 C 
ATOM      2  C   UNL     1      46.377   4.742  13.426  0.00  0.00    +0.000 A 
ATOM      3  C   UNL     1      45.604   3.761  12.762  0.00  0.00    +0.000 A 
ATOM      4  C   UNL     1      44.976   4.024  11.539  0.00  0.00    +0.000 A 
ATOM      5  C   UNL     1      45.119   5.288  10.977  0.00  0.00    +0.000 A 
ATOM      6  C   UNL     1      45.853   6.276  11.646  0.00  0.00    +0.000 A 
ATOM      7  C   UNL     1      46.484   6.040  12.880  0.00  0.00    +0.000 A 
ENDROOT
BRANCH   4   8
ATOM      8  C   UNL     1      44.181   2.937  10.899  0.00  0.00    +0.000 C 
ATOM      9  N   UNL     1      44.723   2.258   9.843  0.00  0.00    +0.000 N 
ATOM     10  O   UNL     1      43.060   2.640  11.303  0.00  0.00    +0.000 OA
ATOM     11  H   UNL     1      45.639   2.413   9.455  0.00  0.00    +0.000 HD
ATOM     12  H   UNL     1      44.154   1.525   9.437  0.00  0.00    +0.000 HD
ENDBRANCH   4   8
BRANCH   7  13
ATOM     13  N   UNL     1      47.240   7.027  13.539  0.00  0.00    +0.000 N 
ATOM     14  H   UNL     1      47.120   6.942  14.546  0.00  0.00    +0.000 HD
BRANCH  13  15
ATOM     15  C   UNL     1      48.643   7.253  13.158  0.00  0.00    +0.000 C 
ATOM     16  C   UNL     1      49.558   7.383  14.383  0.00  0.00    +0.000 C 
BRANCH  15  17
ATOM     17  C   UNL     1      48.826   8.508  12.308  0.00  0.00    +0.000 A 
ATOM     18  C   UNL     1      47.814   9.458  12.117  0.00  0.00    +0.000 A 
ATOM     19  C   UNL     1      48.079  10.657  11.446  0.00  0.00    +0.000 A 
ATOM     20  C   UNL     1      49.356  10.923  10.958  0.00  0.00    +0.000 A 
ATOM     21  C   UNL     1      50.371   9.986  11.127  0.00  0.00    +0.000 A 
ATOM     22  C   UNL     1      50.108   8.789  11.793  0.00  0.00    +0.000 A 
ENDBRANCH  15  17
ENDBRANCH  13  15
ENDBRANCH   7  13
TORSDOF 4
ENDMDL
