MODEL 1
REMARK VINA RESULT:    -8.682      0.000      0.000
REMARK INTER + INTRA:         -11.367
REMARK INTER:                 -10.712
REMARK INTRA:                  -0.655
REMARK UNBOUND:                -0.655
REMARK  Name = 
REMARK  4 active torsions:
REMARK  status: ('A' for Active; 'I' for Inactive)
REMARK    1  A    between atoms: C_2  and  C_4
REMARK    2  A    between atoms: N_8  and  C_9
REMARK    3  A    between atoms: C_9  and  C_10
REMARK    4  A    between atoms: C_14  and  C_15
REMARK                            x       y       z     vdW  Elec       q    Type
REMARK                         _______ _______ _______ _____ _____    ______ ____
ROOT
ATOM      1  C   UNL     1      43.520   4.505  11.046  0.00  0.00    +0.000 C 
ENDROOT
BRANCH   1   6
ATOM      2  C   UNL     1      46.591   2.616   7.347  0.00  0.00    +0.000 A 
ATOM      3  C   UNL     1      46.251   3.928   7.653  0.00  0.00    +0.000 A 
ATOM      4  C   UNL     1      45.402   4.175   8.731  0.00  0.00    +0.000 A 
ATOM      5  C   UNL     1      44.898   3.114   9.476  0.00  0.00    +0.000 A 
ATOM      6  N   UNL     1      44.084   3.268  10.562  0.00  0.00    +0.000 N 
ATOM      7  N   UNL     1      45.191   1.837   9.161  0.00  0.00    +0.000 NA
ATOM      8  C   UNL     1      46.021   1.610   8.109  0.00  0.00    +0.000 A 
ATOM      9  H   UNL     1      43.727   2.393  10.926  0.00  0.00    +0.000 HD
BRANCH   2  11
ATOM     10  N   UNL     1      47.496   3.065   5.142  0.00  0.00    +0.000 N 
ATOM     11  C   UNL     1      47.515   2.264   6.250  0.00  0.00    +0.000 C 
ATOM     12  O   UNL     1      48.292   1.324   6.341  0.00  0.00    +0.000 OA
ATOM     13  H   UNL     1      48.203   2.881   4.440  0.00  0.00    +0.000 HD
ATOM     14  H   UNL     1      47.065   3.979   5.134  0.00  0.00    +0.000 HD
ENDBRANCH   2  11
ENDBRANCH   1   6
BRANCH   1  15
ATOM     15  C   UNL     1      44.518   5.441  11.698  0.00  0.00    +0.000 A 
ATOM     16  C   UNL     1      44.549   6.779  11.279  0.00  0.00    +0.000 A 
ATOM     17  C   UNL     1      45.428   7.686  11.867  0.00  0.00    +0.000 A 
ATOM     18  C   UNL     1      46.282   7.270  12.891  0.00  0.00    +0.000 A 
ATOM     19  C   UNL     1      46.278   5.942  13.350  0.00  0.00    +0.000 A 
ATOM     20  C   UNL     1      45.401   5.042  12.717  0.00  0.00    +0.000 A 
BRANCH  19  21
ATOM     21  C   UNL     1      47.126   5.509  14.480  0.00  0.00    +0.000 A 
ATOM     22  C   UNL     1      48.235   6.256  14.900  0.00  0.00    +0.000 A 
ATOM     23  N   UNL     1      49.045   5.943  15.945  0.00  0.00    +0.000 NA
ATOM     24  C   UNL     1      48.730   4.821  16.628  0.00  0.00    +0.000 A 
ATOM     25  C   UNL     1      47.658   4.012  16.306  0.00  0.00    +0.000 A 
ATOM     26  F   UNL     1      47.392   2.915  17.026  0.00  0.00    +0.000 F 
ATOM     27  C   UNL     1      46.853   4.351  15.225  0.00  0.00    +0.000 A 
ENDBRANCH  19  21
ENDBRANCH   1  15
TORSDOF 4
ENDMDL
MODEL 2
REMARK VINA RESULT:    -8.031      2.886      4.095
REMARK INTER + INTRA:         -10.564
REMARK INTER:                  -9.958
REMARK INTRA:                  -0.606
REMARK UNBOUND:                -0.655
REMARK  Name = 
REMARK  4 active torsions:
REMARK  status: ('A' for Active; 'I' for Inactive)
REMARK    1  A    between atoms: C_2  and  C_4
REMARK    2  A    between atoms: N_8  and  C_9
REMARK    3  A    between atoms: C_9  and  C_10
REMARK    4  A    between atoms: C_14  and  C_15
REMARK                            x       y       z     vdW  Elec       q    Type
REMARK                         _______ _______ _______ _____ _____    ______ ____
ROOT
ATOM      1  C   UNL     1      43.311   4.586  11.228  0.00  0.00    +0.000 C 
ENDROOT
BRANCH   1   6
ATOM      2  C   UNL     1      46.320   2.545   7.559  0.00  0.00    +0.000 A 
ATOM      3  C   UNL     1      46.141   3.869   7.945  0.00  0.00    +0.000 A 
ATOM      4  C   UNL     1      45.268   4.157   8.994  0.00  0.00    +0.000 A 
ATOM      5  C   UNL     1      44.584   3.128   9.631  0.00  0.00    +0.000 A 
ATOM      6  N   UNL     1      43.733   3.319  10.683  0.00  0.00    +0.000 N 
ATOM      7  N   UNL     1      44.723   1.847   9.237  0.00  0.00    +0.000 NA
ATOM      8  C   UNL     1      45.577   1.579   8.214  0.00  0.00    +0.000 A 
ATOM      9  H   UNL     1      43.242   2.478  10.962  0.00  0.00    +0.000 HD
BRANCH   2  11
ATOM     10  N   UNL     1      47.593   3.101   5.570  0.00  0.00    +0.000 N 
ATOM     11  C   UNL     1      47.254   2.144   6.488  0.00  0.00    +0.000 C 
ATOM     12  O   UNL     1      47.736   1.022   6.442  0.00  0.00    +0.000 OA
ATOM     13  H   UNL     1      48.312   2.850   4.902  0.00  0.00    +0.000 HD
ATOM     14  H   UNL     1      47.424   4.085   5.718  0.00  0.00    +0.000 HD
ENDBRANCH   2  11
ENDBRANCH   1   6
BRANCH   1  15
ATOM     15  C   UNL     1      44.388   5.340  11.981  0.00  0.00    +0.000 A 
ATOM     16  C   UNL     1      45.205   4.625  12.869  0.00  0.00    +0.000 A 
ATOM     17  C   UNL     1      46.229   5.266  13.564  0.00  0.00    +0.000 A 
ATOM     18  C   UNL     1      46.457   6.630  13.373  0.00  0.00    +0.000 A 
ATOM     19  C   UNL     1      45.671   7.384  12.486  0.00  0.00    +0.000 A 
ATOM     20  C   UNL     1      44.626   6.717  11.820  0.00  0.00    +0.000 A 
BRANCH  19  21
ATOM     21  C   UNL     1      45.950   8.812  12.223  0.00  0.00    +0.000 A 
ATOM     22  C   UNL     1      44.921   9.753  12.091  0.00  0.00    +0.000 A 
ATOM     23  N   UNL     1      45.094  11.084  11.878  0.00  0.00    +0.000 NA
ATOM     24  C   UNL     1      46.372  11.514  11.802  0.00  0.00    +0.000 A 
ATOM     25  C   UNL     1      47.463  10.676  11.923  0.00  0.00    +0.000 A 
ATOM     26  F   UNL     1      48.708  11.164  11.846  0.00  0.00    +0.000 F 
ATOM     27  C   UNL     1      47.256   9.318  12.129  0.00  0.00    +0.000 A 
ENDBRANCH  19  21
ENDBRANCH   1  15
TORSDOF 4
ENDMDL
MODEL 3
REMARK VINA RESULT:    -7.766      3.765      7.082
REMARK INTER + INTRA:         -10.237
REMARK INTER:                  -9.504
REMARK INTRA:                  -0.733
REMARK UNBOUND:                -0.655
REMARK  Name = 
REMARK  4 active torsions:
REMARK  status: ('A' for Active; 'I' for Inactive)
REMARK    1  A    between atoms: C_2  and  C_4
REMARK    2  A    between atoms: N_8  and  C_9
REMARK    3  A    between atoms: C_9  and  C_10
REMARK    4  A    between atoms: C_14  and  C_15
REMARK                            x       y       z     vdW  Elec       q    Type
REMARK                         _______ _______ _______ _____ _____    ______ ____
ROOT
ATOM      1  C   UNL     1      44.793   6.214  12.881  0.00  0.00    +0.000 C 
ENDROOT
BRANCH   1   6
ATOM      2  C   UNL     1      49.708   7.662  12.231  0.00  0.00    +0.000 A 
ATOM      3  C   UNL     1      48.609   7.799  11.390  0.00  0.00    +0.000 A 
ATOM      4  C   UNL     1      47.367   7.331  11.817  0.00  0.00    +0.000 A 
ATOM      5  C   UNL     1      47.242   6.727  13.064  0.00  0.00    +0.000 A 
ATOM      6  N   UNL     1      46.060   6.267  13.569  0.00  0.00    +0.000 N 
ATOM      7  N   UNL     1      48.311   6.556  13.867  0.00  0.00    +0.000 NA
ATOM      8  C   UNL     1      49.516   7.017  13.440  0.00  0.00    +0.000 A 
ATOM      9  H   UNL     1      46.163   5.766  14.443  0.00  0.00    +0.000 HD
BRANCH   2  11
ATOM     10  N   UNL     1      51.786   7.412  11.004  0.00  0.00    +0.000 N 
ATOM     11  C   UNL     1      51.052   8.164  11.879  0.00  0.00    +0.000 C 
ATOM     12  O   UNL     1      51.477   9.224  12.316  0.00  0.00    +0.000 OA
ATOM     13  H   UNL     1      52.660   7.813  10.687  0.00  0.00    +0.000 HD
ATOM     14  H   UNL     1      51.380   6.683  10.434  0.00  0.00    +0.000 HD
ENDBRANCH   2  11
ENDBRANCH   1   6
BRANCH   1  15
ATOM     15  C   UNL     1      44.539   4.928  12.123  0.00  0.00    +0.000 A 
ATOM     16  C   UNL     1      43.584   4.033  12.627  0.00  0.00    +0.000 A 
ATOM     17  C   UNL     1      43.294   2.850  11.952  0.00  0.00    +0.000 A 
ATOM     18  C   UNL     1      43.948   2.548  10.756  0.00  0.00    +0.000 A 
ATOM     19  C   UNL     1      44.905   3.418  10.208  0.00  0.00    +0.000 A 
ATOM     20  C   UNL     1      45.199   4.592  10.926  0.00  0.00    +0.000 A 
BRANCH  19  21
ATOM     21  C   UNL     1      45.550   3.143   8.906  0.00  0.00    +0.000 A 
ATOM     22  C   UNL     1      45.868   4.170   8.008  0.00  0.00    +0.000 A 
ATOM     23  N   UNL     1      46.486   4.004   6.809  0.00  0.00    +0.000 NA
ATOM     24  C   UNL     1      46.822   2.737   6.482  0.00  0.00    +0.000 A 
ATOM     25  C   UNL     1      46.562   1.650   7.294  0.00  0.00    +0.000 A 
ATOM     26  F   UNL     1      46.927   0.417   6.918  0.00  0.00    +0.000 F 
ATOM     27  C   UNL     1      45.920   1.849   8.509  0.00  0.00    +0.000 A 
ENDBRANCH  19  21
ENDBRANCH   1  15
TORSDOF 4
ENDMDL
MODEL 4
REMARK VINA RESULT:    -7.506      3.856      8.192
REMARK INTER + INTRA:          -9.916
REMARK INTER:                  -9.475
REMARK INTRA:                  -0.441
REMARK UNBOUND:                -0.655
REMARK  Name = 
REMARK  4 active torsions:
REMARK  status: ('A' for Active; 'I' for Inactive)
REMARK    1  A    between atoms: C_2  and  C_4
REMARK    2  A    between atoms: N_8  and  C_9
REMARK    3  A    between atoms: C_9  and  C_10
REMARK    4  A    between atoms: C_14  and  C_15
REMARK                            x       y       z     vdW  Elec       q    Type
REMARK                         _______ _______ _______ _____ _____    ______ ____
ROOT
ATOM      1  C   UNL     1      45.950   5.332  13.943  0.00  0.00    +0.000 C 
ENDROOT
BRANCH   1   6
ATOM      2  C   UNL     1      49.496   4.158  17.510  0.00  0.00    +0.000 A 
ATOM      3  C   UNL     1      49.130   5.387  16.973  0.00  0.00    +0.000 A 
ATOM      4  C   UNL     1      48.114   5.435  16.019  0.00  0.00    +0.000 A 
ATOM      5  C   UNL     1      47.488   4.261  15.611  0.00  0.00    +0.000 A 
ATOM      6  N   UNL     1      46.468   4.222  14.704  0.00  0.00    +0.000 N 
ATOM      7  N   UNL     1      47.865   3.063  16.098  0.00  0.00    +0.000 NA
ATOM      8  C   UNL     1      48.856   3.030  17.028  0.00  0.00    +0.000 A 
ATOM      9  H   UNL     1      46.196   3.281  14.444  0.00  0.00    +0.000 HD
BRANCH   2  11
ATOM     10  N   UNL     1      51.472   3.041  18.366  0.00  0.00    +0.000 N 
ATOM     11  C   UNL     1      50.532   4.017  18.553  0.00  0.00    +0.000 C 
ATOM     12  O   UNL     1      50.576   4.764  19.521  0.00  0.00    +0.000 OA
ATOM     13  H   UNL     1      52.238   3.019  19.030  0.00  0.00    +0.000 HD
ATOM     14  H   UNL     1      51.620   2.586  17.477  0.00  0.00    +0.000 HD
ENDBRANCH   2  11
ENDBRANCH   1   6
BRANCH   1  15
ATOM     15  C   UNL     1      45.078   4.939  12.768  0.00  0.00    +0.000 A 
ATOM     16  C   UNL     1      43.706   5.222  12.831  0.00  0.00    +0.000 A 
ATOM     17  C   UNL     1      42.866   4.907  11.765  0.00  0.00    +0.000 A 
ATOM     18  C   UNL     1      43.389   4.314  10.615  0.00  0.00    +0.000 A 
ATOM     19  C   UNL     1      44.758   4.021  10.502  0.00  0.00    +0.000 A 
ATOM     20  C   UNL     1      45.577   4.324  11.605  0.00  0.00    +0.000 A 
BRANCH  19  21
ATOM     21  C   UNL     1      45.333   3.459   9.261  0.00  0.00    +0.000 A 
ATOM     22  C   UNL     1      45.682   4.273   8.175  0.00  0.00    +0.000 A 
ATOM     23  N   UNL     1      46.239   3.839   7.014  0.00  0.00    +0.000 NA
ATOM     24  C   UNL     1      46.479   2.513   6.927  0.00  0.00    +0.000 A 
ATOM     25  C   UNL     1      46.181   1.620   7.937  0.00  0.00    +0.000 A 
ATOM     26  F   UNL     1      46.450   0.316   7.795  0.00  0.00    +0.000 F 
ATOM     27  C   UNL     1      45.601   2.091   9.109  0.00  0.00    +0.000 A 
ENDBRANCH  19  21
ENDBRANCH   1  15
TORSDOF 4
ENDMDL
MODEL 5
REMARK VINA RESULT:    -7.195      3.189      7.278
REMARK INTER + INTRA:          -9.533
REMARK INTER:                  -9.816
REMARK INTRA:                   0.283
REMARK UNBOUND:                -0.655
REMARK  Name = 
REMARK  4 active torsions:
REMARK  status: ('A' for Active; 'I' for Inactive)
REMARK    1  A    between atoms: C_2  and  C_4
REMARK    2  A    between atoms: N_8  and  C_9
REMARK    3  A    between atoms: C_9  and  C_10
REMARK    4  A    between atoms: C_14  and  C_15
REMARK                            x       y       z     vdW  Elec       q    Type
REMARK                         _______ _______ _______ _____ _____    ______ ____
ROOT
ATOM      1  C   UNL     1      45.743   7.678  11.693  0.00  0.00    +0.000 C 
ENDROOT
BRANCH   1   6
ATOM      2  C   UNL     1      47.385   4.340  15.277  0.00  0.00    +0.000 A 
ATOM      3  C   UNL     1      46.255   4.311  14.467  0.00  0.00    +0.000 A 
ATOM      4  C   UNL     1      46.048   5.344  13.554  0.00  0.00    +0.000 A 
ATOM      5  C   UNL     1      46.960   6.390  13.470  0.00  0.00    +0.000 A 
ATOM      6  N   UNL     1      46.848   7.425  12.586  0.00  0.00    +0.000 N 
ATOM      7  N   UNL     1      48.037   6.446  14.278  0.00  0.00    +0.000 NA
ATOM      8  C   UNL     1      48.228   5.432  15.163  0.00  0.00    +0.000 A 
ATOM      9  H   UNL     1      47.540   8.151  12.726  0.00  0.00    +0.000 HD
BRANCH   2  11
ATOM     10  N   UNL     1      46.911   3.177  17.352  0.00  0.00    +0.000 N 
ATOM     11  C   UNL     1      47.706   3.270  16.242  0.00  0.00    +0.000 C 
ATOM     12  O   UNL     1      48.613   2.475  16.043  0.00  0.00    +0.000 OA
ATOM     13  H   UNL     1      47.070   2.379  17.956  0.00  0.00    +0.000 HD
ATOM     14  H   UNL     1      46.016   3.639  17.425  0.00  0.00    +0.000 HD
ENDBRANCH   2  11
ENDBRANCH   1   6
BRANCH   1  15
ATOM     15  C   UNL     1      45.068   6.433  11.156  0.00  0.00    +0.000 A 
ATOM     16  C   UNL     1      43.753   6.160  11.561  0.00  0.00    +0.000 A 
ATOM     17  C   UNL     1      43.078   5.043  11.074  0.00  0.00    +0.000 A 
ATOM     18  C   UNL     1      43.704   4.188  10.165  0.00  0.00    +0.000 A 
ATOM     19  C   UNL     1      45.016   4.427   9.723  0.00  0.00    +0.000 A 
ATOM     20  C   UNL     1      45.684   5.546  10.255  0.00  0.00    +0.000 A 
BRANCH  19  21
ATOM     21  C   UNL     1      45.662   3.569   8.707  0.00  0.00    +0.000 A 
ATOM     22  C   UNL     1      46.320   4.110   7.595  0.00  0.00    +0.000 A 
ATOM     23  N   UNL     1      46.961   3.393   6.635  0.00  0.00    +0.000 NA
ATOM     24  C   UNL     1      46.962   2.052   6.792  0.00  0.00    +0.000 A 
ATOM     25  C   UNL     1      46.350   1.412   7.853  0.00  0.00    +0.000 A 
ATOM     26  F   UNL     1      46.390   0.078   7.959  0.00  0.00    +0.000 F 
ATOM     27  C   UNL     1      45.692   2.170   8.814  0.00  0.00    +0.000 A 
ENDBRANCH  19  21
ENDBRANCH   1  15
TORSDOF 4
ENDMDL
MODEL 6
REMARK VINA RESULT:    -6.906      3.631      7.755
REMARK INTER + INTRA:          -9.176
REMARK INTER:                  -9.188
REMARK INTRA:                   0.012
REMARK UNBOUND:                -0.655
REMARK  Name = 
REMARK  4 active torsions:
REMARK  status: ('A' for Active; 'I' for Inactive)
REMARK    1  A    between atoms: C_2  and  C_4
REMARK    2  A    between atoms: N_8  and  C_9
REMARK    3  A    between atoms: C_9  and  C_10
REMARK    4  A    between atoms: C_14  and  C_15
REMARK                            x       y       z     vdW  Elec       q    Type
REMARK                         _______ _______ _______ _____ _____    ______ ____
ROOT
ATOM      1  C   UNL     1      48.915   7.900  12.749  0.00  0.00    +0.000 C 
ENDROOT
BRANCH   1   6
ATOM      2  C   UNL     1      47.762   4.747  16.674  0.00  0.00    +0.000 A 
ATOM      3  C   UNL     1      47.445   4.658  15.323  0.00  0.00    +0.000 A 
ATOM      4  C   UNL     1      47.900   5.649  14.454  0.00  0.00    +0.000 A 
ATOM      5  C   UNL     1      48.649   6.713  14.944  0.00  0.00    +0.000 A 
ATOM      6  N   UNL     1      49.155   7.709  14.159  0.00  0.00    +0.000 N 
ATOM      7  N   UNL     1      48.926   6.826  16.258  0.00  0.00    +0.000 NA
ATOM      8  C   UNL     1      48.479   5.853  17.094  0.00  0.00    +0.000 A 
ATOM      9  H   UNL     1      49.589   8.457  14.687  0.00  0.00    +0.000 HD
BRANCH   2  11
ATOM     10  N   UNL     1      47.986   3.750  18.875  0.00  0.00    +0.000 N 
ATOM     11  C   UNL     1      47.359   3.723  17.659  0.00  0.00    +0.000 C 
ATOM     12  O   UNL     1      46.475   2.912  17.419  0.00  0.00    +0.000 OA
ATOM     13  H   UNL     1      47.632   3.115  19.580  0.00  0.00    +0.000 HD
ATOM     14  H   UNL     1      48.522   4.544  19.197  0.00  0.00    +0.000 HD
ENDBRANCH   2  11
ENDBRANCH   1   6
BRANCH   1  15
ATOM     15  C   UNL     1      47.481   7.670  12.317  0.00  0.00    +0.000 A 
ATOM     16  C   UNL     1      46.539   8.678  12.566  0.00  0.00    +0.000 A 
ATOM     17  C   UNL     1      45.214   8.527  12.163  0.00  0.00    +0.000 A 
ATOM     18  C   UNL     1      44.814   7.369  11.495  0.00  0.00    +0.000 A 
ATOM     19  C   UNL     1      45.725   6.337  11.214  0.00  0.00    +0.000 A 
ATOM     20  C   UNL     1      47.049   6.504  11.659  0.00  0.00    +0.000 A 
BRANCH  19  21
ATOM     21  C   UNL     1      45.328   5.139  10.444  0.00  0.00    +0.000 A 
ATOM     22  C   UNL     1      44.572   4.109  11.019  0.00  0.00    +0.000 A 
ATOM     23  N   UNL     1      44.144   2.992  10.374  0.00  0.00    +0.000 NA
ATOM     24  C   UNL     1      44.474   2.894   9.068  0.00  0.00    +0.000 A 
ATOM     25  C   UNL     1      45.210   3.852   8.398  0.00  0.00    +0.000 A 
ATOM     26  F   UNL     1      45.501   3.702   7.100  0.00  0.00    +0.000 F 
ATOM     27  C   UNL     1      45.645   4.978   9.087  0.00  0.00    +0.000 A 
ENDBRANCH  19  21
ENDBRANCH   1  15
TORSDOF 4
ENDMDL
MODEL 7
REMARK VINA RESULT:    -6.886      4.188      8.694
REMARK INTER + INTRA:          -9.151
REMARK INTER:                  -8.674
REMARK INTRA:                  -0.477
REMARK UNBOUND:                -0.655
REMARK  Name = 
REMARK  4 active torsions:
REMARK  status: ('A' for Active; 'I' for Inactive)
REMARK    1  A    between atoms: C_2  and  C_4
REMARK    2  A    between atoms: N_8  and  C_9
REMARK    3  A    between atoms: C_9  and  C_10
REMARK    4  A    between atoms: C_14  and  C_15
REMARK                            x       y       z     vdW  Elec       q    Type
REMARK                         _______ _______ _______ _____ _____    ______ ____
ROOT
ATOM      1  C   UNL     1      47.910   7.052  14.060  0.00  0.00    +0.000 C 
ENDROOT
BRANCH   1   6
ATOM      2  C   UNL     1      49.034   5.271  18.777  0.00  0.00    +0.000 A 
ATOM      3  C   UNL     1      48.947   6.575  18.302  0.00  0.00    +0.000 A 
ATOM      4  C   UNL     1      48.604   6.790  16.968  0.00  0.00    +0.000 A 
ATOM      5  C   UNL     1      48.364   5.706  16.129  0.00  0.00    +0.000 A 
ATOM      6  N   UNL     1      47.997   5.828  14.819  0.00  0.00    +0.000 N 
ATOM      7  N   UNL     1      48.485   4.439  16.572  0.00  0.00    +0.000 NA
ATOM      8  C   UNL     1      48.819   4.243  17.874  0.00  0.00    +0.000 A 
ATOM      9  H   UNL     1      47.962   4.943  14.327  0.00  0.00    +0.000 HD
BRANCH   2  11
ATOM     10  N   UNL     1      48.638   3.938  20.765  0.00  0.00    +0.000 N 
ATOM     11  C   UNL     1      49.351   4.950  20.183  0.00  0.00    +0.000 C 
ATOM     12  O   UNL     1      50.238   5.533  20.791  0.00  0.00    +0.000 OA
ATOM     13  H   UNL     1      48.931   3.655  21.692  0.00  0.00    +0.000 HD
ATOM     14  H   UNL     1      48.091   3.277  20.232  0.00  0.00    +0.000 HD
ENDBRANCH   2  11
ENDBRANCH   1   6
BRANCH   1  15
ATOM     15  C   UNL     1      46.789   7.084  13.042  0.00  0.00    +0.000 A 
ATOM     16  C   UNL     1      46.091   8.286  12.855  0.00  0.00    +0.000 A 
ATOM     17  C   UNL     1      45.071   8.375  11.911  0.00  0.00    +0.000 A 
ATOM     18  C   UNL     1      44.740   7.266  11.130  0.00  0.00    +0.000 A 
ATOM     19  C   UNL     1      45.419   6.044  11.275  0.00  0.00    +0.000 A 
ATOM     20  C   UNL     1      46.424   5.975  12.256  0.00  0.00    +0.000 A 
BRANCH  19  21
ATOM     21  C   UNL     1      45.126   4.886  10.404  0.00  0.00    +0.000 A 
ATOM     22  C   UNL     1      44.366   3.797  10.855  0.00  0.00    +0.000 A 
ATOM     23  N   UNL     1      44.030   2.711  10.111  0.00  0.00    +0.000 NA
ATOM     24  C   UNL     1      44.462   2.707   8.832  0.00  0.00    +0.000 A 
ATOM     25  C   UNL     1      45.212   3.728   8.281  0.00  0.00    +0.000 A 
ATOM     26  F   UNL     1      45.606   3.671   7.003  0.00  0.00    +0.000 F 
ATOM     27  C   UNL     1      45.551   4.822   9.069  0.00  0.00    +0.000 A 
ENDBRANCH  19  21
ENDBRANCH   1  15
TORSDOF 4
ENDMDL
MODEL 8
REMARK VINA RESULT:    -6.880      4.179      8.465
REMARK INTER + INTRA:          -9.144
REMARK INTER:                  -8.487
REMARK INTRA:                  -0.657
REMARK UNBOUND:                -0.655
REMARK  Name = 
REMARK  4 active torsions:
REMARK  status: ('A' for Active; 'I' for Inactive)
REMARK    1  A    between atoms: C_2  and  C_4
REMARK    2  A    between atoms: N_8  and  C_9
REMARK    3  A    between atoms: C_9  and  C_10
REMARK    4  A    between atoms: C_14  and  C_15
REMARK                            x       y       z     vdW  Elec       q    Type
REMARK                         _______ _______ _______ _____ _____    ______ ____
ROOT
ATOM      1  C   UNL     1      47.630   4.045  16.889  0.00  0.00    +0.000 C 
ENDROOT
BRANCH   1   6
ATOM      2  C   UNL     1      52.377   2.280  17.908  0.00  0.00    +0.000 A 
ATOM      3  C   UNL     1      51.798   3.516  18.173  0.00  0.00    +0.000 A 
ATOM      4  C   UNL     1      50.471   3.737  17.804  0.00  0.00    +0.000 A 
ATOM      5  C   UNL     1      49.749   2.731  17.171  0.00  0.00    +0.000 A 
ATOM      6  N   UNL     1      48.440   2.854  16.802  0.00  0.00    +0.000 N 
ATOM      7  N   UNL     1      50.316   1.544  16.876  0.00  0.00    +0.000 NA
ATOM      8  C   UNL     1      51.609   1.341  17.241  0.00  0.00    +0.000 A 
ATOM      9  H   UNL     1      48.098   2.067  16.264  0.00  0.00    +0.000 HD
BRANCH   2  11
ATOM     10  N   UNL     1      54.090   2.105  19.617  0.00  0.00    +0.000 N 
ATOM     11  C   UNL     1      53.760   1.944  18.299  0.00  0.00    +0.000 C 
ATOM     12  O   UNL     1      54.567   1.503  17.493  0.00  0.00    +0.000 OA
ATOM     13  H   UNL     1      55.006   1.775  19.897  0.00  0.00    +0.000 HD
ATOM     14  H   UNL     1      53.398   2.218  20.344  0.00  0.00    +0.000 HD
ENDBRANCH   2  11
ENDBRANCH   1   6
BRANCH   1  15
ATOM     15  C   UNL     1      47.500   4.814  15.591  0.00  0.00    +0.000 A 
ATOM     16  C   UNL     1      48.337   5.921  15.384  0.00  0.00    +0.000 A 
ATOM     17  C   UNL     1      48.276   6.644  14.196  0.00  0.00    +0.000 A 
ATOM     18  C   UNL     1      47.384   6.266  13.190  0.00  0.00    +0.000 A 
ATOM     19  C   UNL     1      46.534   5.159  13.348  0.00  0.00    +0.000 A 
ATOM     20  C   UNL     1      46.596   4.464  14.571  0.00  0.00    +0.000 A 
BRANCH  19  21
ATOM     21  C   UNL     1      45.637   4.707  12.263  0.00  0.00    +0.000 A 
ATOM     22  C   UNL     1      45.631   5.325  11.006  0.00  0.00    +0.000 A 
ATOM     23  N   UNL     1      44.861   4.953   9.950  0.00  0.00    +0.000 NA
ATOM     24  C   UNL     1      44.052   3.890  10.147  0.00  0.00    +0.000 A 
ATOM     25  C   UNL     1      43.981   3.202  11.343  0.00  0.00    +0.000 A 
ATOM     26  F   UNL     1      43.164   2.150  11.476  0.00  0.00    +0.000 F 
ATOM     27  C   UNL     1      44.772   3.612  12.409  0.00  0.00    +0.000 A 
ENDBRANCH  19  21
ENDBRANCH   1  15
TORSDOF 4
ENDMDL
MODEL 9
REMARK VINA RESULT:    -6.526      2.634      4.432
REMARK INTER + INTRA:          -8.707
REMARK INTER:                  -7.963
REMARK INTRA:                  -0.743
REMARK UNBOUND:                -0.655
REMARK  Name = 
REMARK  4 active torsions:
REMARK  status: ('A' for Active; 'I' for Inactive)
REMARK    1  A    between atoms: C_2  and  C_4
REMARK    2  A    between atoms: N_8  and  C_9
REMARK    3  A    between atoms: C_9  and  C_10
REMARK    4  A    between atoms: C_14  and  C_15
REMARK                            x       y       z     vdW  Elec       q    Type
REMARK                         _______ _______ _______ _____ _____    ______ ____
ROOT
ATOM      1  C   UNL     1      46.952   8.731  13.273  0.00  0.00    +0.000 C 
ENDROOT
BRANCH   1   6
ATOM      2  C   UNL     1      44.643   4.980  10.574  0.00  0.00    +0.000 A 
ATOM      3  C   UNL     1      45.861   5.619  10.370  0.00  0.00    +0.000 A 
ATOM      4  C   UNL     1      46.269   6.604  11.269  0.00  0.00    +0.000 A 
ATOM      5  C   UNL     1      45.456   6.941  12.347  0.00  0.00    +0.000 A 
ATOM      6  N   UNL     1      45.792   7.872  13.287  0.00  0.00    +0.000 N 
ATOM      7  N   UNL     1      44.257   6.354  12.528  0.00  0.00    +0.000 NA
ATOM      8  C   UNL     1      43.872   5.395  11.646  0.00  0.00    +0.000 A 
ATOM      9  H   UNL     1      45.046   8.069  13.944  0.00  0.00    +0.000 HD
BRANCH   2  11
ATOM     10  N   UNL     1      44.160   4.139   8.351  0.00  0.00    +0.000 N 
ATOM     11  C   UNL     1      44.151   3.899   9.698  0.00  0.00    +0.000 C 
ATOM     12  O   UNL     1      43.789   2.821  10.147  0.00  0.00    +0.000 OA
ATOM     13  H   UNL     1      43.920   3.358   7.751  0.00  0.00    +0.000 HD
ATOM     14  H   UNL     1      44.679   4.898   7.934  0.00  0.00    +0.000 HD
ENDBRANCH   2  11
ENDBRANCH   1   6
BRANCH   1  15
ATOM     15  C   UNL     1      48.144   8.194  14.039  0.00  0.00    +0.000 A 
ATOM     16  C   UNL     1      49.380   8.837  13.885  0.00  0.00    +0.000 A 
ATOM     17  C   UNL     1      50.500   8.400  14.589  0.00  0.00    +0.000 A 
ATOM     18  C   UNL     1      50.397   7.320  15.466  0.00  0.00    +0.000 A 
ATOM     19  C   UNL     1      49.177   6.651  15.661  0.00  0.00    +0.000 A 
ATOM     20  C   UNL     1      48.070   7.096  14.914  0.00  0.00    +0.000 A 
BRANCH  19  21
ATOM     21  C   UNL     1      49.041   5.552  16.640  0.00  0.00    +0.000 A 
ATOM     22  C   UNL     1      49.968   5.366  17.674  0.00  0.00    +0.000 A 
ATOM     23  N   UNL     1      49.899   4.401  18.629  0.00  0.00    +0.000 NA
ATOM     24  C   UNL     1      48.835   3.573  18.564  0.00  0.00    +0.000 A 
ATOM     25  C   UNL     1      47.857   3.668  17.592  0.00  0.00    +0.000 A 
ATOM     26  F   UNL     1      46.821   2.821  17.584  0.00  0.00    +0.000 F 
ATOM     27  C   UNL     1      47.960   4.658  16.622  0.00  0.00    +0.000 A 
ENDBRANCH  19  21
ENDBRANCH   1  15
TORSDOF 4
ENDMDL
