MODEL 1
REMARK VINA RESULT:    -7.725      0.000      0.000
REMARK INTER + INTRA:         -10.108
REMARK INTER:                  -9.531
REMARK INTRA:                  -0.577
REMARK UNBOUND:                -0.577
REMARK  Name = 
REMARK  4 active torsions:
REMARK  status: ('A' for Active; 'I' for Inactive)
REMARK    1  A    between atoms: C_2  and  C_3
REMARK    2  A    between atoms: C_6  and  C_7
REMARK    3  A    between atoms: C_7  and  N_8
REMARK    4  A    between atoms: C_12  and  C_13
REMARK                            x       y       z     vdW  Elec       q    Type
REMARK                         _______ _______ _______ _____ _____    ______ ____
ROOT
ATOM      1  N   UNL     1      44.144   3.689  10.826  0.00  0.00    +0.000 N 
ATOM      2  C   UNL     1      45.015   3.465   9.766  0.00  0.00    +0.000 A 
ATOM      3  C   UNL     1      45.597   4.475   9.007  0.00  0.00    +0.000 A 
ATOM      4  C   UNL     1      46.344   4.141   7.873  0.00  0.00    +0.000 A 
ATOM      5  C   UNL     1      46.485   2.801   7.522  0.00  0.00    +0.000 A 
ATOM      6  C   UNL     1      45.921   1.854   8.359  0.00  0.00    +0.000 A 
ATOM      7  N   UNL     1      45.196   2.161   9.463  0.00  0.00    +0.000 NA
ATOM      8  H   UNL     1      44.017   2.810  11.316  0.00  0.00    +0.000 HD
ENDROOT
BRANCH   5   9
ATOM      9  C   UNL     1      47.200   2.348   6.310  0.00  0.00    +0.000 C 
ATOM     10  N   UNL     1      47.079   3.121   5.188  0.00  0.00    +0.000 N 
ATOM     11  O   UNL     1      47.840   1.306   6.296  0.00  0.00    +0.000 OA
ATOM     12  H   UNL     1      46.403   3.865   5.098  0.00  0.00    +0.000 HD
ATOM     13  H   UNL     1      47.493   2.757   4.338  0.00  0.00    +0.000 HD
ENDBRANCH   5   9
BRANCH   1  14
ATOM     14  C   UNL     1      43.940   4.956  11.531  0.00  0.00    +0.000 C 
ATOM     15  C   UNL     1      43.024   6.040  10.990  0.00  0.00    +0.000 C 
ATOM     16  C   UNL     1      42.536   5.155  12.088  0.00  0.00    +0.000 C 
BRANCH  14  20
ATOM     17  C   UNL     1      47.496   6.208  13.584  0.00  0.00    +0.000 A 
ATOM     18  C   UNL     1      46.954   4.965  13.892  0.00  0.00    +0.000 A 
ATOM     19  C   UNL     1      45.778   4.563  13.257  0.00  0.00    +0.000 A 
ATOM     20  C   UNL     1      45.156   5.413  12.338  0.00  0.00    +0.000 A 
ATOM     21  N   UNL     1      45.673   6.644  12.067  0.00  0.00    +0.000 NA
ATOM     22  C   UNL     1      46.826   7.005  12.677  0.00  0.00    +0.000 A 
BRANCH  17  24
ATOM     23  N   UNL     1      49.707   7.014  14.652  0.00  0.00    +0.000 NA
ATOM     24  C   UNL     1      48.717   6.655  14.174  0.00  0.00    +0.000 C 
ENDBRANCH  17  24
ENDBRANCH  14  20
ENDBRANCH   1  14
TORSDOF 4
ENDMDL
MODEL 2
REMARK VINA RESULT:    -7.050      2.771      6.811
REMARK INTER + INTRA:          -9.275
REMARK INTER:                  -9.145
REMARK INTRA:                  -0.130
REMARK UNBOUND:                -0.577
REMARK  Name = 
REMARK  4 active torsions:
REMARK  status: ('A' for Active; 'I' for Inactive)
REMARK    1  A    between atoms: C_2  and  C_3
REMARK    2  A    between atoms: C_6  and  C_7
REMARK    3  A    between atoms: C_7  and  N_8
REMARK    4  A    between atoms: C_12  and  C_13
REMARK                            x       y       z     vdW  Elec       q    Type
REMARK                         _______ _______ _______ _____ _____    ______ ____
ROOT
ATOM      1  N   UNL     1      44.232   5.338  11.029  0.00  0.00    +0.000 N 
ATOM      2  C   UNL     1      45.169   6.166  11.637  0.00  0.00    +0.000 A 
ATOM      3  C   UNL     1      46.197   5.712  12.455  0.00  0.00    +0.000 A 
ATOM      4  C   UNL     1      46.997   6.638  13.133  0.00  0.00    +0.000 A 
ATOM      5  C   UNL     1      46.743   7.998  12.980  0.00  0.00    +0.000 A 
ATOM      6  C   UNL     1      45.735   8.370  12.106  0.00  0.00    +0.000 A 
ATOM      7  N   UNL     1      44.952   7.485  11.440  0.00  0.00    +0.000 NA
ATOM      8  H   UNL     1      43.719   5.892  10.351  0.00  0.00    +0.000 HD
ENDROOT
BRANCH   5   9
ATOM      9  C   UNL     1      47.488   9.051  13.700  0.00  0.00    +0.000 C 
ATOM     10  N   UNL     1      47.454   9.018  15.067  0.00  0.00    +0.000 N 
ATOM     11  O   UNL     1      48.078   9.940  13.102  0.00  0.00    +0.000 OA
ATOM     12  H   UNL     1      46.818   8.435  15.591  0.00  0.00    +0.000 HD
ATOM     13  H   UNL     1      47.886   9.795  15.552  0.00  0.00    +0.000 HD
ENDBRANCH   5   9
BRANCH   1  14
ATOM     14  C   UNL     1      44.333   3.886  10.862  0.00  0.00    +0.000 C 
ATOM     15  C   UNL     1      44.403   2.942  12.049  0.00  0.00    +0.000 C 
ATOM     16  C   UNL     1      43.109   3.106  11.324  0.00  0.00    +0.000 C 
BRANCH  14  20
ATOM     17  C   UNL     1      46.623   2.647   7.448  0.00  0.00    +0.000 A 
ATOM     18  C   UNL     1      46.359   4.002   7.615  0.00  0.00    +0.000 A 
ATOM     19  C   UNL     1      45.585   4.413   8.701  0.00  0.00    +0.000 A 
ATOM     20  C   UNL     1      45.076   3.465   9.593  0.00  0.00    +0.000 A 
ATOM     21  N   UNL     1      45.310   2.136   9.405  0.00  0.00    +0.000 NA
ATOM     22  C   UNL     1      46.080   1.761   8.358  0.00  0.00    +0.000 A 
BRANCH  17  24
ATOM     23  N   UNL     1      48.103   1.792   5.511  0.00  0.00    +0.000 NA
ATOM     24  C   UNL     1      47.440   2.173   6.377  0.00  0.00    +0.000 C 
ENDBRANCH  17  24
ENDBRANCH  14  20
ENDBRANCH   1  14
TORSDOF 4
ENDMDL
MODEL 3
REMARK VINA RESULT:    -6.771      2.580      6.683
REMARK INTER + INTRA:          -8.931
REMARK INTER:                  -8.471
REMARK INTRA:                  -0.460
REMARK UNBOUND:                -0.577
REMARK  Name = 
REMARK  4 active torsions:
REMARK  status: ('A' for Active; 'I' for Inactive)
REMARK    1  A    between atoms: C_2  and  C_3
REMARK    2  A    between atoms: C_6  and  C_7
REMARK    3  A    between atoms: C_7  and  N_8
REMARK    4  A    between atoms: C_12  and  C_13
REMARK                            x       y       z     vdW  Elec       q    Type
REMARK                         _______ _______ _______ _____ _____    ______ ____
ROOT
ATOM      1  N   UNL     1      44.828   6.101  11.589  0.00  0.00    +0.000 N 
ATOM      2  C   UNL     1      45.977   6.181  12.367  0.00  0.00    +0.000 A 
ATOM      3  C   UNL     1      46.435   5.158  13.190  0.00  0.00    +0.000 A 
ATOM      4  C   UNL     1      47.520   5.392  14.041  0.00  0.00    +0.000 A 
ATOM      5  C   UNL     1      48.117   6.650  14.052  0.00  0.00    +0.000 A 
ATOM      6  C   UNL     1      47.636   7.598  13.165  0.00  0.00    +0.000 A 
ATOM      7  N   UNL     1      46.587   7.386  12.332  0.00  0.00    +0.000 NA
ATOM      8  H   UNL     1      44.825   6.894  10.955  0.00  0.00    +0.000 HD
ENDROOT
BRANCH   5   9
ATOM      9  C   UNL     1      49.225   7.016  14.958  0.00  0.00    +0.000 C 
ATOM     10  N   UNL     1      49.802   8.243  14.776  0.00  0.00    +0.000 N 
ATOM     11  O   UNL     1      49.640   6.241  15.809  0.00  0.00    +0.000 OA
ATOM     12  H   UNL     1      49.633   8.819  13.964  0.00  0.00    +0.000 HD
ATOM     13  H   UNL     1      50.621   8.449  15.336  0.00  0.00    +0.000 HD
ENDBRANCH   5   9
BRANCH   1  14
ATOM     14  C   UNL     1      44.099   4.880  11.237  0.00  0.00    +0.000 C 
ATOM     15  C   UNL     1      43.334   4.074  12.273  0.00  0.00    +0.000 C 
ATOM     16  C   UNL     1      42.584   4.987  11.362  0.00  0.00    +0.000 C 
BRANCH  14  20
ATOM     17  C   UNL     1      46.028   2.635   8.128  0.00  0.00    +0.000 A 
ATOM     18  C   UNL     1      46.076   4.023   8.072  0.00  0.00    +0.000 A 
ATOM     19  C   UNL     1      45.422   4.765   9.058  0.00  0.00    +0.000 A 
ATOM     20  C   UNL     1      44.720   4.108  10.073  0.00  0.00    +0.000 A 
ATOM     21  N   UNL     1      44.647   2.747  10.102  0.00  0.00    +0.000 NA
ATOM     22  C   UNL     1      45.307   2.049   9.150  0.00  0.00    +0.000 A 
BRANCH  17  24
ATOM     23  N   UNL     1      47.265   1.175   6.392  0.00  0.00    +0.000 NA
ATOM     24  C   UNL     1      46.710   1.827   7.169  0.00  0.00    +0.000 C 
ENDBRANCH  17  24
ENDBRANCH  14  20
ENDBRANCH   1  14
TORSDOF 4
ENDMDL
MODEL 4
REMARK VINA RESULT:    -6.516      1.341      1.580
REMARK INTER + INTRA:          -8.617
REMARK INTER:                  -8.839
REMARK INTRA:                   0.222
REMARK UNBOUND:                -0.577
REMARK  Name = 
REMARK  4 active torsions:
REMARK  status: ('A' for Active; 'I' for Inactive)
REMARK    1  A    between atoms: C_2  and  C_3
REMARK    2  A    between atoms: C_6  and  C_7
REMARK    3  A    between atoms: C_7  and  N_8
REMARK    4  A    between atoms: C_12  and  C_13
REMARK                            x       y       z     vdW  Elec       q    Type
REMARK                         _______ _______ _______ _____ _____    ______ ____
ROOT
ATOM      1  N   UNL     1      45.087   5.432   9.878  0.00  0.00    +0.000 N 
ATOM      2  C   UNL     1      45.488   4.347   9.106  0.00  0.00    +0.000 A 
ATOM      3  C   UNL     1      45.538   3.037   9.567  0.00  0.00    +0.000 A 
ATOM      4  C   UNL     1      46.092   2.042   8.756  0.00  0.00    +0.000 A 
ATOM      5  C   UNL     1      46.589   2.385   7.501  0.00  0.00    +0.000 A 
ATOM      6  C   UNL     1      46.453   3.702   7.094  0.00  0.00    +0.000 A 
ATOM      7  N   UNL     1      45.916   4.678   7.868  0.00  0.00    +0.000 NA
ATOM      8  H   UNL     1      44.964   6.227   9.260  0.00  0.00    +0.000 HD
ENDROOT
BRANCH   5   9
ATOM      9  C   UNL     1      47.250   1.422   6.596  0.00  0.00    +0.000 C 
ATOM     10  N   UNL     1      48.189   1.918   5.733  0.00  0.00    +0.000 N 
ATOM     11  O   UNL     1      46.943   0.239   6.587  0.00  0.00    +0.000 OA
ATOM     12  H   UNL     1      48.320   2.905   5.566  0.00  0.00    +0.000 HD
ATOM     13  H   UNL     1      48.568   1.271   5.053  0.00  0.00    +0.000 HD
ENDBRANCH   5   9
BRANCH   1  14
ATOM     14  C   UNL     1      44.360   5.373  11.148  0.00  0.00    +0.000 C 
ATOM     15  C   UNL     1      42.996   6.019  11.326  0.00  0.00    +0.000 C 
ATOM     16  C   UNL     1      43.081   4.544  11.112  0.00  0.00    +0.000 C 
BRANCH  14  20
ATOM     17  C   UNL     1      47.118   5.267  14.436  0.00  0.00    +0.000 A 
ATOM     18  C   UNL     1      46.494   4.085  14.054  0.00  0.00    +0.000 A 
ATOM     19  C   UNL     1      45.568   4.114  13.010  0.00  0.00    +0.000 A 
ATOM     20  C   UNL     1      45.271   5.323  12.375  0.00  0.00    +0.000 A 
ATOM     21  N   UNL     1      45.860   6.484  12.777  0.00  0.00    +0.000 NA
ATOM     22  C   UNL     1      46.771   6.430  13.776  0.00  0.00    +0.000 A 
BRANCH  17  24
ATOM     23  N   UNL     1      48.896   5.306  16.311  0.00  0.00    +0.000 NA
ATOM     24  C   UNL     1      48.101   5.290  15.471  0.00  0.00    +0.000 C 
ENDBRANCH  17  24
ENDBRANCH  14  20
ENDBRANCH   1  14
TORSDOF 4
ENDMDL
MODEL 5
REMARK VINA RESULT:    -5.737      4.237      6.673
REMARK INTER + INTRA:          -7.656
REMARK INTER:                  -7.614
REMARK INTRA:                  -0.042
REMARK UNBOUND:                -0.577
REMARK  Name = 
REMARK  4 active torsions:
REMARK  status: ('A' for Active; 'I' for Inactive)
REMARK    1  A    between atoms: C_2  and  C_3
REMARK    2  A    between atoms: C_6  and  C_7
REMARK    3  A    between atoms: C_7  and  N_8
REMARK    4  A    between atoms: C_12  and  C_13
REMARK                            x       y       z     vdW  Elec       q    Type
REMARK                         _______ _______ _______ _____ _____    ______ ____
ROOT
ATOM      1  N   UNL     1      47.302   4.831  16.137  0.00  0.00    +0.000 N 
ATOM      2  C   UNL     1      47.027   5.103  14.802  0.00  0.00    +0.000 A 
ATOM      3  C   UNL     1      47.645   6.109  14.067  0.00  0.00    +0.000 A 
ATOM      4  C   UNL     1      47.193   6.393  12.774  0.00  0.00    +0.000 A 
ATOM      5  C   UNL     1      46.127   5.666  12.251  0.00  0.00    +0.000 A 
ATOM      6  C   UNL     1      45.602   4.646  13.026  0.00  0.00    +0.000 A 
ATOM      7  N   UNL     1      46.030   4.356  14.280  0.00  0.00    +0.000 NA
ATOM      8  H   UNL     1      46.862   3.949  16.374  0.00  0.00    +0.000 HD
ENDROOT
BRANCH   5   9
ATOM      9  C   UNL     1      45.535   5.931  10.923  0.00  0.00    +0.000 C 
ATOM     10  N   UNL     1      44.340   6.596  10.892  0.00  0.00    +0.000 N 
ATOM     11  O   UNL     1      46.069   5.539   9.895  0.00  0.00    +0.000 OA
ATOM     12  H   UNL     1      43.772   6.751  11.712  0.00  0.00    +0.000 HD
ATOM     13  H   UNL     1      43.895   6.690   9.987  0.00  0.00    +0.000 HD
ENDBRANCH   5   9
BRANCH   1  14
ATOM     14  C   UNL     1      48.466   5.296  16.897  0.00  0.00    +0.000 C 
ATOM     15  C   UNL     1      48.907   6.749  16.886  0.00  0.00    +0.000 C 
ATOM     16  C   UNL     1      48.138   6.231  18.055  0.00  0.00    +0.000 C 
BRANCH  14  20
ATOM     17  C   UNL     1      51.408   2.237  17.542  0.00  0.00    +0.000 A 
ATOM     18  C   UNL     1      51.754   3.557  17.805  0.00  0.00    +0.000 A 
ATOM     19  C   UNL     1      50.818   4.564  17.566  0.00  0.00    +0.000 A 
ATOM     20  C   UNL     1      49.559   4.238  17.054  0.00  0.00    +0.000 A 
ATOM     21  N   UNL     1      49.238   2.945  16.765  0.00  0.00    +0.000 NA
ATOM     22  C   UNL     1      50.153   1.983  17.026  0.00  0.00    +0.000 A 
BRANCH  17  24
ATOM     23  N   UNL     1      53.043   0.292  18.017  0.00  0.00    +0.000 NA
ATOM     24  C   UNL     1      52.312   1.163  17.804  0.00  0.00    +0.000 C 
ENDBRANCH  17  24
ENDBRANCH  14  20
ENDBRANCH   1  14
TORSDOF 4
ENDMDL
MODEL 6
REMARK VINA RESULT:    -5.273      3.736      5.680
REMARK INTER + INTRA:          -7.083
REMARK INTER:                  -6.538
REMARK INTRA:                  -0.545
REMARK UNBOUND:                -0.577
REMARK  Name = 
REMARK  4 active torsions:
REMARK  status: ('A' for Active; 'I' for Inactive)
REMARK    1  A    between atoms: C_2  and  C_3
REMARK    2  A    between atoms: C_6  and  C_7
REMARK    3  A    between atoms: C_7  and  N_8
REMARK    4  A    between atoms: C_12  and  C_13
REMARK                            x       y       z     vdW  Elec       q    Type
REMARK                         _______ _______ _______ _____ _____    ______ ____
ROOT
ATOM      1  N   UNL     1      47.261   8.063  12.216  0.00  0.00    +0.000 N 
ATOM      2  C   UNL     1      46.430   6.953  12.314  0.00  0.00    +0.000 A 
ATOM      3  C   UNL     1      46.880   5.661  12.565  0.00  0.00    +0.000 A 
ATOM      4  C   UNL     1      45.978   4.594  12.502  0.00  0.00    +0.000 A 
ATOM      5  C   UNL     1      44.647   4.846  12.182  0.00  0.00    +0.000 A 
ATOM      6  C   UNL     1      44.268   6.166  11.999  0.00  0.00    +0.000 A 
ATOM      7  N   UNL     1      45.129   7.212  12.059  0.00  0.00    +0.000 NA
ATOM      8  H   UNL     1      46.676   8.892  12.216  0.00  0.00    +0.000 HD
ENDROOT
BRANCH   5   9
ATOM      9  C   UNL     1      43.632   3.784  12.028  0.00  0.00    +0.000 C 
ATOM     10  N   UNL     1      43.862   2.601  12.676  0.00  0.00    +0.000 N 
ATOM     11  O   UNL     1      42.647   3.937  11.320  0.00  0.00    +0.000 OA
ATOM     12  H   UNL     1      44.749   2.363  13.094  0.00  0.00    +0.000 HD
ATOM     13  H   UNL     1      43.212   1.847  12.491  0.00  0.00    +0.000 HD
ENDBRANCH   5   9
BRANCH   1  14
ATOM     14  C   UNL     1      48.654   8.150  12.663  0.00  0.00    +0.000 C 
ATOM     15  C   UNL     1      49.806   7.659  11.804  0.00  0.00    +0.000 C 
ATOM     16  C   UNL     1      49.518   9.122  11.868  0.00  0.00    +0.000 C 
BRANCH  14  20
ATOM     17  C   UNL     1      48.946   7.653  16.917  0.00  0.00    +0.000 A 
ATOM     18  C   UNL     1      48.321   8.792  16.423  0.00  0.00    +0.000 A 
ATOM     19  C   UNL     1      48.252   8.983  15.042  0.00  0.00    +0.000 A 
ATOM     20  C   UNL     1      48.820   8.040  14.179  0.00  0.00    +0.000 A 
ATOM     21  N   UNL     1      49.461   6.943  14.670  0.00  0.00    +0.000 NA
ATOM     22  C   UNL     1      49.497   6.768  16.011  0.00  0.00    +0.000 A 
BRANCH  17  24
ATOM     23  N   UNL     1      49.063   7.173  19.454  0.00  0.00    +0.000 NA
ATOM     24  C   UNL     1      49.012   7.388  18.318  0.00  0.00    +0.000 C 
ENDBRANCH  17  24
ENDBRANCH  14  20
ENDBRANCH   1  14
TORSDOF 4
ENDMDL
MODEL 7
REMARK VINA RESULT:    -5.024      3.535      6.745
REMARK INTER + INTRA:          -6.776
REMARK INTER:                  -7.011
REMARK INTRA:                   0.235
REMARK UNBOUND:                -0.577
REMARK  Name = 
REMARK  4 active torsions:
REMARK  status: ('A' for Active; 'I' for Inactive)
REMARK    1  A    between atoms: C_2  and  C_3
REMARK    2  A    between atoms: C_6  and  C_7
REMARK    3  A    between atoms: C_7  and  N_8
REMARK    4  A    between atoms: C_12  and  C_13
REMARK                            x       y       z     vdW  Elec       q    Type
REMARK                         _______ _______ _______ _____ _____    ______ ____
ROOT
ATOM      1  N   UNL     1      43.426   5.235  11.353  0.00  0.00    +0.000 N 
ATOM      2  C   UNL     1      43.786   6.577  11.307  0.00  0.00    +0.000 A 
ATOM      3  C   UNL     1      45.043   7.060  11.655  0.00  0.00    +0.000 A 
ATOM      4  C   UNL     1      45.258   8.441  11.711  0.00  0.00    +0.000 A 
ATOM      5  C   UNL     1      44.206   9.306  11.424  0.00  0.00    +0.000 A 
ATOM      6  C   UNL     1      43.001   8.746  11.034  0.00  0.00    +0.000 A 
ATOM      7  N   UNL     1      42.776   7.410  10.972  0.00  0.00    +0.000 NA
ATOM      8  H   UNL     1      42.534   5.135  10.880  0.00  0.00    +0.000 HD
ENDROOT
BRANCH   5   9
ATOM      9  C   UNL     1      44.313  10.777  11.517  0.00  0.00    +0.000 C 
ATOM     10  N   UNL     1      43.386  11.516  10.834  0.00  0.00    +0.000 N 
ATOM     11  O   UNL     1      45.216  11.314  12.143  0.00  0.00    +0.000 OA
ATOM     12  H   UNL     1      42.761  11.121  10.147  0.00  0.00    +0.000 HD
ATOM     13  H   UNL     1      43.522  12.519  10.825  0.00  0.00    +0.000 HD
ENDBRANCH   5   9
BRANCH   1  14
ATOM     14  C   UNL     1      44.338   4.092  11.446  0.00  0.00    +0.000 C 
ATOM     15  C   UNL     1      45.101   3.773  12.720  0.00  0.00    +0.000 C 
ATOM     16  C   UNL     1      43.877   2.986  12.387  0.00  0.00    +0.000 C 
BRANCH  14  20
ATOM     17  C   UNL     1      46.050   3.223   7.606  0.00  0.00    +0.000 A 
ATOM     18  C   UNL     1      45.480   2.182   8.330  0.00  0.00    +0.000 A 
ATOM     19  C   UNL     1      44.952   2.445   9.595  0.00  0.00    +0.000 A 
ATOM     20  C   UNL     1      45.016   3.739  10.121  0.00  0.00    +0.000 A 
ATOM     21  N   UNL     1      45.607   4.748   9.421  0.00  0.00    +0.000 NA
ATOM     22  C   UNL     1      46.092   4.474   8.188  0.00  0.00    +0.000 A 
BRANCH  17  24
ATOM     23  N   UNL     1      46.991   2.850   5.228  0.00  0.00    +0.000 NA
ATOM     24  C   UNL     1      46.570   3.019   6.292  0.00  0.00    +0.000 C 
ENDBRANCH  17  24
ENDBRANCH  14  20
ENDBRANCH   1  14
TORSDOF 4
ENDMDL
