MODEL 1
REMARK VINA RESULT:    -7.664      0.000      0.000
REMARK INTER + INTRA:          -9.701
REMARK INTER:                  -9.456
REMARK INTRA:                  -0.245
REMARK UNBOUND:                -0.245
REMARK  Name = 
REMARK  4 active torsions:
REMARK  status: ('A' for Active; 'I' for Inactive)
REMARK    1  A    between atoms: C_2  and  C_4
REMARK    2  A    between atoms: C_7  and  S_8
REMARK    3  A    between atoms: S_8  and  C_9
REMARK    4  A    between atoms: C_9  and  C_10
REMARK                            x       y       z     vdW  Elec       q    Type
REMARK                         _______ _______ _______ _____ _____    ______ ____
ROOT
ATOM      1  C   UNL     1      46.445   2.532   7.738  0.00  0.00    +0.000 A 
ATOM      2  C   UNL     1      45.656   1.811   8.622  0.00  0.00    +0.000 A 
ATOM      3  C   UNL     1      44.755   2.508   9.426  0.00  0.00    +0.000 A 
ATOM      4  C   UNL     1      44.680   3.901   9.356  0.00  0.00    +0.000 A 
ATOM      5  C   UNL     1      45.506   4.527   8.422  0.00  0.00    +0.000 A 
ATOM      6  N   UNL     1      46.389   3.887   7.609  0.00  0.00    +0.000 NA
ENDROOT
BRANCH   1   8
ATOM      7  N   UNL     1      48.503   2.543   6.451  0.00  0.00    +0.000 N 
ATOM      8  C   UNL     1      47.428   1.806   6.871  0.00  0.00    +0.000 C 
ATOM      9  O   UNL     1      47.292   0.631   6.554  0.00  0.00    +0.000 OA
ATOM     10  H   UNL     1      49.197   2.121   5.855  0.00  0.00    +0.000 HD
ATOM     11  H   UNL     1      48.580   3.518   6.729  0.00  0.00    +0.000 HD
ENDBRANCH   1   8
BRANCH   4  12
ATOM     12  S   UNL     1      43.578   4.886  10.363  0.00  0.00    +0.000 S 
BRANCH  12  13
ATOM     13  C   UNL     1      44.182   4.530  11.995  0.00  0.00    +0.000 C 
ATOM     14  C   UNL     1      43.743   3.214  12.617  0.00  0.00    +0.000 C 
ATOM     15  C   UNL     1      43.188   4.494  13.152  0.00  0.00    +0.000 C 
BRANCH  13  16
ATOM     16  C   UNL     1      45.552   5.143  12.297  0.00  0.00    +0.000 A 
ATOM     17  N   UNL     1      46.311   4.591  13.273  0.00  0.00    +0.000 NA
ATOM     18  C   UNL     1      47.464   5.209  13.588  0.00  0.00    +0.000 A 
ATOM     19  C   UNL     1      47.897   6.360  12.979  0.00  0.00    +0.000 A 
ATOM     20  C   UNL     1      47.086   6.837  11.981  0.00  0.00    +0.000 A 
ATOM     21  N   UNL     1      45.937   6.245  11.613  0.00  0.00    +0.000 NA
ENDBRANCH  13  16
ENDBRANCH  12  13
ENDBRANCH   4  12
TORSDOF 4
ENDMDL
MODEL 2
REMARK VINA RESULT:    -7.547      0.698      1.129
REMARK INTER + INTRA:          -9.557
REMARK INTER:                  -9.381
REMARK INTRA:                  -0.176
REMARK UNBOUND:                -0.245
REMARK  Name = 
REMARK  4 active torsions:
REMARK  status: ('A' for Active; 'I' for Inactive)
REMARK    1  A    between atoms: C_2  and  C_4
REMARK    2  A    between atoms: C_7  and  S_8
REMARK    3  A    between atoms: S_8  and  C_9
REMARK    4  A    between atoms: C_9  and  C_10
REMARK                            x       y       z     vdW  Elec       q    Type
REMARK                         _______ _______ _______ _____ _____    ______ ____
ROOT
ATOM      1  C   UNL     1      46.410   2.332   7.857  0.00  0.00    +0.000 A 
ATOM      2  C   UNL     1      46.424   3.703   7.650  0.00  0.00    +0.000 A 
ATOM      3  C   UNL     1      45.567   4.498   8.412  0.00  0.00    +0.000 A 
ATOM      4  C   UNL     1      44.700   3.912   9.336  0.00  0.00    +0.000 A 
ATOM      5  C   UNL     1      44.777   2.526   9.478  0.00  0.00    +0.000 A 
ATOM      6  N   UNL     1      45.605   1.714   8.768  0.00  0.00    +0.000 NA
ENDROOT
BRANCH   1   8
ATOM      7  N   UNL     1      48.405   2.077   6.500  0.00  0.00    +0.000 N 
ATOM      8  C   UNL     1      47.313   1.456   7.044  0.00  0.00    +0.000 C 
ATOM      9  O   UNL     1      47.103   0.261   6.875  0.00  0.00    +0.000 OA
ATOM     10  H   UNL     1      49.049   1.550   5.932  0.00  0.00    +0.000 HD
ATOM     11  H   UNL     1      48.546   3.071   6.657  0.00  0.00    +0.000 HD
ENDBRANCH   1   8
BRANCH   4  12
ATOM     12  S   UNL     1      43.546   4.841  10.339  0.00  0.00    +0.000 S 
BRANCH  12  13
ATOM     13  C   UNL     1      44.211   4.586  11.966  0.00  0.00    +0.000 C 
ATOM     14  C   UNL     1      43.842   3.284  12.661  0.00  0.00    +0.000 C 
ATOM     15  C   UNL     1      43.252   4.566  13.153  0.00  0.00    +0.000 C 
BRANCH  13  16
ATOM     16  C   UNL     1      45.564   5.263  12.198  0.00  0.00    +0.000 A 
ATOM     17  N   UNL     1      46.389   4.761  13.146  0.00  0.00    +0.000 NA
ATOM     18  C   UNL     1      47.526   5.435  13.400  0.00  0.00    +0.000 A 
ATOM     19  C   UNL     1      47.879   6.595  12.757  0.00  0.00    +0.000 A 
ATOM     20  C   UNL     1      47.003   7.020  11.792  0.00  0.00    +0.000 A 
ATOM     21  N   UNL     1      45.867   6.372  11.483  0.00  0.00    +0.000 NA
ENDBRANCH  13  16
ENDBRANCH  12  13
ENDBRANCH   4  12
TORSDOF 4
ENDMDL
MODEL 3
REMARK VINA RESULT:    -5.934      3.112      5.865
REMARK INTER + INTRA:          -7.566
REMARK INTER:                  -7.663
REMARK INTRA:                   0.096
REMARK UNBOUND:                -0.245
REMARK  Name = 
REMARK  4 active torsions:
REMARK  status: ('A' for Active; 'I' for Inactive)
REMARK    1  A    between atoms: C_2  and  C_4
REMARK    2  A    between atoms: C_7  and  S_8
REMARK    3  A    between atoms: S_8  and  C_9
REMARK    4  A    between atoms: C_9  and  C_10
REMARK                            x       y       z     vdW  Elec       q    Type
REMARK                         _______ _______ _______ _____ _____    ______ ____
ROOT
ATOM      1  C   UNL     1      48.748   7.111  12.677  0.00  0.00    +0.000 A 
ATOM      2  C   UNL     1      47.748   7.347  11.745  0.00  0.00    +0.000 A 
ATOM      3  C   UNL     1      46.573   6.602  11.830  0.00  0.00    +0.000 A 
ATOM      4  C   UNL     1      46.429   5.624  12.817  0.00  0.00    +0.000 A 
ATOM      5  C   UNL     1      47.487   5.479  13.715  0.00  0.00    +0.000 A 
ATOM      6  N   UNL     1      48.645   6.191  13.678  0.00  0.00    +0.000 NA
ENDROOT
BRANCH   1   8
ATOM      7  N   UNL     1      50.883   7.726  13.654  0.00  0.00    +0.000 N 
ATOM      8  C   UNL     1      50.024   7.892  12.601  0.00  0.00    +0.000 C 
ATOM      9  O   UNL     1      50.295   8.630  11.661  0.00  0.00    +0.000 OA
ATOM     10  H   UNL     1      51.755   8.230  13.672  0.00  0.00    +0.000 HD
ATOM     11  H   UNL     1      50.623   7.110  14.419  0.00  0.00    +0.000 HD
ENDBRANCH   1   8
BRANCH   4  12
ATOM     12  S   UNL     1      44.973   4.600  12.992  0.00  0.00    +0.000 S 
BRANCH  12  13
ATOM     13  C   UNL     1      44.141   4.906  11.453  0.00  0.00    +0.000 C 
ATOM     14  C   UNL     1      43.519   6.281  11.271  0.00  0.00    +0.000 C 
ATOM     15  C   UNL     1      42.627   5.098  11.465  0.00  0.00    +0.000 C 
BRANCH  13  16
ATOM     16  C   UNL     1      44.716   4.123  10.270  0.00  0.00    +0.000 A 
ATOM     17  N   UNL     1      45.280   4.809   9.248  0.00  0.00    +0.000 NA
ATOM     18  C   UNL     1      45.685   4.103   8.175  0.00  0.00    +0.000 A 
ATOM     19  C   UNL     1      45.549   2.742   8.068  0.00  0.00    +0.000 A 
ATOM     20  C   UNL     1      44.996   2.121   9.158  0.00  0.00    +0.000 A 
ATOM     21  N   UNL     1      44.596   2.775  10.262  0.00  0.00    +0.000 NA
ENDBRANCH  13  16
ENDBRANCH  12  13
ENDBRANCH   4  12
TORSDOF 4
ENDMDL
MODEL 4
REMARK VINA RESULT:    -5.677      3.389      6.273
REMARK INTER + INTRA:          -7.250
REMARK INTER:                  -7.220
REMARK INTRA:                  -0.030
REMARK UNBOUND:                -0.245
REMARK  Name = 
REMARK  4 active torsions:
REMARK  status: ('A' for Active; 'I' for Inactive)
REMARK    1  A    between atoms: C_2  and  C_4
REMARK    2  A    between atoms: C_7  and  S_8
REMARK    3  A    between atoms: S_8  and  C_9
REMARK    4  A    between atoms: C_9  and  C_10
REMARK                            x       y       z     vdW  Elec       q    Type
REMARK                         _______ _______ _______ _____ _____    ______ ____
ROOT
ATOM      1  C   UNL     1      47.216   8.915  12.288  0.00  0.00    +0.000 A 
ATOM      2  C   UNL     1      45.936   8.761  12.801  0.00  0.00    +0.000 A 
ATOM      3  C   UNL     1      45.410   7.474  12.895  0.00  0.00    +0.000 A 
ATOM      4  C   UNL     1      46.150   6.376  12.451  0.00  0.00    +0.000 A 
ATOM      5  C   UNL     1      47.432   6.639  11.967  0.00  0.00    +0.000 A 
ATOM      6  N   UNL     1      47.991   7.875  11.870  0.00  0.00    +0.000 NA
ENDROOT
BRANCH   1   8
ATOM      7  N   UNL     1      46.953  11.321  12.477  0.00  0.00    +0.000 N 
ATOM      8  C   UNL     1      47.800  10.289  12.168  0.00  0.00    +0.000 C 
ATOM      9  O   UNL     1      48.958  10.490  11.823  0.00  0.00    +0.000 OA
ATOM     10  H   UNL     1      47.278  12.272  12.407  0.00  0.00    +0.000 HD
ATOM     11  H   UNL     1      45.997  11.117  12.755  0.00  0.00    +0.000 HD
ENDBRANCH   1   8
BRANCH   4  12
ATOM     12  S   UNL     1      45.553   4.691  12.504  0.00  0.00    +0.000 S 
BRANCH  12  13
ATOM     13  C   UNL     1      44.412   4.680  11.143  0.00  0.00    +0.000 C 
ATOM     14  C   UNL     1      43.456   5.858  11.040  0.00  0.00    +0.000 C 
ATOM     15  C   UNL     1      42.923   4.519  11.436  0.00  0.00    +0.000 C 
BRANCH  13  16
ATOM     16  C   UNL     1      44.939   3.964   9.896  0.00  0.00    +0.000 A 
ATOM     17  N   UNL     1      44.920   2.611   9.866  0.00  0.00    +0.000 NA
ATOM     18  C   UNL     1      45.482   2.006   8.803  0.00  0.00    +0.000 A 
ATOM     19  C   UNL     1      46.071   2.686   7.767  0.00  0.00    +0.000 A 
ATOM     20  C   UNL     1      46.022   4.054   7.861  0.00  0.00    +0.000 A 
ATOM     21  N   UNL     1      45.453   4.707   8.888  0.00  0.00    +0.000 NA
ENDBRANCH  13  16
ENDBRANCH  12  13
ENDBRANCH   4  12
TORSDOF 4
ENDMDL
MODEL 5
REMARK VINA RESULT:    -5.551      4.065      6.474
REMARK INTER + INTRA:          -7.094
REMARK INTER:                  -7.153
REMARK INTRA:                   0.059
REMARK UNBOUND:                -0.245
REMARK  Name = 
REMARK  4 active torsions:
REMARK  status: ('A' for Active; 'I' for Inactive)
REMARK    1  A    between atoms: C_2  and  C_4
REMARK    2  A    between atoms: C_7  and  S_8
REMARK    3  A    between atoms: S_8  and  C_9
REMARK    4  A    between atoms: C_9  and  C_10
REMARK                            x       y       z     vdW  Elec       q    Type
REMARK                         _______ _______ _______ _____ _____    ______ ____
ROOT
ATOM      1  C   UNL     1      47.581   4.104  15.626  0.00  0.00    +0.000 A 
ATOM      2  C   UNL     1      47.998   5.417  15.789  0.00  0.00    +0.000 A 
ATOM      3  C   UNL     1      47.929   6.275  14.692  0.00  0.00    +0.000 A 
ATOM      4  C   UNL     1      47.477   5.805  13.457  0.00  0.00    +0.000 A 
ATOM      5  C   UNL     1      47.066   4.472  13.406  0.00  0.00    +0.000 A 
ATOM      6  N   UNL     1      47.104   3.604  14.451  0.00  0.00    +0.000 NA
ENDROOT
BRANCH   1   8
ATOM      7  N   UNL     1      48.888   2.613  17.026  0.00  0.00    +0.000 N 
ATOM      8  C   UNL     1      47.656   3.160  16.787  0.00  0.00    +0.000 C 
ATOM      9  O   UNL     1      46.687   2.891  17.486  0.00  0.00    +0.000 OA
ATOM     10  H   UNL     1      49.007   1.960  17.785  0.00  0.00    +0.000 HD
ATOM     11  H   UNL     1      49.668   2.855  16.422  0.00  0.00    +0.000 HD
ENDBRANCH   1   8
BRANCH   4  12
ATOM     12  S   UNL     1      47.377   6.819  11.987  0.00  0.00    +0.000 S 
BRANCH  12  13
ATOM     13  C   UNL     1      45.695   7.384  12.064  0.00  0.00    +0.000 C 
ATOM     14  C   UNL     1      45.412   8.771  11.508  0.00  0.00    +0.000 C 
ATOM     15  C   UNL     1      45.357   8.553  12.985  0.00  0.00    +0.000 C 
BRANCH  13  16
ATOM     16  C   UNL     1      44.658   6.261  11.985  0.00  0.00    +0.000 A 
ATOM     17  N   UNL     1      43.915   5.983  13.081  0.00  0.00    +0.000 NA
ATOM     18  C   UNL     1      43.084   4.926  13.017  0.00  0.00    +0.000 A 
ATOM     19  C   UNL     1      42.962   4.125  11.909  0.00  0.00    +0.000 A 
ATOM     20  C   UNL     1      43.727   4.492  10.832  0.00  0.00    +0.000 A 
ATOM     21  N   UNL     1      44.555   5.551  10.837  0.00  0.00    +0.000 NA
ENDBRANCH  13  16
ENDBRANCH  12  13
ENDBRANCH   4  12
TORSDOF 4
ENDMDL
MODEL 6
REMARK VINA RESULT:    -5.387      4.716      6.734
REMARK INTER + INTRA:          -6.892
REMARK INTER:                  -6.461
REMARK INTRA:                  -0.431
REMARK UNBOUND:                -0.245
REMARK  Name = 
REMARK  4 active torsions:
REMARK  status: ('A' for Active; 'I' for Inactive)
REMARK    1  A    between atoms: C_2  and  C_4
REMARK    2  A    between atoms: C_7  and  S_8
REMARK    3  A    between atoms: S_8  and  C_9
REMARK    4  A    between atoms: C_9  and  C_10
REMARK                            x       y       z     vdW  Elec       q    Type
REMARK                         _______ _______ _______ _____ _____    ______ ____
ROOT
ATOM      1  C   UNL     1      45.031   5.250  13.266  0.00  0.00    +0.000 A 
ATOM      2  C   UNL     1      45.252   6.551  12.838  0.00  0.00    +0.000 A 
ATOM      3  C   UNL     1      46.517   7.106  13.031  0.00  0.00    +0.000 A 
ATOM      4  C   UNL     1      47.519   6.371  13.667  0.00  0.00    +0.000 A 
ATOM      5  C   UNL     1      47.196   5.066  14.043  0.00  0.00    +0.000 A 
ATOM      6  N   UNL     1      45.983   4.480  13.864  0.00  0.00    +0.000 NA
ENDROOT
BRANCH   1   8
ATOM      7  N   UNL     1      42.644   5.518  12.912  0.00  0.00    +0.000 N 
ATOM      8  C   UNL     1      43.678   4.635  13.079  0.00  0.00    +0.000 C 
ATOM      9  O   UNL     1      43.495   3.424  13.069  0.00  0.00    +0.000 OA
ATOM     10  H   UNL     1      41.705   5.173  12.793  0.00  0.00    +0.000 HD
ATOM     11  H   UNL     1      42.832   6.517  12.931  0.00  0.00    +0.000 HD
ENDBRANCH   1   8
BRANCH   4  12
ATOM     12  S   UNL     1      49.162   7.003  13.984  0.00  0.00    +0.000 S 
BRANCH  12  13
ATOM     13  C   UNL     1      49.037   7.464  15.694  0.00  0.00    +0.000 C 
ATOM     14  C   UNL     1      48.207   8.697  16.013  0.00  0.00    +0.000 C 
ATOM     15  C   UNL     1      49.693   8.763  16.152  0.00  0.00    +0.000 C 
BRANCH  13  16
ATOM     16  C   UNL     1      49.122   6.282  16.664  0.00  0.00    +0.000 A 
ATOM     17  N   UNL     1      50.235   5.512  16.655  0.00  0.00    +0.000 NA
ATOM     18  C   UNL     1      50.242   4.421  17.444  0.00  0.00    +0.000 A 
ATOM     19  C   UNL     1      49.186   4.056  18.241  0.00  0.00    +0.000 A 
ATOM     20  C   UNL     1      48.110   4.905  18.214  0.00  0.00    +0.000 A 
ATOM     21  N   UNL     1      48.061   6.018  17.462  0.00  0.00    +0.000 NA
ENDBRANCH  13  16
ENDBRANCH  12  13
ENDBRANCH   4  12
TORSDOF 4
ENDMDL
MODEL 7
REMARK VINA RESULT:    -5.371      3.240      4.920
REMARK INTER + INTRA:          -6.872
REMARK INTER:                  -7.054
REMARK INTRA:                   0.182
REMARK UNBOUND:                -0.245
REMARK  Name = 
REMARK  4 active torsions:
REMARK  status: ('A' for Active; 'I' for Inactive)
REMARK    1  A    between atoms: C_2  and  C_4
REMARK    2  A    between atoms: C_7  and  S_8
REMARK    3  A    between atoms: S_8  and  C_9
REMARK    4  A    between atoms: C_9  and  C_10
REMARK                            x       y       z     vdW  Elec       q    Type
REMARK                         _______ _______ _______ _____ _____    ______ ____
ROOT
ATOM      1  C   UNL     1      44.531   4.175  11.385  0.00  0.00    +0.000 A 
ATOM      2  C   UNL     1      45.192   4.980  10.470  0.00  0.00    +0.000 A 
ATOM      3  C   UNL     1      45.718   6.193  10.913  0.00  0.00    +0.000 A 
ATOM      4  C   UNL     1      45.551   6.590  12.241  0.00  0.00    +0.000 A 
ATOM      5  C   UNL     1      44.885   5.698  13.083  0.00  0.00    +0.000 A 
ATOM      6  N   UNL     1      44.368   4.501  12.698  0.00  0.00    +0.000 NA
ENDROOT
BRANCH   1   8
ATOM      7  N   UNL     1      44.566   2.290   9.856  0.00  0.00    +0.000 N 
ATOM      8  C   UNL     1      43.949   2.871  10.931  0.00  0.00    +0.000 C 
ATOM      9  O   UNL     1      42.987   2.347  11.479  0.00  0.00    +0.000 OA
ATOM     10  H   UNL     1      44.219   1.417   9.491  0.00  0.00    +0.000 HD
ATOM     11  H   UNL     1      45.359   2.756   9.423  0.00  0.00    +0.000 HD
ENDBRANCH   1   8
BRANCH   4  12
ATOM     12  S   UNL     1      46.164   8.137  12.898  0.00  0.00    +0.000 S 
BRANCH  12  13
ATOM     13  C   UNL     1      47.890   7.773  13.102  0.00  0.00    +0.000 C 
ATOM     14  C   UNL     1      48.874   8.730  12.448  0.00  0.00    +0.000 C 
ATOM     15  C   UNL     1      48.700   7.360  11.876  0.00  0.00    +0.000 C 
BRANCH  13  16
ATOM     16  C   UNL     1      48.223   7.050  14.410  0.00  0.00    +0.000 A 
ATOM     17  N   UNL     1      47.883   5.746  14.537  0.00  0.00    +0.000 NA
ATOM     18  C   UNL     1      48.095   5.163  15.732  0.00  0.00    +0.000 A 
ATOM     19  C   UNL     1      48.625   5.822  16.813  0.00  0.00    +0.000 A 
ATOM     20  C   UNL     1      48.968   7.131  16.592  0.00  0.00    +0.000 A 
ATOM     21  N   UNL     1      48.800   7.753  15.412  0.00  0.00    +0.000 NA
ENDBRANCH  13  16
ENDBRANCH  12  13
ENDBRANCH   4  12
TORSDOF 4
ENDMDL
MODEL 8
REMARK VINA RESULT:    -5.010      4.260      6.011
REMARK INTER + INTRA:          -6.426
REMARK INTER:                  -6.220
REMARK INTRA:                  -0.207
REMARK UNBOUND:                -0.245
REMARK  Name = 
REMARK  4 active torsions:
REMARK  status: ('A' for Active; 'I' for Inactive)
REMARK    1  A    between atoms: C_2  and  C_4
REMARK    2  A    between atoms: C_7  and  S_8
REMARK    3  A    between atoms: S_8  and  C_9
REMARK    4  A    between atoms: C_9  and  C_10
REMARK                            x       y       z     vdW  Elec       q    Type
REMARK                         _______ _______ _______ _____ _____    ______ ____
ROOT
ATOM      1  C   UNL     1      44.508   5.215  12.063  0.00  0.00    +0.000 A 
ATOM      2  C   UNL     1      45.050   6.128  11.171  0.00  0.00    +0.000 A 
ATOM      3  C   UNL     1      46.352   6.575  11.389  0.00  0.00    +0.000 A 
ATOM      4  C   UNL     1      47.073   6.130  12.499  0.00  0.00    +0.000 A 
ATOM      5  C   UNL     1      46.441   5.199  13.324  0.00  0.00    +0.000 A 
ATOM      6  N   UNL     1      45.180   4.726  13.144  0.00  0.00    +0.000 NA
ENDROOT
BRANCH   1   8
ATOM      7  N   UNL     1      42.962   3.369  11.756  0.00  0.00    +0.000 N 
ATOM      8  C   UNL     1      43.107   4.727  11.856  0.00  0.00    +0.000 C 
ATOM      9  O   UNL     1      42.145   5.482  11.783  0.00  0.00    +0.000 OA
ATOM     10  H   UNL     1      42.048   2.973  11.605  0.00  0.00    +0.000 HD
ATOM     11  H   UNL     1      43.783   2.773  11.816  0.00  0.00    +0.000 HD
ENDBRANCH   1   8
BRANCH   4  12
ATOM     12  S   UNL     1      48.737   6.665  12.880  0.00  0.00    +0.000 S 
BRANCH  12  13
ATOM     13  C   UNL     1      48.441   7.828  14.188  0.00  0.00    +0.000 C 
ATOM     14  C   UNL     1      47.332   8.844  13.965  0.00  0.00    +0.000 C 
ATOM     15  C   UNL     1      48.754   9.301  13.943  0.00  0.00    +0.000 C 
BRANCH  13  16
ATOM     16  C   UNL     1      48.766   7.289  15.584  0.00  0.00    +0.000 A 
ATOM     17  N   UNL     1      48.513   8.071  16.659  0.00  0.00    +0.000 NA
ATOM     18  C   UNL     1      48.901   7.615  17.864  0.00  0.00    +0.000 A 
ATOM     19  C   UNL     1      49.539   6.414  18.050  0.00  0.00    +0.000 A 
ATOM     20  C   UNL     1      49.731   5.670  16.915  0.00  0.00    +0.000 A 
ATOM     21  N   UNL     1      49.342   6.068  15.692  0.00  0.00    +0.000 NA
ENDBRANCH  13  16
ENDBRANCH  12  13
ENDBRANCH   4  12
TORSDOF 4
ENDMDL
