MODEL 1
REMARK VINA RESULT:    -8.708      0.000      0.000
REMARK INTER + INTRA:         -12.470
REMARK INTER:                 -11.762
REMARK INTRA:                  -0.708
REMARK UNBOUND:                -0.708
REMARK  Name = 
REMARK  7 active torsions:
REMARK  status: ('A' for Active; 'I' for Inactive)
REMARK    1  A    between atoms: C_1  and  C_2
REMARK    2  A    between atoms: C_7  and  C_8
REMARK    3  A    between atoms: N_10  and  C_11
REMARK    4  A    between atoms: C_11  and  C_12
REMARK    5  A    between atoms: C_15  and  O_16
REMARK    6  A    between atoms: O_16  and  C_17
REMARK    7  A    between atoms: C_17  and  C_18
REMARK                            x       y       z     vdW  Elec       q    Type
REMARK                         _______ _______ _______ _____ _____    ______ ____
ROOT
ATOM      1  C   UNL     1      47.225   4.225  16.278  0.00  0.00    +0.000 C 
ATOM      2  O   UNL     1      46.406   3.589  16.940  0.00  0.00    +0.000 OA
ATOM      3  N   UNL     1      46.898   4.742  15.052  0.00  0.00    +0.000 N 
ATOM      4  H   UNL     1      47.571   5.276  14.512  0.00  0.00    +0.000 HD
ENDROOT
BRANCH   1  11
ATOM      5  C   UNL     1      53.341   1.577  17.898  0.00  0.00    +0.000 C 
ATOM      6  C   UNL     1      52.090   2.352  17.601  0.00  0.00    +0.000 A 
ATOM      7  N   UNL     1      52.027   3.628  17.795  0.00  0.00    +0.000 NA
ATOM      8  C   UNL     1      50.828   4.193  17.483  0.00  0.00    +0.000 A 
ATOM      9  S   UNL     1      50.580   5.864  17.681  0.00  0.00    +0.000 S 
ATOM     10  C   UNL     1      48.976   5.746  17.119  0.00  0.00    +0.000 A 
ATOM     11  C   UNL     1      48.593   4.455  16.774  0.00  0.00    +0.000 A 
ATOM     12  C   UNL     1      49.702   3.553  16.992  0.00  0.00    +0.000 A 
ATOM     13  C   UNL     1      49.825   2.123  16.786  0.00  0.00    +0.000 A 
ATOM     14  O   UNL     1      48.931   1.407  16.347  0.00  0.00    +0.000 OA
ATOM     15  N   UNL     1      51.048   1.596  17.118  0.00  0.00    +0.000 N 
ATOM     16  H   UNL     1      51.148   0.601  16.981  0.00  0.00    +0.000 HD
ENDBRANCH   1  11
BRANCH   3  17
ATOM     17  C   UNL     1      45.585   4.560  14.489  0.00  0.00    +0.000 C 
BRANCH  17  18
ATOM     18  C   UNL     1      45.608   4.672  12.988  0.00  0.00    +0.000 A 
ATOM     19  C   UNL     1      45.128   3.638  12.173  0.00  0.00    +0.000 A 
ATOM     20  C   UNL     1      45.134   3.775  10.781  0.00  0.00    +0.000 A 
ATOM     21  C   UNL     1      45.619   4.943  10.189  0.00  0.00    +0.000 A 
ATOM     22  C   UNL     1      46.164   5.944  10.996  0.00  0.00    +0.000 A 
ATOM     23  C   UNL     1      46.150   5.812  12.384  0.00  0.00    +0.000 A 
BRANCH  21  24
ATOM     24  O   UNL     1      45.515   5.015   8.825  0.00  0.00    +0.000 OA
BRANCH  24  25
ATOM     25  C   UNL     1      44.907   3.872   8.213  0.00  0.00    +0.000 C 
BRANCH  25  26
ATOM     26  C   UNL     1      45.971   2.993   7.614  0.00  0.00    +0.000 A 
ATOM     27  C   UNL     1      46.177   1.701   8.105  0.00  0.00    +0.000 A 
ATOM     28  C   UNL     1      47.129   0.903   7.496  0.00  0.00    +0.000 A 
ATOM     29  N   UNL     1      47.876   1.296   6.442  0.00  0.00    +0.000 NA
ATOM     30  C   UNL     1      47.658   2.545   5.978  0.00  0.00    +0.000 A 
ATOM     31  C   UNL     1      46.729   3.419   6.519  0.00  0.00    +0.000 A 
ENDBRANCH  25  26
ENDBRANCH  24  25
ENDBRANCH  21  24
ENDBRANCH  17  18
ENDBRANCH   3  17
TORSDOF 6
ENDMDL
MODEL 2
REMARK VINA RESULT:    -8.144      2.074      2.635
REMARK INTER + INTRA:         -11.709
REMARK INTER:                 -10.872
REMARK INTRA:                  -0.837
REMARK UNBOUND:                -0.708
REMARK  Name = 
REMARK  7 active torsions:
REMARK  status: ('A' for Active; 'I' for Inactive)
REMARK    1  A    between atoms: C_1  and  C_2
REMARK    2  A    between atoms: C_7  and  C_8
REMARK    3  A    between atoms: N_10  and  C_11
REMARK    4  A    between atoms: C_11  and  C_12
REMARK    5  A    between atoms: C_15  and  O_16
REMARK    6  A    between atoms: O_16  and  C_17
REMARK    7  A    between atoms: C_17  and  C_18
REMARK                            x       y       z     vdW  Elec       q    Type
REMARK                         _______ _______ _______ _____ _____    ______ ____
ROOT
ATOM      1  C   UNL     1      48.396   6.453  15.537  0.00  0.00    +0.000 C 
ATOM      2  O   UNL     1      48.652   7.654  15.477  0.00  0.00    +0.000 OA
ATOM      3  N   UNL     1      47.598   5.850  14.600  0.00  0.00    +0.000 N 
ATOM      4  H   UNL     1      47.397   4.856  14.643  0.00  0.00    +0.000 HD
ENDROOT
BRANCH   1  11
ATOM      5  C   UNL     1      53.866   4.416  19.139  0.00  0.00    +0.000 C 
ATOM      6  C   UNL     1      52.552   4.726  18.481  0.00  0.00    +0.000 A 
ATOM      7  N   UNL     1      51.458   4.153  18.861  0.00  0.00    +0.000 NA
ATOM      8  C   UNL     1      50.347   4.533  18.171  0.00  0.00    +0.000 A 
ATOM      9  S   UNL     1      48.826   3.871  18.547  0.00  0.00    +0.000 S 
ATOM     10  C   UNL     1      48.066   4.791  17.332  0.00  0.00    +0.000 A 
ATOM     11  C   UNL     1      48.934   5.611  16.619  0.00  0.00    +0.000 A 
ATOM     12  C   UNL     1      50.277   5.445  17.133  0.00  0.00    +0.000 A 
ATOM     13  C   UNL     1      51.529   6.066  16.748  0.00  0.00    +0.000 A 
ATOM     14  O   UNL     1      51.643   6.903  15.859  0.00  0.00    +0.000 OA
ATOM     15  N   UNL     1      52.623   5.650  17.466  0.00  0.00    +0.000 N 
ATOM     16  H   UNL     1      53.503   6.073  17.208  0.00  0.00    +0.000 HD
ENDBRANCH   1  11
BRANCH   3  17
ATOM     17  C   UNL     1      47.026   6.599  13.511  0.00  0.00    +0.000 C 
BRANCH  17  18
ATOM     18  C   UNL     1      46.287   5.702  12.554  0.00  0.00    +0.000 A 
ATOM     19  C   UNL     1      45.895   6.155  11.287  0.00  0.00    +0.000 A 
ATOM     20  C   UNL     1      45.233   5.296  10.403  0.00  0.00    +0.000 A 
ATOM     21  C   UNL     1      44.954   3.979  10.775  0.00  0.00    +0.000 A 
ATOM     22  C   UNL     1      45.278   3.548  12.063  0.00  0.00    +0.000 A 
ATOM     23  C   UNL     1      45.946   4.402  12.941  0.00  0.00    +0.000 A 
BRANCH  21  24
ATOM     24  O   UNL     1      44.370   3.194   9.817  0.00  0.00    +0.000 OA
BRANCH  24  25
ATOM     25  C   UNL     1      44.635   3.601   8.470  0.00  0.00    +0.000 C 
BRANCH  25  26
ATOM     26  C   UNL     1      45.768   2.785   7.909  0.00  0.00    +0.000 A 
ATOM     27  C   UNL     1      46.760   3.394   7.136  0.00  0.00    +0.000 A 
ATOM     28  C   UNL     1      47.814   2.622   6.678  0.00  0.00    +0.000 A 
ATOM     29  N   UNL     1      47.948   1.305   6.941  0.00  0.00    +0.000 NA
ATOM     30  C   UNL     1      46.983   0.736   7.695  0.00  0.00    +0.000 A 
ATOM     31  C   UNL     1      45.890   1.423   8.199  0.00  0.00    +0.000 A 
ENDBRANCH  25  26
ENDBRANCH  24  25
ENDBRANCH  21  24
ENDBRANCH  17  18
ENDBRANCH   3  17
TORSDOF 6
ENDMDL
MODEL 3
REMARK VINA RESULT:    -8.054      2.101      2.891
REMARK INTER + INTRA:         -11.587
REMARK INTER:                 -10.848
REMARK INTRA:                  -0.739
REMARK UNBOUND:                -0.708
REMARK  Name = 
REMARK  7 active torsions:
REMARK  status: ('A' for Active; 'I' for Inactive)
REMARK    1  A    between atoms: C_1  and  C_2
REMARK    2  A    between atoms: C_7  and  C_8
REMARK    3  A    between atoms: N_10  and  C_11
REMARK    4  A    between atoms: C_11  and  C_12
REMARK    5  A    between atoms: C_15  and  O_16
REMARK    6  A    between atoms: O_16  and  C_17
REMARK    7  A    between atoms: C_17  and  C_18
REMARK                            x       y       z     vdW  Elec       q    Type
REMARK                         _______ _______ _______ _____ _____    ______ ____
ROOT
ATOM      1  C   UNL     1      48.272   6.863  14.022  0.00  0.00    +0.000 C 
ATOM      2  O   UNL     1      48.828   6.553  12.969  0.00  0.00    +0.000 OA
ATOM      3  N   UNL     1      47.070   7.519  14.024  0.00  0.00    +0.000 N 
ATOM      4  H   UNL     1      46.607   7.762  14.894  0.00  0.00    +0.000 HD
ENDROOT
BRANCH   1  11
ATOM      5  C   UNL     1      48.264   2.884  19.609  0.00  0.00    +0.000 C 
ATOM      6  C   UNL     1      48.439   3.857  18.479  0.00  0.00    +0.000 A 
ATOM      7  N   UNL     1      49.358   4.766  18.510  0.00  0.00    +0.000 NA
ATOM      8  C   UNL     1      49.394   5.576  17.416  0.00  0.00    +0.000 A 
ATOM      9  S   UNL     1      50.543   6.824  17.301  0.00  0.00    +0.000 S 
ATOM     10  C   UNL     1      49.949   7.303  15.778  0.00  0.00    +0.000 A 
ATOM     11  C   UNL     1      48.877   6.541  15.326  0.00  0.00    +0.000 A 
ATOM     12  C   UNL     1      48.567   5.524  16.307  0.00  0.00    +0.000 A 
ATOM     13  C   UNL     1      47.558   4.484  16.316  0.00  0.00    +0.000 A 
ATOM     14  O   UNL     1      46.754   4.289  15.410  0.00  0.00    +0.000 OA
ATOM     15  N   UNL     1      47.554   3.694  17.440  0.00  0.00    +0.000 N 
ATOM     16  H   UNL     1      46.856   2.966  17.461  0.00  0.00    +0.000 HD
ENDBRANCH   1  11
BRANCH   3  17
ATOM     17  C   UNL     1      46.410   7.875  12.795  0.00  0.00    +0.000 C 
BRANCH  17  18
ATOM     18  C   UNL     1      45.907   6.657  12.066  0.00  0.00    +0.000 A 
ATOM     19  C   UNL     1      46.081   6.512  10.683  0.00  0.00    +0.000 A 
ATOM     20  C   UNL     1      45.630   5.359  10.030  0.00  0.00    +0.000 A 
ATOM     21  C   UNL     1      45.000   4.342  10.751  0.00  0.00    +0.000 A 
ATOM     22  C   UNL     1      44.760   4.517  12.115  0.00  0.00    +0.000 A 
ATOM     23  C   UNL     1      45.217   5.662  12.767  0.00  0.00    +0.000 A 
BRANCH  21  24
ATOM     24  O   UNL     1      44.660   3.223  10.040  0.00  0.00    +0.000 OA
BRANCH  24  25
ATOM     25  C   UNL     1      44.616   3.409   8.621  0.00  0.00    +0.000 C 
BRANCH  25  26
ATOM     26  C   UNL     1      45.755   2.667   7.977  0.00  0.00    +0.000 A 
ATOM     27  C   UNL     1      46.665   3.343   7.159  0.00  0.00    +0.000 A 
ATOM     28  C   UNL     1      47.729   2.639   6.625  0.00  0.00    +0.000 A 
ATOM     29  N   UNL     1      47.951   1.327   6.852  0.00  0.00    +0.000 NA
ATOM     30  C   UNL     1      47.065   0.693   7.650  0.00  0.00    +0.000 A 
ATOM     31  C   UNL     1      45.969   1.309   8.231  0.00  0.00    +0.000 A 
ENDBRANCH  25  26
ENDBRANCH  24  25
ENDBRANCH  21  24
ENDBRANCH  17  18
ENDBRANCH   3  17
TORSDOF 6
ENDMDL
MODEL 4
REMARK VINA RESULT:    -8.050      2.207      2.814
REMARK INTER + INTRA:         -11.582
REMARK INTER:                 -10.506
REMARK INTRA:                  -1.076
REMARK UNBOUND:                -0.708
REMARK  Name = 
REMARK  7 active torsions:
REMARK  status: ('A' for Active; 'I' for Inactive)
REMARK    1  A    between atoms: C_1  and  C_2
REMARK    2  A    between atoms: C_7  and  C_8
REMARK    3  A    between atoms: N_10  and  C_11
REMARK    4  A    between atoms: C_11  and  C_12
REMARK    5  A    between atoms: C_15  and  O_16
REMARK    6  A    between atoms: O_16  and  C_17
REMARK    7  A    between atoms: C_17  and  C_18
REMARK                            x       y       z     vdW  Elec       q    Type
REMARK                         _______ _______ _______ _____ _____    ______ ____
ROOT
ATOM      1  C   UNL     1      48.325   8.040  14.452  0.00  0.00    +0.000 C 
ATOM      2  O   UNL     1      47.906   9.196  14.495  0.00  0.00    +0.000 OA
ATOM      3  N   UNL     1      47.599   7.045  13.853  0.00  0.00    +0.000 N 
ATOM      4  H   UNL     1      47.951   6.094  13.807  0.00  0.00    +0.000 HD
ENDROOT
BRANCH   1  11
ATOM      5  C   UNL     1      51.863   3.855  18.576  0.00  0.00    +0.000 C 
ATOM      6  C   UNL     1      51.283   4.872  17.636  0.00  0.00    +0.000 A 
ATOM      7  N   UNL     1      52.018   5.789  17.099  0.00  0.00    +0.000 NA
ATOM      8  C   UNL     1      51.353   6.640  16.271  0.00  0.00    +0.000 A 
ATOM      9  S   UNL     1      52.175   7.904  15.485  0.00  0.00    +0.000 S 
ATOM     10  C   UNL     1      50.746   8.433  14.724  0.00  0.00    +0.000 A 
ATOM     11  C   UNL     1      49.624   7.677  15.044  0.00  0.00    +0.000 A 
ATOM     12  C   UNL     1      50.004   6.620  15.956  0.00  0.00    +0.000 A 
ATOM     13  C   UNL     1      49.223   5.569  16.578  0.00  0.00    +0.000 A 
ATOM     14  O   UNL     1      48.022   5.400  16.399  0.00  0.00    +0.000 OA
ATOM     15  N   UNL     1      49.934   4.738  17.409  0.00  0.00    +0.000 N 
ATOM     16  H   UNL     1      49.402   4.002  17.850  0.00  0.00    +0.000 HD
ENDBRANCH   1  11
BRANCH   3  17
ATOM     17  C   UNL     1      46.318   7.310  13.253  0.00  0.00    +0.000 C 
BRANCH  17  18
ATOM     18  C   UNL     1      45.829   6.133  12.451  0.00  0.00    +0.000 A 
ATOM     19  C   UNL     1      45.413   6.280  11.121  0.00  0.00    +0.000 A 
ATOM     20  C   UNL     1      44.989   5.168  10.386  0.00  0.00    +0.000 A 
ATOM     21  C   UNL     1      44.975   3.900  10.971  0.00  0.00    +0.000 A 
ATOM     22  C   UNL     1      45.319   3.763  12.317  0.00  0.00    +0.000 A 
ATOM     23  C   UNL     1      45.750   4.870  13.047  0.00  0.00    +0.000 A 
BRANCH  21  24
ATOM     24  O   UNL     1      44.615   2.863  10.152  0.00  0.00    +0.000 OA
BRANCH  24  25
ATOM     25  C   UNL     1      44.588   3.187   8.758  0.00  0.00    +0.000 C 
BRANCH  25  26
ATOM     26  C   UNL     1      45.778   2.573   8.072  0.00  0.00    +0.000 A 
ATOM     27  C   UNL     1      46.028   1.203   8.187  0.00  0.00    +0.000 A 
ATOM     28  C   UNL     1      47.102   0.664   7.501  0.00  0.00    +0.000 A 
ATOM     29  N   UNL     1      47.930   1.386   6.715  0.00  0.00    +0.000 NA
ATOM     30  C   UNL     1      47.667   2.706   6.612  0.00  0.00    +0.000 A 
ATOM     31  C   UNL     1      46.618   3.339   7.259  0.00  0.00    +0.000 A 
ENDBRANCH  25  26
ENDBRANCH  24  25
ENDBRANCH  21  24
ENDBRANCH  17  18
ENDBRANCH   3  17
TORSDOF 6
ENDMDL
MODEL 5
REMARK VINA RESULT:    -7.895      3.392      4.758
REMARK INTER + INTRA:         -11.372
REMARK INTER:                 -10.190
REMARK INTRA:                  -1.182
REMARK UNBOUND:                -0.708
REMARK  Name = 
REMARK  7 active torsions:
REMARK  status: ('A' for Active; 'I' for Inactive)
REMARK    1  A    between atoms: C_1  and  C_2
REMARK    2  A    between atoms: C_7  and  C_8
REMARK    3  A    between atoms: N_10  and  C_11
REMARK    4  A    between atoms: C_11  and  C_12
REMARK    5  A    between atoms: C_15  and  O_16
REMARK    6  A    between atoms: O_16  and  C_17
REMARK    7  A    between atoms: C_17  and  C_18
REMARK                            x       y       z     vdW  Elec       q    Type
REMARK                         _______ _______ _______ _____ _____    ______ ____
ROOT
ATOM      1  C   UNL     1      48.582   6.379  15.077  0.00  0.00    +0.000 C 
ATOM      2  O   UNL     1      48.961   5.504  15.854  0.00  0.00    +0.000 OA
ATOM      3  N   UNL     1      47.426   6.237  14.357  0.00  0.00    +0.000 N 
ATOM      4  H   UNL     1      47.107   6.966  13.726  0.00  0.00    +0.000 HD
ENDROOT
BRANCH   1  11
ATOM      5  C   UNL     1      51.210  10.975  10.716  0.00  0.00    +0.000 C 
ATOM      6  C   UNL     1      50.722  10.095  11.831  0.00  0.00    +0.000 A 
ATOM      7  N   UNL     1      50.988  10.365  13.066  0.00  0.00    +0.000 NA
ATOM      8  C   UNL     1      50.481   9.476  13.965  0.00  0.00    +0.000 A 
ATOM      9  S   UNL     1      50.742   9.687  15.632  0.00  0.00    +0.000 S 
ATOM     10  C   UNL     1      49.862   8.275  16.002  0.00  0.00    +0.000 A 
ATOM     11  C   UNL     1      49.358   7.617  14.886  0.00  0.00    +0.000 A 
ATOM     12  C   UNL     1      49.731   8.344  13.693  0.00  0.00    +0.000 A 
ATOM     13  C   UNL     1      49.454   8.089  12.293  0.00  0.00    +0.000 A 
ATOM     14  O   UNL     1      48.796   7.140  11.879  0.00  0.00    +0.000 OA
ATOM     15  N   UNL     1      49.988   9.007  11.422  0.00  0.00    +0.000 N 
ATOM     16  H   UNL     1      49.804   8.841  10.444  0.00  0.00    +0.000 HD
ENDBRANCH   1  11
BRANCH   3  17
ATOM     17  C   UNL     1      46.608   5.057  14.480  0.00  0.00    +0.000 C 
BRANCH  17  18
ATOM     18  C   UNL     1      46.029   4.648  13.152  0.00  0.00    +0.000 A 
ATOM     19  C   UNL     1      45.747   3.306  12.863  0.00  0.00    +0.000 A 
ATOM     20  C   UNL     1      45.183   2.951  11.633  0.00  0.00    +0.000 A 
ATOM     21  C   UNL     1      44.897   3.930  10.679  0.00  0.00    +0.000 A 
ATOM     22  C   UNL     1      45.244   5.258  10.936  0.00  0.00    +0.000 A 
ATOM     23  C   UNL     1      45.798   5.613  12.166  0.00  0.00    +0.000 A 
BRANCH  21  24
ATOM     24  O   UNL     1      44.279   3.497   9.537  0.00  0.00    +0.000 OA
BRANCH  24  25
ATOM     25  C   UNL     1      44.859   3.987   8.324  0.00  0.00    +0.000 C 
BRANCH  25  26
ATOM     26  C   UNL     1      45.930   3.040   7.856  0.00  0.00    +0.000 A 
ATOM     27  C   UNL     1      45.873   1.686   8.199  0.00  0.00    +0.000 A 
ATOM     28  C   UNL     1      46.848   0.835   7.709  0.00  0.00    +0.000 A 
ATOM     29  N   UNL     1      47.858   1.234   6.906  0.00  0.00    +0.000 NA
ATOM     30  C   UNL     1      47.892   2.544   6.581  0.00  0.00    +0.000 A 
ATOM     31  C   UNL     1      46.964   3.474   7.021  0.00  0.00    +0.000 A 
ENDBRANCH  25  26
ENDBRANCH  24  25
ENDBRANCH  21  24
ENDBRANCH  17  18
ENDBRANCH   3  17
TORSDOF 6
ENDMDL
MODEL 6
REMARK VINA RESULT:    -7.711      3.581      4.253
REMARK INTER + INTRA:         -11.123
REMARK INTER:                  -9.978
REMARK INTRA:                  -1.146
REMARK UNBOUND:                -0.708
REMARK  Name = 
REMARK  7 active torsions:
REMARK  status: ('A' for Active; 'I' for Inactive)
REMARK    1  A    between atoms: C_1  and  C_2
REMARK    2  A    between atoms: C_7  and  C_8
REMARK    3  A    between atoms: N_10  and  C_11
REMARK    4  A    between atoms: C_11  and  C_12
REMARK    5  A    between atoms: C_15  and  O_16
REMARK    6  A    between atoms: O_16  and  C_17
REMARK    7  A    between atoms: C_17  and  C_18
REMARK                            x       y       z     vdW  Elec       q    Type
REMARK                         _______ _______ _______ _____ _____    ______ ____
ROOT
ATOM      1  C   UNL     1      48.098   7.672  13.409  0.00  0.00    +0.000 C 
ATOM      2  O   UNL     1      47.173   8.472  13.545  0.00  0.00    +0.000 OA
ATOM      3  N   UNL     1      47.908   6.329  13.596  0.00  0.00    +0.000 N 
ATOM      4  H   UNL     1      48.669   5.669  13.471  0.00  0.00    +0.000 HD
ENDROOT
BRANCH   1  11
ATOM      5  C   UNL     1      54.760   7.979  15.015  0.00  0.00    +0.000 C 
ATOM      6  C   UNL     1      53.358   8.022  14.480  0.00  0.00    +0.000 A 
ATOM      7  N   UNL     1      53.082   8.611  13.363  0.00  0.00    +0.000 NA
ATOM      8  C   UNL     1      51.768   8.570  13.007  0.00  0.00    +0.000 A 
ATOM      9  S   UNL     1      51.239   9.300  11.565  0.00  0.00    +0.000 S 
ATOM     10  C   UNL     1      49.627   8.834  11.859  0.00  0.00    +0.000 A 
ATOM     11  C   UNL     1      49.451   8.126  13.042  0.00  0.00    +0.000 A 
ATOM     12  C   UNL     1      50.729   7.978  13.704  0.00  0.00    +0.000 A 
ATOM     13  C   UNL     1      51.090   7.325  14.947  0.00  0.00    +0.000 A 
ATOM     14  O   UNL     1      50.298   6.741  15.679  0.00  0.00    +0.000 OA
ATOM     15  N   UNL     1      52.423   7.394  15.269  0.00  0.00    +0.000 N 
ATOM     16  H   UNL     1      52.689   6.945  16.132  0.00  0.00    +0.000 HD
ENDBRANCH   1  11
BRANCH   3  17
ATOM     17  C   UNL     1      46.619   5.799  13.960  0.00  0.00    +0.000 C 
BRANCH  17  18
ATOM     18  C   UNL     1      45.950   5.124  12.792  0.00  0.00    +0.000 A 
ATOM     19  C   UNL     1      45.577   5.845  11.650  0.00  0.00    +0.000 A 
ATOM     20  C   UNL     1      44.981   5.192  10.565  0.00  0.00    +0.000 A 
ATOM     21  C   UNL     1      44.751   3.815  10.611  0.00  0.00    +0.000 A 
ATOM     22  C   UNL     1      45.056   3.108  11.776  0.00  0.00    +0.000 A 
ATOM     23  C   UNL     1      45.657   3.757  12.854  0.00  0.00    +0.000 A 
BRANCH  21  24
ATOM     24  O   UNL     1      44.233   3.253   9.475  0.00  0.00    +0.000 OA
BRANCH  24  25
ATOM     25  C   UNL     1      44.751   3.793   8.254  0.00  0.00    +0.000 C 
BRANCH  25  26
ATOM     26  C   UNL     1      45.863   2.917   7.746  0.00  0.00    +0.000 A 
ATOM     27  C   UNL     1      45.969   1.591   8.175  0.00  0.00    +0.000 A 
ATOM     28  C   UNL     1      46.974   0.800   7.648  0.00  0.00    +0.000 A 
ATOM     29  N   UNL     1      47.866   1.232   6.730  0.00  0.00    +0.000 NA
ATOM     30  C   UNL     1      47.743   2.514   6.323  0.00  0.00    +0.000 A 
ATOM     31  C   UNL     1      46.772   3.384   6.791  0.00  0.00    +0.000 A 
ENDBRANCH  25  26
ENDBRANCH  24  25
ENDBRANCH  21  24
ENDBRANCH  17  18
ENDBRANCH   3  17
TORSDOF 6
ENDMDL
MODEL 7
REMARK VINA RESULT:    -7.680      2.569      3.072
REMARK INTER + INTRA:         -11.082
REMARK INTER:                 -10.292
REMARK INTRA:                  -0.791
REMARK UNBOUND:                -0.708
REMARK  Name = 
REMARK  7 active torsions:
REMARK  status: ('A' for Active; 'I' for Inactive)
REMARK    1  A    between atoms: C_1  and  C_2
REMARK    2  A    between atoms: C_7  and  C_8
REMARK    3  A    between atoms: N_10  and  C_11
REMARK    4  A    between atoms: C_11  and  C_12
REMARK    5  A    between atoms: C_15  and  O_16
REMARK    6  A    between atoms: O_16  and  C_17
REMARK    7  A    between atoms: C_17  and  C_18
REMARK                            x       y       z     vdW  Elec       q    Type
REMARK                         _______ _______ _______ _____ _____    ______ ____
ROOT
ATOM      1  C   UNL     1      47.863   5.963  14.610  0.00  0.00    +0.000 C 
ATOM      2  O   UNL     1      48.851   6.437  14.053  0.00  0.00    +0.000 OA
ATOM      3  N   UNL     1      46.598   6.215  14.149  0.00  0.00    +0.000 N 
ATOM      4  H   UNL     1      45.784   5.813  14.603  0.00  0.00    +0.000 HD
ENDROOT
BRANCH   1  11
ATOM      5  C   UNL     1      49.882   5.345  21.136  0.00  0.00    +0.000 C 
ATOM      6  C   UNL     1      49.376   5.269  19.725  0.00  0.00    +0.000 A 
ATOM      7  N   UNL     1      48.881   4.175  19.246  0.00  0.00    +0.000 NA
ATOM      8  C   UNL     1      48.465   4.258  17.952  0.00  0.00    +0.000 A 
ATOM      9  S   UNL     1      47.790   2.906  17.172  0.00  0.00    +0.000 S 
ATOM     10  C   UNL     1      47.568   3.782  15.728  0.00  0.00    +0.000 A 
ATOM     11  C   UNL     1      47.997   5.103  15.799  0.00  0.00    +0.000 A 
ATOM     12  C   UNL     1      48.520   5.365  17.122  0.00  0.00    +0.000 A 
ATOM     13  C   UNL     1      49.078   6.568  17.707  0.00  0.00    +0.000 A 
ATOM     14  O   UNL     1      49.189   7.638  17.118  0.00  0.00    +0.000 OA
ATOM     15  N   UNL     1      49.488   6.439  19.011  0.00  0.00    +0.000 N 
ATOM     16  H   UNL     1      49.880   7.269  19.431  0.00  0.00    +0.000 HD
ENDBRANCH   1  11
BRANCH   3  17
ATOM     17  C   UNL     1      46.375   7.048  12.996  0.00  0.00    +0.000 C 
BRANCH  17  18
ATOM     18  C   UNL     1      45.769   6.267  11.860  0.00  0.00    +0.000 A 
ATOM     19  C   UNL     1      46.368   6.241  10.593  0.00  0.00    +0.000 A 
ATOM     20  C   UNL     1      45.803   5.486   9.559  0.00  0.00    +0.000 A 
ATOM     21  C   UNL     1      44.636   4.751   9.779  0.00  0.00    +0.000 A 
ATOM     22  C   UNL     1      43.998   4.834  11.019  0.00  0.00    +0.000 A 
ATOM     23  C   UNL     1      44.566   5.579  12.052  0.00  0.00    +0.000 A 
BRANCH  21  24
ATOM     24  O   UNL     1      44.200   3.985   8.731  0.00  0.00    +0.000 OA
BRANCH  24  25
ATOM     25  C   UNL     1      44.550   2.600   8.820  0.00  0.00    +0.000 C 
BRANCH  25  26
ATOM     26  C   UNL     1      45.721   2.316   7.921  0.00  0.00    +0.000 A 
ATOM     27  C   UNL     1      46.431   1.117   8.045  0.00  0.00    +0.000 A 
ATOM     28  C   UNL     1      47.471   0.867   7.168  0.00  0.00    +0.000 A 
ATOM     29  N   UNL     1      47.844   1.714   6.185  0.00  0.00    +0.000 NA
ATOM     30  C   UNL     1      47.143   2.863   6.077  0.00  0.00    +0.000 A 
ATOM     31  C   UNL     1      46.087   3.205   6.906  0.00  0.00    +0.000 A 
ENDBRANCH  25  26
ENDBRANCH  24  25
ENDBRANCH  21  24
ENDBRANCH  17  18
ENDBRANCH   3  17
TORSDOF 6
ENDMDL
MODEL 8
REMARK VINA RESULT:    -7.225      1.643      2.273
REMARK INTER + INTRA:         -10.467
REMARK INTER:                  -9.402
REMARK INTRA:                  -1.064
REMARK UNBOUND:                -0.708
REMARK  Name = 
REMARK  7 active torsions:
REMARK  status: ('A' for Active; 'I' for Inactive)
REMARK    1  A    between atoms: C_1  and  C_2
REMARK    2  A    between atoms: C_7  and  C_8
REMARK    3  A    between atoms: N_10  and  C_11
REMARK    4  A    between atoms: C_11  and  C_12
REMARK    5  A    between atoms: C_15  and  O_16
REMARK    6  A    between atoms: O_16  and  C_17
REMARK    7  A    between atoms: C_17  and  C_18
REMARK                            x       y       z     vdW  Elec       q    Type
REMARK                         _______ _______ _______ _____ _____    ______ ____
ROOT
ATOM      1  C   UNL     1      49.211   6.203  16.611  0.00  0.00    +0.000 C 
ATOM      2  O   UNL     1      48.300   6.528  17.371  0.00  0.00    +0.000 OA
ATOM      3  N   UNL     1      49.144   6.468  15.269  0.00  0.00    +0.000 N 
ATOM      4  H   UNL     1      49.902   6.210  14.644  0.00  0.00    +0.000 HD
ENDROOT
BRANCH   1  11
ATOM      5  C   UNL     1      52.374   0.260  17.924  0.00  0.00    +0.000 C 
ATOM      6  C   UNL     1      51.867   1.657  17.711  0.00  0.00    +0.000 A 
ATOM      7  N   UNL     1      52.584   2.688  18.019  0.00  0.00    +0.000 NA
ATOM      8  C   UNL     1      51.991   3.888  17.771  0.00  0.00    +0.000 A 
ATOM      9  S   UNL     1      52.801   5.342  18.122  0.00  0.00    +0.000 S 
ATOM     10  C   UNL     1      51.484   6.271  17.568  0.00  0.00    +0.000 A 
ATOM     11  C   UNL     1      50.412   5.513  17.111  0.00  0.00    +0.000 A 
ATOM     12  C   UNL     1      50.733   4.108  17.237  0.00  0.00    +0.000 A 
ATOM     13  C   UNL     1      49.971   2.921  16.901  0.00  0.00    +0.000 A 
ATOM     14  O   UNL     1      48.848   2.934  16.408  0.00  0.00    +0.000 OA
ATOM     15  N   UNL     1      50.605   1.733  17.172  0.00  0.00    +0.000 N 
ATOM     16  H   UNL     1      50.085   0.898  16.945  0.00  0.00    +0.000 HD
ENDBRANCH   1  11
BRANCH   3  17
ATOM     17  C   UNL     1      48.004   7.135  14.694  0.00  0.00    +0.000 C 
BRANCH  17  18
ATOM     18  C   UNL     1      47.201   6.205  13.825  0.00  0.00    +0.000 A 
ATOM     19  C   UNL     1      47.193   4.822  14.050  0.00  0.00    +0.000 A 
ATOM     20  C   UNL     1      46.417   3.979  13.247  0.00  0.00    +0.000 A 
ATOM     21  C   UNL     1      45.644   4.507  12.211  0.00  0.00    +0.000 A 
ATOM     22  C   UNL     1      45.707   5.876  11.939  0.00  0.00    +0.000 A 
ATOM     23  C   UNL     1      46.473   6.717  12.744  0.00  0.00    +0.000 A 
BRANCH  21  24
ATOM     24  O   UNL     1      44.861   3.615  11.528  0.00  0.00    +0.000 OA
BRANCH  24  25
ATOM     25  C   UNL     1      44.390   4.085  10.261  0.00  0.00    +0.000 C 
BRANCH  25  26
ATOM     26  C   UNL     1      45.192   3.454   9.156  0.00  0.00    +0.000 A 
ATOM     27  C   UNL     1      45.804   4.251   8.185  0.00  0.00    +0.000 A 
ATOM     28  C   UNL     1      46.576   3.639   7.213  0.00  0.00    +0.000 A 
ATOM     29  N   UNL     1      46.783   2.307   7.147  0.00  0.00    +0.000 NA
ATOM     30  C   UNL     1      46.190   1.554   8.098  0.00  0.00    +0.000 A 
ATOM     31  C   UNL     1      45.398   2.072   9.111  0.00  0.00    +0.000 A 
ENDBRANCH  25  26
ENDBRANCH  24  25
ENDBRANCH  21  24
ENDBRANCH  17  18
ENDBRANCH   3  17
TORSDOF 6
ENDMDL
MODEL 9
REMARK VINA RESULT:    -6.989      4.003      8.640
REMARK INTER + INTRA:         -10.148
REMARK INTER:                  -8.763
REMARK INTRA:                  -1.385
REMARK UNBOUND:                -0.708
REMARK  Name = 
REMARK  7 active torsions:
REMARK  status: ('A' for Active; 'I' for Inactive)
REMARK    1  A    between atoms: C_1  and  C_2
REMARK    2  A    between atoms: C_7  and  C_8
REMARK    3  A    between atoms: N_10  and  C_11
REMARK    4  A    between atoms: C_11  and  C_12
REMARK    5  A    between atoms: C_15  and  O_16
REMARK    6  A    between atoms: O_16  and  C_17
REMARK    7  A    between atoms: C_17  and  C_18
REMARK                            x       y       z     vdW  Elec       q    Type
REMARK                         _______ _______ _______ _____ _____    ______ ____
ROOT
ATOM      1  C   UNL     1      47.526   8.177  13.280  0.00  0.00    +0.000 C 
ATOM      2  O   UNL     1      48.621   8.036  12.737  0.00  0.00    +0.000 OA
ATOM      3  N   UNL     1      47.406   8.838  14.474  0.00  0.00    +0.000 N 
ATOM      4  H   UNL     1      46.500   8.965  14.915  0.00  0.00    +0.000 HD
ENDROOT
BRANCH   1  11
ATOM      5  C   UNL     1      43.509   2.736  12.136  0.00  0.00    +0.000 C 
ATOM      6  C   UNL     1      44.237   4.042  12.273  0.00  0.00    +0.000 A 
ATOM      7  N   UNL     1      43.778   5.127  11.740  0.00  0.00    +0.000 NA
ATOM      8  C   UNL     1      44.547   6.232  11.947  0.00  0.00    +0.000 A 
ATOM      9  S   UNL     1      44.085   7.740  11.312  0.00  0.00    +0.000 S 
ATOM     10  C   UNL     1      45.463   8.498  11.966  0.00  0.00    +0.000 A 
ATOM     11  C   UNL     1      46.298   7.639  12.671  0.00  0.00    +0.000 A 
ATOM     12  C   UNL     1      45.737   6.305  12.651  0.00  0.00    +0.000 A 
ATOM     13  C   UNL     1      46.207   5.064  13.235  0.00  0.00    +0.000 A 
ATOM     14  O   UNL     1      47.232   4.954  13.899  0.00  0.00    +0.000 OA
ATOM     15  N   UNL     1      45.404   3.976  12.997  0.00  0.00    +0.000 N 
ATOM     16  H   UNL     1      45.719   3.104  13.397  0.00  0.00    +0.000 HD
ENDBRANCH   1  11
BRANCH   3  17
ATOM     17  C   UNL     1      48.555   9.393  15.141  0.00  0.00    +0.000 C 
BRANCH  17  18
ATOM     18  C   UNL     1      49.157   8.411  16.111  0.00  0.00    +0.000 A 
ATOM     19  C   UNL     1      50.273   7.637  15.767  0.00  0.00    +0.000 A 
ATOM     20  C   UNL     1      50.832   6.751  16.694  0.00  0.00    +0.000 A 
ATOM     21  C   UNL     1      50.282   6.627  17.972  0.00  0.00    +0.000 A 
ATOM     22  C   UNL     1      49.126   7.343  18.292  0.00  0.00    +0.000 A 
ATOM     23  C   UNL     1      48.574   8.232  17.371  0.00  0.00    +0.000 A 
BRANCH  21  24
ATOM     24  O   UNL     1      50.941   5.790  18.833  0.00  0.00    +0.000 OA
BRANCH  24  25
ATOM     25  C   UNL     1      50.149   4.709  19.336  0.00  0.00    +0.000 C 
BRANCH  25  26
ATOM     26  C   UNL     1      49.893   3.715  18.236  0.00  0.00    +0.000 A 
ATOM     27  C   UNL     1      50.914   2.865  17.803  0.00  0.00    +0.000 A 
ATOM     28  C   UNL     1      50.630   1.929  16.825  0.00  0.00    +0.000 A 
ATOM     29  N   UNL     1      49.412   1.779  16.261  0.00  0.00    +0.000 NA
ATOM     30  C   UNL     1      48.437   2.605  16.697  0.00  0.00    +0.000 A 
ATOM     31  C   UNL     1      48.623   3.574  17.670  0.00  0.00    +0.000 A 
ENDBRANCH  25  26
ENDBRANCH  24  25
ENDBRANCH  21  24
ENDBRANCH  17  18
ENDBRANCH   3  17
TORSDOF 6
ENDMDL
