MODEL 1
REMARK VINA RESULT:    -8.678      0.000      0.000
REMARK INTER + INTRA:         -13.461
REMARK INTER:                 -12.230
REMARK INTRA:                  -1.232
REMARK UNBOUND:                -1.232
REMARK  Name = 
REMARK  7 active torsions:
REMARK  status: ('A' for Active; 'I' for Inactive)
REMARK    1  A    between atoms: C_2  and  C_20
REMARK    2  A    between atoms: N_3  and  C_4
REMARK    3  A    between atoms: C_4  and  C_5
REMARK    4  A    between atoms: C_8  and  C_9
REMARK    5  A    between atoms: C_9  and  N_10
REMARK    6  A    between atoms: N_10  and  C_11
REMARK    7  A    between atoms: C_11  and  C_12
REMARK                            x       y       z     vdW  Elec       q    Type
REMARK                         _______ _______ _______ _____ _____    ______ ____
ROOT
ATOM      1  C   UNL     1      46.463   7.391  12.719  0.00  0.00    +0.000 C 
ENDROOT
BRANCH   1   2
ATOM      2  C   UNL     1      45.072   6.767  12.489  0.00  0.00    +0.000 C 
ATOM      3  C   UNL     1      44.720   6.660  10.998  0.00  0.00    +0.000 C 
ATOM      4  C   UNL     1      45.522   5.573  10.286  0.00  0.00    +0.000 C 
ATOM      5  C   UNL     1      45.337   4.189  10.934  0.00  0.00    +0.000 C 
ATOM      6  C   UNL     1      45.648   4.261  12.438  0.00  0.00    +0.000 C 
ATOM      7  C   UNL     1      44.942   5.398  13.177  0.00  0.00    +0.000 C 
BRANCH   5   8
ATOM      8  C   UNL     1      43.948   3.572  10.632  0.00  0.00    +0.000 C 
BRANCH   8   9
ATOM      9  N   UNL     1      43.966   3.012   9.280  0.00  0.00    +0.000 NA
ATOM     10  H   UNL     1      44.284   3.720   8.618  0.00  0.00    +0.000 HD
BRANCH   9  11
ATOM     11  C   UNL     1      44.789   1.817   9.138  0.00  0.00    +0.000 C 
BRANCH  11  12
ATOM     12  C   UNL     1      45.833   2.038   8.071  0.00  0.00    +0.000 A 
ATOM     13  C   UNL     1      45.912   3.245   7.368  0.00  0.00    +0.000 A 
ATOM     14  C   UNL     1      46.905   3.430   6.410  0.00  0.00    +0.000 A 
ATOM     15  C   UNL     1      47.793   2.393   6.180  0.00  0.00    +0.000 A 
ATOM     16  N   UNL     1      47.748   1.211   6.829  0.00  0.00    +0.000 NA
ATOM     17  C   UNL     1      46.773   1.062   7.758  0.00  0.00    +0.000 A 
ENDBRANCH  11  12
ENDBRANCH   9  11
ENDBRANCH   8   9
ENDBRANCH   5   8
ENDBRANCH   1   2
BRANCH   1  20
ATOM     18  O   UNL     1      48.990   6.211  13.398  0.00  0.00    +0.000 OA
ATOM     19  C   UNL     1      48.171   6.456  14.278  0.00  0.00    +0.000 C 
ATOM     20  N   UNL     1      46.964   7.063  14.037  0.00  0.00    +0.000 N 
ATOM     21  H   UNL     1      46.291   7.118  14.790  0.00  0.00    +0.000 HD
BRANCH  19  22
ATOM     22  C   UNL     1      48.454   6.189  15.694  0.00  0.00    +0.000 A 
ATOM     23  C   UNL     1      49.022   7.165  16.501  0.00  0.00    +0.000 A 
ATOM     24  S   UNL     1      49.166   6.691  18.136  0.00  0.00    +0.000 S 
ATOM     25  C   UNL     1      48.526   5.149  17.805  0.00  0.00    +0.000 A 
ATOM     26  N   UNL     1      48.359   4.227  18.793  0.00  0.00    +0.000 NA
ATOM     27  C   UNL     1      47.878   3.094  18.388  0.00  0.00    +0.000 A 
ATOM     28  N   UNL     1      47.579   2.793  17.088  0.00  0.00    +0.000 N 
ATOM     29  C   UNL     1      47.726   3.690  16.059  0.00  0.00    +0.000 A 
ATOM     30  O   UNL     1      47.417   3.396  14.910  0.00  0.00    +0.000 OA
ATOM     31  C   UNL     1      48.226   4.994  16.465  0.00  0.00    +0.000 A 
ATOM     32  H   UNL     1      47.214   1.886  16.835  0.00  0.00    +0.000 HD
ENDBRANCH  19  22
ENDBRANCH   1  20
TORSDOF 7
ENDMDL
MODEL 2
REMARK VINA RESULT:    -8.227      2.098      2.770
REMARK INTER + INTRA:         -12.825
REMARK INTER:                 -12.076
REMARK INTRA:                  -0.749
REMARK UNBOUND:                -1.232
REMARK  Name = 
REMARK  7 active torsions:
REMARK  status: ('A' for Active; 'I' for Inactive)
REMARK    1  A    between atoms: C_2  and  C_20
REMARK    2  A    between atoms: N_3  and  C_4
REMARK    3  A    between atoms: C_4  and  C_5
REMARK    4  A    between atoms: C_8  and  C_9
REMARK    5  A    between atoms: C_9  and  N_10
REMARK    6  A    between atoms: N_10  and  C_11
REMARK    7  A    between atoms: C_11  and  C_12
REMARK                            x       y       z     vdW  Elec       q    Type
REMARK                         _______ _______ _______ _____ _____    ______ ____
ROOT
ATOM      1  C   UNL     1      46.009   4.365  14.796  0.00  0.00    +0.000 C 
ENDROOT
BRANCH   1   2
ATOM      2  C   UNL     1      46.123   4.889  13.350  0.00  0.00    +0.000 C 
ATOM      3  C   UNL     1      45.977   3.769  12.310  0.00  0.00    +0.000 C 
ATOM      4  C   UNL     1      44.543   3.258  12.200  0.00  0.00    +0.000 C 
ATOM      5  C   UNL     1      43.546   4.379  11.856  0.00  0.00    +0.000 C 
ATOM      6  C   UNL     1      43.683   5.539  12.857  0.00  0.00    +0.000 C 
ATOM      7  C   UNL     1      45.118   6.020  13.074  0.00  0.00    +0.000 C 
BRANCH   5   8
ATOM      8  C   UNL     1      43.654   4.839  10.380  0.00  0.00    +0.000 C 
BRANCH   8   9
ATOM      9  N   UNL     1      44.059   3.696   9.561  0.00  0.00    +0.000 NA
ATOM     10  H   UNL     1      43.260   3.081   9.406  0.00  0.00    +0.000 HD
BRANCH   9  11
ATOM     11  C   UNL     1      44.642   4.059   8.275  0.00  0.00    +0.000 C 
BRANCH  11  12
ATOM     12  C   UNL     1      45.651   3.018   7.858  0.00  0.00    +0.000 A 
ATOM     13  C   UNL     1      46.655   3.307   6.927  0.00  0.00    +0.000 A 
ATOM     14  C   UNL     1      47.590   2.334   6.584  0.00  0.00    +0.000 A 
ATOM     15  C   UNL     1      47.489   1.091   7.184  0.00  0.00    +0.000 A 
ATOM     16  N   UNL     1      46.534   0.766   8.080  0.00  0.00    +0.000 NA
ATOM     17  C   UNL     1      45.641   1.735   8.396  0.00  0.00    +0.000 A 
ENDBRANCH  11  12
ENDBRANCH   9  11
ENDBRANCH   8   9
ENDBRANCH   5   8
ENDBRANCH   1   2
BRANCH   1  20
ATOM     18  O   UNL     1      46.729   3.300  17.362  0.00  0.00    +0.000 OA
ATOM     19  C   UNL     1      47.519   4.011  16.750  0.00  0.00    +0.000 C 
ATOM     20  N   UNL     1      47.265   4.515  15.499  0.00  0.00    +0.000 N 
ATOM     21  H   UNL     1      47.908   5.193  15.111  0.00  0.00    +0.000 HD
BRANCH  19  22
ATOM     22  C   UNL     1      48.854   4.317  17.278  0.00  0.00    +0.000 A 
ATOM     23  C   UNL     1      49.139   5.568  17.807  0.00  0.00    +0.000 A 
ATOM     24  S   UNL     1      50.711   5.682  18.466  0.00  0.00    +0.000 S 
ATOM     25  C   UNL     1      51.077   4.081  18.017  0.00  0.00    +0.000 A 
ATOM     26  N   UNL     1      52.287   3.527  18.305  0.00  0.00    +0.000 NA
ATOM     27  C   UNL     1      52.427   2.309  17.886  0.00  0.00    +0.000 A 
ATOM     28  N   UNL     1      51.482   1.611  17.185  0.00  0.00    +0.000 N 
ATOM     29  C   UNL     1      50.248   2.125  16.876  0.00  0.00    +0.000 A 
ATOM     30  O   UNL     1      49.414   1.459  16.273  0.00  0.00    +0.000 OA
ATOM     31  C   UNL     1      50.023   3.478  17.357  0.00  0.00    +0.000 A 
ATOM     32  H   UNL     1      51.657   0.664  16.878  0.00  0.00    +0.000 HD
ENDBRANCH  19  22
ENDBRANCH   1  20
TORSDOF 7
ENDMDL
MODEL 3
REMARK VINA RESULT:    -7.861      2.209      2.838
REMARK INTER + INTRA:         -12.309
REMARK INTER:                 -10.945
REMARK INTRA:                  -1.364
REMARK UNBOUND:                -1.232
REMARK  Name = 
REMARK  7 active torsions:
REMARK  status: ('A' for Active; 'I' for Inactive)
REMARK    1  A    between atoms: C_2  and  C_20
REMARK    2  A    between atoms: N_3  and  C_4
REMARK    3  A    between atoms: C_4  and  C_5
REMARK    4  A    between atoms: C_8  and  C_9
REMARK    5  A    between atoms: C_9  and  N_10
REMARK    6  A    between atoms: N_10  and  C_11
REMARK    7  A    between atoms: C_11  and  C_12
REMARK                            x       y       z     vdW  Elec       q    Type
REMARK                         _______ _______ _______ _____ _____    ______ ____
ROOT
ATOM      1  C   UNL     1      45.288   7.633  12.722  0.00  0.00    +0.000 C 
ENDROOT
BRANCH   1   2
ATOM      2  C   UNL     1      45.116   6.125  12.992  0.00  0.00    +0.000 C 
ATOM      3  C   UNL     1      43.653   5.673  12.870  0.00  0.00    +0.000 C 
ATOM      4  C   UNL     1      43.168   5.650  11.422  0.00  0.00    +0.000 C 
ATOM      5  C   UNL     1      44.036   4.746  10.528  0.00  0.00    +0.000 C 
ATOM      6  C   UNL     1      45.517   5.145  10.648  0.00  0.00    +0.000 C 
ATOM      7  C   UNL     1      46.023   5.277  12.084  0.00  0.00    +0.000 C 
BRANCH   5   8
ATOM      8  C   UNL     1      43.793   3.239  10.791  0.00  0.00    +0.000 C 
BRANCH   8   9
ATOM      9  N   UNL     1      44.937   2.483  10.281  0.00  0.00    +0.000 NA
ATOM     10  H   UNL     1      45.243   1.806  10.981  0.00  0.00    +0.000 HD
BRANCH   9  11
ATOM     11  C   UNL     1      44.686   1.792   9.022  0.00  0.00    +0.000 C 
BRANCH  11  12
ATOM     12  C   UNL     1      45.816   2.056   8.059  0.00  0.00    +0.000 A 
ATOM     13  C   UNL     1      45.942   3.286   7.402  0.00  0.00    +0.000 A 
ATOM     14  C   UNL     1      47.013   3.510   6.542  0.00  0.00    +0.000 A 
ATOM     15  C   UNL     1      47.929   2.489   6.358  0.00  0.00    +0.000 A 
ATOM     16  N   UNL     1      47.842   1.286   6.964  0.00  0.00    +0.000 NA
ATOM     17  C   UNL     1      46.792   1.099   7.799  0.00  0.00    +0.000 A 
ENDBRANCH  11  12
ENDBRANCH   9  11
ENDBRANCH   8   9
ENDBRANCH   5   8
ENDBRANCH   1   2
BRANCH   1  20
ATOM     18  O   UNL     1      47.837   8.548  11.772  0.00  0.00    +0.000 OA
ATOM     19  C   UNL     1      47.594   8.551  12.974  0.00  0.00    +0.000 C 
ATOM     20  N   UNL     1      46.383   8.174  13.498  0.00  0.00    +0.000 N 
ATOM     21  H   UNL     1      46.297   8.083  14.502  0.00  0.00    +0.000 HD
BRANCH  19  22
ATOM     22  C   UNL     1      48.566   9.041  13.959  0.00  0.00    +0.000 A 
ATOM     23  C   UNL     1      48.970  10.369  13.958  0.00  0.00    +0.000 A 
ATOM     24  S   UNL     1      50.017  10.758  15.250  0.00  0.00    +0.000 S 
ATOM     25  C   UNL     1      50.007   9.153  15.818  0.00  0.00    +0.000 A 
ATOM     26  N   UNL     1      50.704   8.793  16.930  0.00  0.00    +0.000 NA
ATOM     27  C   UNL     1      50.615   7.536  17.230  0.00  0.00    +0.000 A 
ATOM     28  N   UNL     1      49.919   6.608  16.506  0.00  0.00    +0.000 N 
ATOM     29  C   UNL     1      49.198   6.923  15.381  0.00  0.00    +0.000 A 
ATOM     30  O   UNL     1      48.560   6.070  14.775  0.00  0.00    +0.000 OA
ATOM     31  C   UNL     1      49.232   8.332  15.021  0.00  0.00    +0.000 A 
ATOM     32  H   UNL     1      49.896   5.638  16.789  0.00  0.00    +0.000 HD
ENDBRANCH  19  22
ENDBRANCH   1  20
TORSDOF 7
ENDMDL
MODEL 4
REMARK VINA RESULT:    -7.340      1.806      2.498
REMARK INTER + INTRA:         -11.576
REMARK INTER:                 -10.729
REMARK INTRA:                  -0.847
REMARK UNBOUND:                -1.232
REMARK  Name = 
REMARK  7 active torsions:
REMARK  status: ('A' for Active; 'I' for Inactive)
REMARK    1  A    between atoms: C_2  and  C_20
REMARK    2  A    between atoms: N_3  and  C_4
REMARK    3  A    between atoms: C_4  and  C_5
REMARK    4  A    between atoms: C_8  and  C_9
REMARK    5  A    between atoms: C_9  and  N_10
REMARK    6  A    between atoms: N_10  and  C_11
REMARK    7  A    between atoms: C_11  and  C_12
REMARK                            x       y       z     vdW  Elec       q    Type
REMARK                         _______ _______ _______ _____ _____    ______ ____
ROOT
ATOM      1  C   UNL     1      47.330   5.511  14.083  0.00  0.00    +0.000 C 
ENDROOT
BRANCH   1   2
ATOM      2  C   UNL     1      45.847   5.150  13.861  0.00  0.00    +0.000 C 
ATOM      3  C   UNL     1      45.140   6.137  12.921  0.00  0.00    +0.000 C 
ATOM      4  C   UNL     1      45.581   5.978  11.468  0.00  0.00    +0.000 C 
ATOM      5  C   UNL     1      45.352   4.550  10.940  0.00  0.00    +0.000 C 
ATOM      6  C   UNL     1      46.018   3.525  11.873  0.00  0.00    +0.000 C 
ATOM      7  C   UNL     1      45.683   3.707  13.354  0.00  0.00    +0.000 C 
BRANCH   5   8
ATOM      8  C   UNL     1      43.856   4.246  10.676  0.00  0.00    +0.000 C 
BRANCH   8   9
ATOM      9  N   UNL     1      43.729   3.621   9.359  0.00  0.00    +0.000 NA
ATOM     10  H   UNL     1      42.779   3.745   9.008  0.00  0.00    +0.000 HD
BRANCH   9  11
ATOM     11  C   UNL     1      44.675   4.117   8.368  0.00  0.00    +0.000 C 
BRANCH  11  12
ATOM     12  C   UNL     1      45.595   3.003   7.935  0.00  0.00    +0.000 A 
ATOM     13  C   UNL     1      46.527   3.184   6.907  0.00  0.00    +0.000 A 
ATOM     14  C   UNL     1      47.383   2.146   6.550  0.00  0.00    +0.000 A 
ATOM     15  C   UNL     1      47.278   0.947   7.235  0.00  0.00    +0.000 A 
ATOM     16  N   UNL     1      46.390   0.726   8.227  0.00  0.00    +0.000 NA
ATOM     17  C   UNL     1      45.573   1.757   8.554  0.00  0.00    +0.000 A 
ENDBRANCH  11  12
ENDBRANCH   9  11
ENDBRANCH   8   9
ENDBRANCH   5   8
ENDBRANCH   1   2
BRANCH   1  20
ATOM     18  O   UNL     1      47.935   3.446  15.982  0.00  0.00    +0.000 OA
ATOM     19  C   UNL     1      47.856   4.613  16.350  0.00  0.00    +0.000 C 
ATOM     20  N   UNL     1      47.619   5.658  15.493  0.00  0.00    +0.000 N 
ATOM     21  H   UNL     1      47.443   6.574  15.885  0.00  0.00    +0.000 HD
BRANCH  19  22
ATOM     22  C   UNL     1      48.093   5.002  17.746  0.00  0.00    +0.000 A 
ATOM     23  C   UNL     1      47.097   5.615  18.492  0.00  0.00    +0.000 A 
ATOM     24  S   UNL     1      47.539   5.884  20.119  0.00  0.00    +0.000 S 
ATOM     25  C   UNL     1      49.094   5.241  19.864  0.00  0.00    +0.000 A 
ATOM     26  N   UNL     1      49.999   5.157  20.878  0.00  0.00    +0.000 NA
ATOM     27  C   UNL     1      51.144   4.662  20.529  0.00  0.00    +0.000 A 
ATOM     28  N   UNL     1      51.472   4.272  19.260  0.00  0.00    +0.000 N 
ATOM     29  C   UNL     1      50.593   4.332  18.207  0.00  0.00    +0.000 A 
ATOM     30  O   UNL     1      50.912   3.944  17.089  0.00  0.00    +0.000 OA
ATOM     31  C   UNL     1      49.277   4.845  18.552  0.00  0.00    +0.000 A 
ATOM     32  H   UNL     1      52.388   3.901  19.050  0.00  0.00    +0.000 HD
ENDBRANCH  19  22
ENDBRANCH   1  20
TORSDOF 7
ENDMDL
MODEL 5
REMARK VINA RESULT:    -7.068      2.616      3.509
REMARK INTER + INTRA:         -11.192
REMARK INTER:                 -10.588
REMARK INTRA:                  -0.604
REMARK UNBOUND:                -1.232
REMARK  Name = 
REMARK  7 active torsions:
REMARK  status: ('A' for Active; 'I' for Inactive)
REMARK    1  A    between atoms: C_2  and  C_20
REMARK    2  A    between atoms: N_3  and  C_4
REMARK    3  A    between atoms: C_4  and  C_5
REMARK    4  A    between atoms: C_8  and  C_9
REMARK    5  A    between atoms: C_9  and  N_10
REMARK    6  A    between atoms: N_10  and  C_11
REMARK    7  A    between atoms: C_11  and  C_12
REMARK                            x       y       z     vdW  Elec       q    Type
REMARK                         _______ _______ _______ _____ _____    ______ ____
ROOT
ATOM      1  C   UNL     1      47.887   5.911  15.429  0.00  0.00    +0.000 C 
ENDROOT
BRANCH   1   2
ATOM      2  C   UNL     1      47.976   5.684  13.906  0.00  0.00    +0.000 C 
ATOM      3  C   UNL     1      47.068   4.539  13.433  0.00  0.00    +0.000 C 
ATOM      4  C   UNL     1      45.589   4.914  13.471  0.00  0.00    +0.000 C 
ATOM      5  C   UNL     1      45.280   6.165  12.628  0.00  0.00    +0.000 C 
ATOM      6  C   UNL     1      46.194   7.328  13.048  0.00  0.00    +0.000 C 
ATOM      7  C   UNL     1      47.679   6.972  13.121  0.00  0.00    +0.000 C 
BRANCH   5   8
ATOM      8  C   UNL     1      45.324   5.881  11.105  0.00  0.00    +0.000 C 
BRANCH   8   9
ATOM      9  N   UNL     1      43.968   5.582  10.643  0.00  0.00    +0.000 NA
ATOM     10  H   UNL     1      43.778   6.088   9.778  0.00  0.00    +0.000 HD
BRANCH   9  11
ATOM     11  C   UNL     1      43.706   4.163  10.437  0.00  0.00    +0.000 C 
BRANCH  11  12
ATOM     12  C   UNL     1      44.661   3.610   9.409  0.00  0.00    +0.000 A 
ATOM     13  C   UNL     1      45.043   2.263   9.419  0.00  0.00    +0.000 A 
ATOM     14  C   UNL     1      45.903   1.775   8.439  0.00  0.00    +0.000 A 
ATOM     15  C   UNL     1      46.362   2.655   7.475  0.00  0.00    +0.000 A 
ATOM     16  N   UNL     1      46.027   3.961   7.431  0.00  0.00    +0.000 NA
ATOM     17  C   UNL     1      45.185   4.407   8.396  0.00  0.00    +0.000 A 
ENDBRANCH  11  12
ENDBRANCH   9  11
ENDBRANCH   8   9
ENDBRANCH   5   8
ENDBRANCH   1   2
BRANCH   1  20
ATOM     18  O   UNL     1      48.116   5.178  18.195  0.00  0.00    +0.000 OA
ATOM     19  C   UNL     1      49.079   5.052  17.446  0.00  0.00    +0.000 C 
ATOM     20  N   UNL     1      49.031   5.335  16.104  0.00  0.00    +0.000 N 
ATOM     21  H   UNL     1      49.894   5.326  15.577  0.00  0.00    +0.000 HD
BRANCH  19  22
ATOM     22  C   UNL     1      50.357   4.502  17.915  0.00  0.00    +0.000 A 
ATOM     23  C   UNL     1      51.217   5.266  18.691  0.00  0.00    +0.000 A 
ATOM     24  S   UNL     1      52.593   4.406  19.221  0.00  0.00    +0.000 S 
ATOM     25  C   UNL     1      52.111   3.003  18.385  0.00  0.00    +0.000 A 
ATOM     26  N   UNL     1      52.852   1.862  18.433  0.00  0.00    +0.000 NA
ATOM     27  C   UNL     1      52.369   0.885  17.734  0.00  0.00    +0.000 A 
ATOM     28  N   UNL     1      51.233   0.954  16.975  0.00  0.00    +0.000 N 
ATOM     29  C   UNL     1      50.451   2.079  16.900  0.00  0.00    +0.000 A 
ATOM     30  O   UNL     1      49.422   2.095  16.233  0.00  0.00    +0.000 OA
ATOM     31  C   UNL     1      50.928   3.197  17.698  0.00  0.00    +0.000 A 
ATOM     32  H   UNL     1      50.913   0.156  16.445  0.00  0.00    +0.000 HD
ENDBRANCH  19  22
ENDBRANCH   1  20
TORSDOF 7
ENDMDL
MODEL 6
REMARK VINA RESULT:    -6.763      3.919      9.278
REMARK INTER + INTRA:         -10.763
REMARK INTER:                  -9.150
REMARK INTRA:                  -1.613
REMARK UNBOUND:                -1.232
REMARK  Name = 
REMARK  7 active torsions:
REMARK  status: ('A' for Active; 'I' for Inactive)
REMARK    1  A    between atoms: C_2  and  C_20
REMARK    2  A    between atoms: N_3  and  C_4
REMARK    3  A    between atoms: C_4  and  C_5
REMARK    4  A    between atoms: C_8  and  C_9
REMARK    5  A    between atoms: C_9  and  N_10
REMARK    6  A    between atoms: N_10  and  C_11
REMARK    7  A    between atoms: C_11  and  C_12
REMARK                            x       y       z     vdW  Elec       q    Type
REMARK                         _______ _______ _______ _____ _____    ______ ____
ROOT
ATOM      1  C   UNL     1      47.381   3.488  16.518  0.00  0.00    +0.000 C 
ENDROOT
BRANCH   1   2
ATOM      2  C   UNL     1      47.876   4.231  17.775  0.00  0.00    +0.000 C 
ATOM      3  C   UNL     1      48.980   3.459  18.513  0.00  0.00    +0.000 C 
ATOM      4  C   UNL     1      50.308   3.479  17.761  0.00  0.00    +0.000 C 
ATOM      5  C   UNL     1      50.808   4.910  17.493  0.00  0.00    +0.000 C 
ATOM      6  C   UNL     1      49.716   5.729  16.783  0.00  0.00    +0.000 C 
ATOM      7  C   UNL     1      48.341   5.659  17.447  0.00  0.00    +0.000 C 
BRANCH   5   8
ATOM      8  C   UNL     1      51.348   5.601  18.770  0.00  0.00    +0.000 C 
BRANCH   8   9
ATOM      9  N   UNL     1      51.660   6.995  18.453  0.00  0.00    +0.000 NA
ATOM     10  H   UNL     1      51.183   7.270  17.594  0.00  0.00    +0.000 HD
BRANCH   9  11
ATOM     11  C   UNL     1      51.324   7.939  19.512  0.00  0.00    +0.000 C 
BRANCH  11  12
ATOM     12  C   UNL     1      49.864   8.308  19.425  0.00  0.00    +0.000 A 
ATOM     13  C   UNL     1      48.947   7.890  20.397  0.00  0.00    +0.000 A 
ATOM     14  C   UNL     1      47.611   8.272  20.305  0.00  0.00    +0.000 A 
ATOM     15  C   UNL     1      47.229   9.061  19.234  0.00  0.00    +0.000 A 
ATOM     16  N   UNL     1      48.076   9.479  18.271  0.00  0.00    +0.000 NA
ATOM     17  C   UNL     1      49.370   9.096  18.389  0.00  0.00    +0.000 A 
ENDBRANCH  11  12
ENDBRANCH   9  11
ENDBRANCH   8   9
ENDBRANCH   5   8
ENDBRANCH   1   2
BRANCH   1  20
ATOM     18  O   UNL     1      47.162   3.200  13.670  0.00  0.00    +0.000 OA
ATOM     19  C   UNL     1      46.759   4.222  14.216  0.00  0.00    +0.000 C 
ATOM     20  N   UNL     1      46.786   4.411  15.575  0.00  0.00    +0.000 N 
ATOM     21  H   UNL     1      46.553   5.325  15.941  0.00  0.00    +0.000 HD
BRANCH  19  22
ATOM     22  C   UNL     1      46.130   5.309  13.455  0.00  0.00    +0.000 A 
ATOM     23  C   UNL     1      46.803   6.501  13.232  0.00  0.00    +0.000 A 
ATOM     24  S   UNL     1      45.942   7.588  12.235  0.00  0.00    +0.000 S 
ATOM     25  C   UNL     1      44.620   6.521  12.116  0.00  0.00    +0.000 A 
ATOM     26  N   UNL     1      43.521   6.837  11.377  0.00  0.00    +0.000 NA
ATOM     27  C   UNL     1      42.591   5.936  11.395  0.00  0.00    +0.000 A 
ATOM     28  N   UNL     1      42.648   4.769  12.104  0.00  0.00    +0.000 N 
ATOM     29  C   UNL     1      43.735   4.404  12.859  0.00  0.00    +0.000 A 
ATOM     30  O   UNL     1      43.764   3.334  13.457  0.00  0.00    +0.000 OA
ATOM     31  C   UNL     1      44.827   5.364  12.842  0.00  0.00    +0.000 A 
ATOM     32  H   UNL     1      41.883   4.109  12.083  0.00  0.00    +0.000 HD
ENDBRANCH  19  22
ENDBRANCH   1  20
TORSDOF 7
ENDMDL
MODEL 7
REMARK VINA RESULT:    -6.617      3.539      7.724
REMARK INTER + INTRA:         -10.556
REMARK INTER:                  -8.650
REMARK INTRA:                  -1.907
REMARK UNBOUND:                -1.232
REMARK  Name = 
REMARK  7 active torsions:
REMARK  status: ('A' for Active; 'I' for Inactive)
REMARK    1  A    between atoms: C_2  and  C_20
REMARK    2  A    between atoms: N_3  and  C_4
REMARK    3  A    between atoms: C_4  and  C_5
REMARK    4  A    between atoms: C_8  and  C_9
REMARK    5  A    between atoms: C_9  and  N_10
REMARK    6  A    between atoms: N_10  and  C_11
REMARK    7  A    between atoms: C_11  and  C_12
REMARK                            x       y       z     vdW  Elec       q    Type
REMARK                         _______ _______ _______ _____ _____    ______ ____
ROOT
ATOM      1  C   UNL     1      48.329   9.295  15.177  0.00  0.00    +0.000 C 
ENDROOT
BRANCH   1   2
ATOM      2  C   UNL     1      48.599   8.714  16.580  0.00  0.00    +0.000 C 
ATOM      3  C   UNL     1      48.687   7.181  16.569  0.00  0.00    +0.000 C 
ATOM      4  C   UNL     1      49.972   6.675  15.918  0.00  0.00    +0.000 C 
ATOM      5  C   UNL     1      51.233   7.233  16.601  0.00  0.00    +0.000 C 
ATOM      6  C   UNL     1      51.169   8.769  16.662  0.00  0.00    +0.000 C 
ATOM      7  C   UNL     1      49.857   9.325  17.217  0.00  0.00    +0.000 C 
BRANCH   5   8
ATOM      8  C   UNL     1      51.499   6.584  17.982  0.00  0.00    +0.000 C 
BRANCH   8   9
ATOM      9  N   UNL     1      51.966   5.213  17.774  0.00  0.00    +0.000 NA
ATOM     10  H   UNL     1      52.976   5.167  17.907  0.00  0.00    +0.000 HD
BRANCH   9  11
ATOM     11  C   UNL     1      51.324   4.225  18.633  0.00  0.00    +0.000 C 
BRANCH  11  12
ATOM     12  C   UNL     1      50.254   3.494  17.862  0.00  0.00    +0.000 A 
ATOM     13  C   UNL     1      48.904   3.844  17.977  0.00  0.00    +0.000 A 
ATOM     14  C   UNL     1      47.942   3.170  17.229  0.00  0.00    +0.000 A 
ATOM     15  C   UNL     1      48.363   2.155  16.387  0.00  0.00    +0.000 A 
ATOM     16  N   UNL     1      49.651   1.779  16.251  0.00  0.00    +0.000 NA
ATOM     17  C   UNL     1      50.564   2.456  16.988  0.00  0.00    +0.000 A 
ENDBRANCH  11  12
ENDBRANCH   9  11
ENDBRANCH   8   9
ENDBRANCH   5   8
ENDBRANCH   1   2
BRANCH   1  20
ATOM     18  O   UNL     1      48.634   7.805  12.743  0.00  0.00    +0.000 OA
ATOM     19  C   UNL     1      47.539   7.866  13.291  0.00  0.00    +0.000 C 
ATOM     20  N   UNL     1      47.327   8.518  14.480  0.00  0.00    +0.000 N 
ATOM     21  H   UNL     1      46.376   8.633  14.807  0.00  0.00    +0.000 HD
BRANCH  19  22
ATOM     22  C   UNL     1      46.365   7.168  12.754  0.00  0.00    +0.000 A 
ATOM     23  C   UNL     1      45.365   7.866  12.091  0.00  0.00    +0.000 A 
ATOM     24  S   UNL     1      44.146   6.856  11.450  0.00  0.00    +0.000 S 
ATOM     25  C   UNL     1      44.888   5.461  12.085  0.00  0.00    +0.000 A 
ATOM     26  N   UNL     1      44.355   4.224  11.882  0.00  0.00    +0.000 NA
ATOM     27  C   UNL     1      45.019   3.262  12.440  0.00  0.00    +0.000 A 
ATOM     28  N   UNL     1      46.144   3.427  13.200  0.00  0.00    +0.000 N 
ATOM     29  C   UNL     1      46.720   4.652  13.427  0.00  0.00    +0.000 A 
ATOM     30  O   UNL     1      47.747   4.759  14.088  0.00  0.00    +0.000 OA
ATOM     31  C   UNL     1      46.036   5.766  12.791  0.00  0.00    +0.000 A 
ATOM     32  H   UNL     1      46.612   2.634  13.616  0.00  0.00    +0.000 HD
ENDBRANCH  19  22
ENDBRANCH   1  20
TORSDOF 7
ENDMDL
MODEL 8
REMARK VINA RESULT:    -6.614      2.880      8.048
REMARK INTER + INTRA:         -10.552
REMARK INTER:                  -9.587
REMARK INTRA:                  -0.965
REMARK UNBOUND:                -1.232
REMARK  Name = 
REMARK  7 active torsions:
REMARK  status: ('A' for Active; 'I' for Inactive)
REMARK    1  A    between atoms: C_2  and  C_20
REMARK    2  A    between atoms: N_3  and  C_4
REMARK    3  A    between atoms: C_4  and  C_5
REMARK    4  A    between atoms: C_8  and  C_9
REMARK    5  A    between atoms: C_9  and  N_10
REMARK    6  A    between atoms: N_10  and  C_11
REMARK    7  A    between atoms: C_11  and  C_12
REMARK                            x       y       z     vdW  Elec       q    Type
REMARK                         _______ _______ _______ _____ _____    ______ ____
ROOT
ATOM      1  C   UNL     1      46.625   8.487  12.168  0.00  0.00    +0.000 C 
ENDROOT
BRANCH   1   2
ATOM      2  C   UNL     1      48.145   8.407  12.410  0.00  0.00    +0.000 C 
ATOM      3  C   UNL     1      48.613   9.369  13.511  0.00  0.00    +0.000 C 
ATOM      4  C   UNL     1      48.188   8.912  14.904  0.00  0.00    +0.000 C 
ATOM      5  C   UNL     1      48.700   7.500  15.239  0.00  0.00    +0.000 C 
ATOM      6  C   UNL     1      48.280   6.509  14.140  0.00  0.00    +0.000 C 
ATOM      7  C   UNL     1      48.597   6.969  12.717  0.00  0.00    +0.000 C 
BRANCH   5   8
ATOM      8  C   UNL     1      50.221   7.471  15.530  0.00  0.00    +0.000 C 
BRANCH   8   9
ATOM      9  N   UNL     1      50.459   6.633  16.705  0.00  0.00    +0.000 NA
ATOM     10  H   UNL     1      51.240   7.007  17.244  0.00  0.00    +0.000 HD
BRANCH   9  11
ATOM     11  C   UNL     1      49.301   6.484  17.578  0.00  0.00    +0.000 C 
BRANCH  11  12
ATOM     12  C   UNL     1      48.758   5.081  17.473  0.00  0.00    +0.000 A 
ATOM     13  C   UNL     1      49.609   3.975  17.364  0.00  0.00    +0.000 A 
ATOM     14  C   UNL     1      49.079   2.690  17.299  0.00  0.00    +0.000 A 
ATOM     15  C   UNL     1      47.702   2.548  17.341  0.00  0.00    +0.000 A 
ATOM     16  N   UNL     1      46.845   3.585  17.438  0.00  0.00    +0.000 NA
ATOM     17  C   UNL     1      47.391   4.823  17.503  0.00  0.00    +0.000 A 
ENDBRANCH  11  12
ENDBRANCH   9  11
ENDBRANCH   8   9
ENDBRANCH   5   8
ENDBRANCH   1   2
BRANCH   1  20
ATOM     18  O   UNL     1      44.005   7.806  11.211  0.00  0.00    +0.000 OA
ATOM     19  C   UNL     1      44.778   6.922  11.565  0.00  0.00    +0.000 C 
ATOM     20  N   UNL     1      46.060   7.167  11.988  0.00  0.00    +0.000 N 
ATOM     21  H   UNL     1      46.594   6.403  12.382  0.00  0.00    +0.000 HD
BRANCH  19  22
ATOM     22  C   UNL     1      44.415   5.501  11.489  0.00  0.00    +0.000 A 
ATOM     23  C   UNL     1      43.696   4.895  12.510  0.00  0.00    +0.000 A 
ATOM     24  S   UNL     1      43.284   3.272  12.175  0.00  0.00    +0.000 S 
ATOM     25  C   UNL     1      44.099   3.312  10.680  0.00  0.00    +0.000 A 
ATOM     26  N   UNL     1      44.122   2.226   9.860  0.00  0.00    +0.000 NA
ATOM     27  C   UNL     1      44.795   2.401   8.767  0.00  0.00    +0.000 A 
ATOM     28  N   UNL     1      45.465   3.547   8.436  0.00  0.00    +0.000 N 
ATOM     29  C   UNL     1      45.466   4.668   9.228  0.00  0.00    +0.000 A 
ATOM     30  O   UNL     1      46.052   5.689   8.885  0.00  0.00    +0.000 OA
ATOM     31  C   UNL     1      44.692   4.540  10.452  0.00  0.00    +0.000 A 
ATOM     32  H   UNL     1      45.980   3.616   7.570  0.00  0.00    +0.000 HD
ENDBRANCH  19  22
ENDBRANCH   1  20
TORSDOF 7
ENDMDL
MODEL 9
REMARK VINA RESULT:    -6.355      3.908      8.658
REMARK INTER + INTRA:         -10.187
REMARK INTER:                  -8.574
REMARK INTRA:                  -1.614
REMARK UNBOUND:                -1.232
REMARK  Name = 
REMARK  7 active torsions:
REMARK  status: ('A' for Active; 'I' for Inactive)
REMARK    1  A    between atoms: C_2  and  C_20
REMARK    2  A    between atoms: N_3  and  C_4
REMARK    3  A    between atoms: C_4  and  C_5
REMARK    4  A    between atoms: C_8  and  C_9
REMARK    5  A    between atoms: C_9  and  N_10
REMARK    6  A    between atoms: N_10  and  C_11
REMARK    7  A    between atoms: C_11  and  C_12
REMARK                            x       y       z     vdW  Elec       q    Type
REMARK                         _______ _______ _______ _____ _____    ______ ____
ROOT
ATOM      1  C   UNL     1      47.199   3.614  16.708  0.00  0.00    +0.000 C 
ENDROOT
BRANCH   1   2
ATOM      2  C   UNL     1      48.674   3.962  16.995  0.00  0.00    +0.000 C 
ATOM      3  C   UNL     1      48.943   5.472  16.924  0.00  0.00    +0.000 C 
ATOM      4  C   UNL     1      48.349   6.226  18.111  0.00  0.00    +0.000 C 
ATOM      5  C   UNL     1      48.870   5.700  19.460  0.00  0.00    +0.000 C 
ATOM      6  C   UNL     1      48.650   4.180  19.558  0.00  0.00    +0.000 C 
ATOM      7  C   UNL     1      49.141   3.391  18.345  0.00  0.00    +0.000 C 
BRANCH   5   8
ATOM      8  C   UNL     1      50.336   6.117  19.736  0.00  0.00    +0.000 C 
BRANCH   8   9
ATOM      9  N   UNL     1      50.433   7.575  19.655  0.00  0.00    +0.000 NA
ATOM     10  H   UNL     1      50.384   7.977  20.592  0.00  0.00    +0.000 HD
BRANCH   9  11
ATOM     11  C   UNL     1      51.634   8.059  18.987  0.00  0.00    +0.000 C 
BRANCH  11  12
ATOM     12  C   UNL     1      51.362   8.246  17.515  0.00  0.00    +0.000 A 
ATOM     13  C   UNL     1      52.050   7.506  16.547  0.00  0.00    +0.000 A 
ATOM     14  C   UNL     1      51.756   7.679  15.197  0.00  0.00    +0.000 A 
ATOM     15  C   UNL     1      50.778   8.597  14.854  0.00  0.00    +0.000 A 
ATOM     16  N   UNL     1      50.095   9.336  15.753  0.00  0.00    +0.000 NA
ATOM     17  C   UNL     1      50.401   9.143  17.059  0.00  0.00    +0.000 A 
ENDBRANCH  11  12
ENDBRANCH   9  11
ENDBRANCH   8   9
ENDBRANCH   5   8
ENDBRANCH   1   2
BRANCH   1  20
ATOM     18  O   UNL     1      47.186   3.163  13.874  0.00  0.00    +0.000 OA
ATOM     19  C   UNL     1      46.731   4.206  14.330  0.00  0.00    +0.000 C 
ATOM     20  N   UNL     1      46.659   4.472  15.675  0.00  0.00    +0.000 N 
ATOM     21  H   UNL     1      46.389   5.400  15.971  0.00  0.00    +0.000 HD
BRANCH  19  22
ATOM     22  C   UNL     1      46.143   5.237  13.467  0.00  0.00    +0.000 A 
ATOM     23  C   UNL     1      46.861   6.376  13.129  0.00  0.00    +0.000 A 
ATOM     24  S   UNL     1      46.039   7.392  12.030  0.00  0.00    +0.000 S 
ATOM     25  C   UNL     1      44.677   6.371  12.014  0.00  0.00    +0.000 A 
ATOM     26  N   UNL     1      43.590   6.656  11.245  0.00  0.00    +0.000 NA
ATOM     27  C   UNL     1      42.626   5.797  11.350  0.00  0.00    +0.000 A 
ATOM     28  N   UNL     1      42.640   4.703  12.169  0.00  0.00    +0.000 N 
ATOM     29  C   UNL     1      43.714   4.372  12.958  0.00  0.00    +0.000 A 
ATOM     30  O   UNL     1      43.703   3.365  13.657  0.00  0.00    +0.000 OA
ATOM     31  C   UNL     1      44.842   5.283  12.849  0.00  0.00    +0.000 A 
ATOM     32  H   UNL     1      41.849   4.074  12.212  0.00  0.00    +0.000 HD
ENDBRANCH  19  22
ENDBRANCH   1  20
TORSDOF 7
ENDMDL
