MODEL 1
REMARK VINA RESULT:    -7.698      0.000      0.000
REMARK INTER + INTRA:         -11.267
REMARK INTER:                 -10.398
REMARK INTRA:                  -0.869
REMARK UNBOUND:                -0.869
REMARK  Name = 
REMARK  7 active torsions:
REMARK  status: ('A' for Active; 'I' for Inactive)
REMARK    1  A    between atoms: C_1  and  C_2
REMARK    2  A    between atoms: C_2  and  C_3
REMARK    3  A    between atoms: C_2  and  C_15
REMARK    4  A    between atoms: C_3  and  N_4
REMARK    5  A    between atoms: N_4  and  C_5
REMARK    6  A    between atoms: C_8  and  C_9
REMARK    7  A    between atoms: C_19  and  C_20
REMARK                            x       y       z     vdW  Elec       q    Type
REMARK                         _______ _______ _______ _____ _____    ______ ____
ROOT
ATOM      1  N   UNL     1      43.771   5.040   9.902  0.00  0.00    +0.000 N 
ATOM      2  H   UNL     1      43.160   5.487   9.216  0.00  0.00    +0.000 HD
ENDROOT
BRANCH   1   3
ATOM      3  C   UNL     1      44.573   4.069   9.263  0.00  0.00    +0.000 A 
ATOM      4  C   UNL     1      45.481   4.427   8.258  0.00  0.00    +0.000 A 
ATOM      5  C   UNL     1      46.287   3.477   7.625  0.00  0.00    +0.000 A 
ATOM      6  C   UNL     1      46.230   2.135   8.009  0.00  0.00    +0.000 A 
ATOM      7  C   UNL     1      45.387   1.767   9.066  0.00  0.00    +0.000 A 
ATOM      8  C   UNL     1      44.581   2.725   9.690  0.00  0.00    +0.000 A 
ATOM      9 CL   UNL     1      43.548   2.207  10.981  0.00  0.00    +0.000 Cl
BRANCH   6  10
ATOM     10  C   UNL     1      47.032   1.074   7.338  0.00  0.00    +0.000 C 
ATOM     11  N   UNL     1      46.785  -0.233   7.655  0.00  0.00    +0.000 N 
ATOM     12  O   UNL     1      47.909   1.354   6.531  0.00  0.00    +0.000 OA
ATOM     13  H   UNL     1      46.121  -0.558   8.339  0.00  0.00    +0.000 HD
ATOM     14  H   UNL     1      47.372  -0.926   7.207  0.00  0.00    +0.000 HD
ENDBRANCH   6  10
ENDBRANCH   1   3
BRANCH   1  15
ATOM     15  C   UNL     1      44.469   6.014  10.737  0.00  0.00    +0.000 C 
BRANCH  15  17
ATOM     16  C   UNL     1      43.103   5.237  12.768  0.00  0.00    +0.000 C 
ATOM     17  C   UNL     1      44.434   5.524  12.149  0.00  0.00    +0.000 C 
BRANCH  17  18
ATOM     18  C   UNL     1      45.633   5.653  12.989  0.00  0.00    +0.000 A 
ATOM     19  C   UNL     1      46.552   6.678  12.738  0.00  0.00    +0.000 A 
ATOM     20  C   UNL     1      47.730   6.775  13.475  0.00  0.00    +0.000 A 
ATOM     21  C   UNL     1      47.997   5.857  14.488  0.00  0.00    +0.000 A 
ATOM     22  C   UNL     1      47.076   4.845  14.773  0.00  0.00    +0.000 A 
ATOM     23  C   UNL     1      45.896   4.745  14.022  0.00  0.00    +0.000 A 
BRANCH  22  24
ATOM     24  C   UNL     1      47.341   3.906  15.824  0.00  0.00    +0.000 C 
ATOM     25  N   UNL     1      47.553   3.147  16.673  0.00  0.00    +0.000 NA
ENDBRANCH  22  24
ENDBRANCH  17  18
ENDBRANCH  15  17
ENDBRANCH   1  15
TORSDOF 6
ENDMDL
MODEL 2
REMARK VINA RESULT:    -7.648      2.875      6.264
REMARK INTER + INTRA:         -11.201
REMARK INTER:                  -9.984
REMARK INTRA:                  -1.216
REMARK UNBOUND:                -0.869
REMARK  Name = 
REMARK  7 active torsions:
REMARK  status: ('A' for Active; 'I' for Inactive)
REMARK    1  A    between atoms: C_1  and  C_2
REMARK    2  A    between atoms: C_2  and  C_3
REMARK    3  A    between atoms: C_2  and  C_15
REMARK    4  A    between atoms: C_3  and  N_4
REMARK    5  A    between atoms: N_4  and  C_5
REMARK    6  A    between atoms: C_8  and  C_9
REMARK    7  A    between atoms: C_19  and  C_20
REMARK                            x       y       z     vdW  Elec       q    Type
REMARK                         _______ _______ _______ _____ _____    ______ ____
ROOT
ATOM      1  N   UNL     1      43.944   5.440  12.568  0.00  0.00    +0.000 N 
ATOM      2  H   UNL     1      44.015   4.612  13.162  0.00  0.00    +0.000 HD
ENDROOT
BRANCH   1   3
ATOM      3  C   UNL     1      45.197   6.088  12.503  0.00  0.00    +0.000 A 
ATOM      4  C   UNL     1      45.292   7.453  12.200  0.00  0.00    +0.000 A 
ATOM      5  C   UNL     1      46.525   8.107  12.142  0.00  0.00    +0.000 A 
ATOM      6  C   UNL     1      47.706   7.416  12.424  0.00  0.00    +0.000 A 
ATOM      7  C   UNL     1      47.628   6.071  12.807  0.00  0.00    +0.000 A 
ATOM      8  C   UNL     1      46.389   5.423  12.858  0.00  0.00    +0.000 A 
ATOM      9 CL   UNL     1      46.359   3.754  13.324  0.00  0.00    +0.000 Cl
BRANCH   6  10
ATOM     10  C   UNL     1      49.049   8.052  12.333  0.00  0.00    +0.000 C 
ATOM     11  N   UNL     1      50.123   7.395  12.868  0.00  0.00    +0.000 N 
ATOM     12  O   UNL     1      49.200   9.148  11.807  0.00  0.00    +0.000 OA
ATOM     13  H   UNL     1      50.090   6.517  13.361  0.00  0.00    +0.000 HD
ATOM     14  H   UNL     1      51.015   7.872  12.821  0.00  0.00    +0.000 HD
ENDBRANCH   6  10
ENDBRANCH   1   3
BRANCH   1  15
ATOM     15  C   UNL     1      43.294   5.151  11.292  0.00  0.00    +0.000 C 
BRANCH  15  17
ATOM     16  C   UNL     1      43.322   2.630  11.782  0.00  0.00    +0.000 C 
ATOM     17  C   UNL     1      43.680   3.767  10.878  0.00  0.00    +0.000 C 
BRANCH  17  18
ATOM     18  C   UNL     1      44.664   3.581   9.804  0.00  0.00    +0.000 A 
ATOM     19  C   UNL     1      45.169   4.695   9.123  0.00  0.00    +0.000 A 
ATOM     20  C   UNL     1      46.048   4.538   8.053  0.00  0.00    +0.000 A 
ATOM     21  C   UNL     1      46.449   3.262   7.661  0.00  0.00    +0.000 A 
ATOM     22  C   UNL     1      45.978   2.140   8.348  0.00  0.00    +0.000 A 
ATOM     23  C   UNL     1      45.086   2.303   9.418  0.00  0.00    +0.000 A 
BRANCH  22  24
ATOM     24  C   UNL     1      46.398   0.827   7.956  0.00  0.00    +0.000 C 
ATOM     25  N   UNL     1      46.740  -0.235   7.642  0.00  0.00    +0.000 NA
ENDBRANCH  22  24
ENDBRANCH  17  18
ENDBRANCH  15  17
ENDBRANCH   1  15
TORSDOF 6
ENDMDL
MODEL 3
REMARK VINA RESULT:    -7.362      1.521      2.077
REMARK INTER + INTRA:         -10.813
REMARK INTER:                  -9.871
REMARK INTRA:                  -0.942
REMARK UNBOUND:                -0.869
REMARK  Name = 
REMARK  7 active torsions:
REMARK  status: ('A' for Active; 'I' for Inactive)
REMARK    1  A    between atoms: C_1  and  C_2
REMARK    2  A    between atoms: C_2  and  C_3
REMARK    3  A    between atoms: C_2  and  C_15
REMARK    4  A    between atoms: C_3  and  N_4
REMARK    5  A    between atoms: N_4  and  C_5
REMARK    6  A    between atoms: C_8  and  C_9
REMARK    7  A    between atoms: C_19  and  C_20
REMARK                            x       y       z     vdW  Elec       q    Type
REMARK                         _______ _______ _______ _____ _____    ______ ____
ROOT
ATOM      1  N   UNL     1      43.739   5.050   9.870  0.00  0.00    +0.000 N 
ATOM      2  H   UNL     1      43.132   5.488   9.175  0.00  0.00    +0.000 HD
ENDROOT
BRANCH   1   3
ATOM      3  C   UNL     1      44.547   4.074   9.248  0.00  0.00    +0.000 A 
ATOM      4  C   UNL     1      45.450   4.420   8.234  0.00  0.00    +0.000 A 
ATOM      5  C   UNL     1      46.262   3.464   7.617  0.00  0.00    +0.000 A 
ATOM      6  C   UNL     1      46.217   2.129   8.026  0.00  0.00    +0.000 A 
ATOM      7  C   UNL     1      45.380   1.775   9.092  0.00  0.00    +0.000 A 
ATOM      8  C   UNL     1      44.568   2.738   9.701  0.00  0.00    +0.000 A 
ATOM      9 CL   UNL     1      43.542   2.235  11.003  0.00  0.00    +0.000 Cl
BRANCH   6  10
ATOM     10  C   UNL     1      47.026   1.063   7.374  0.00  0.00    +0.000 C 
ATOM     11  N   UNL     1      46.762  -0.243   7.683  0.00  0.00    +0.000 N 
ATOM     12  O   UNL     1      47.924   1.337   6.587  0.00  0.00    +0.000 OA
ATOM     13  H   UNL     1      46.080  -0.563   8.352  0.00  0.00    +0.000 HD
ATOM     14  H   UNL     1      47.354  -0.940   7.249  0.00  0.00    +0.000 HD
ENDBRANCH   6  10
ENDBRANCH   1   3
BRANCH   1  15
ATOM     15  C   UNL     1      44.429   6.034  10.700  0.00  0.00    +0.000 C 
BRANCH  15  17
ATOM     16  C   UNL     1      43.211   5.276  12.830  0.00  0.00    +0.000 C 
ATOM     17  C   UNL     1      44.494   5.501  12.095  0.00  0.00    +0.000 C 
BRANCH  17  18
ATOM     18  C   UNL     1      45.771   5.526  12.821  0.00  0.00    +0.000 A 
ATOM     19  C   UNL     1      45.928   4.760  13.981  0.00  0.00    +0.000 A 
ATOM     20  C   UNL     1      47.104   4.824  14.725  0.00  0.00    +0.000 A 
ATOM     21  C   UNL     1      48.150   5.645  14.307  0.00  0.00    +0.000 A 
ATOM     22  C   UNL     1      48.022   6.395  13.135  0.00  0.00    +0.000 A 
ATOM     23  C   UNL     1      46.833   6.334  12.394  0.00  0.00    +0.000 A 
BRANCH  22  24
ATOM     24  C   UNL     1      49.101   7.231  12.694  0.00  0.00    +0.000 C 
ATOM     25  N   UNL     1      49.971   7.907  12.337  0.00  0.00    +0.000 NA
ENDBRANCH  22  24
ENDBRANCH  17  18
ENDBRANCH  15  17
ENDBRANCH   1  15
TORSDOF 6
ENDMDL
MODEL 4
REMARK VINA RESULT:    -7.339      2.132      3.283
REMARK INTER + INTRA:         -10.782
REMARK INTER:                 -10.491
REMARK INTRA:                  -0.291
REMARK UNBOUND:                -0.869
REMARK  Name = 
REMARK  7 active torsions:
REMARK  status: ('A' for Active; 'I' for Inactive)
REMARK    1  A    between atoms: C_1  and  C_2
REMARK    2  A    between atoms: C_2  and  C_3
REMARK    3  A    between atoms: C_2  and  C_15
REMARK    4  A    between atoms: C_3  and  N_4
REMARK    5  A    between atoms: N_4  and  C_5
REMARK    6  A    between atoms: C_8  and  C_9
REMARK    7  A    between atoms: C_19  and  C_20
REMARK                            x       y       z     vdW  Elec       q    Type
REMARK                         _______ _______ _______ _____ _____    ______ ____
ROOT
ATOM      1  N   UNL     1      43.880   5.081   9.963  0.00  0.00    +0.000 N 
ATOM      2  H   UNL     1      44.147   6.007   9.623  0.00  0.00    +0.000 HD
ENDROOT
BRANCH   1   3
ATOM      3  C   UNL     1      44.652   4.095   9.312  0.00  0.00    +0.000 A 
ATOM      4  C   UNL     1      45.623   4.444   8.364  0.00  0.00    +0.000 A 
ATOM      5  C   UNL     1      46.400   3.477   7.719  0.00  0.00    +0.000 A 
ATOM      6  C   UNL     1      46.250   2.125   8.034  0.00  0.00    +0.000 A 
ATOM      7  C   UNL     1      45.341   1.760   9.037  0.00  0.00    +0.000 A 
ATOM      8  C   UNL     1      44.565   2.734   9.673  0.00  0.00    +0.000 A 
ATOM      9 CL   UNL     1      43.447   2.219  10.893  0.00  0.00    +0.000 Cl
BRANCH   6  10
ATOM     10  C   UNL     1      47.018   1.050   7.347  0.00  0.00    +0.000 C 
ATOM     11  N   UNL     1      46.743  -0.253   7.656  0.00  0.00    +0.000 N 
ATOM     12  O   UNL     1      47.892   1.316   6.532  0.00  0.00    +0.000 OA
ATOM     13  H   UNL     1      46.079  -0.567   8.345  0.00  0.00    +0.000 HD
ATOM     14  H   UNL     1      47.308  -0.957   7.197  0.00  0.00    +0.000 HD
ENDBRANCH   6  10
ENDBRANCH   1   3
BRANCH   1  15
ATOM     15  C   UNL     1      43.842   5.019  11.422  0.00  0.00    +0.000 C 
BRANCH  15  17
ATOM     16  C   UNL     1      45.863   4.150  12.747  0.00  0.00    +0.000 C 
ATOM     17  C   UNL     1      45.230   5.234  11.933  0.00  0.00    +0.000 C 
BRANCH  17  18
ATOM     18  C   UNL     1      45.805   6.586  11.921  0.00  0.00    +0.000 A 
ATOM     19  C   UNL     1      47.193   6.753  11.963  0.00  0.00    +0.000 A 
ATOM     20  C   UNL     1      47.757   8.025  12.026  0.00  0.00    +0.000 A 
ATOM     21  C   UNL     1      46.938   9.152  12.030  0.00  0.00    +0.000 A 
ATOM     22  C   UNL     1      45.550   9.005  11.960  0.00  0.00    +0.000 A 
ATOM     23  C   UNL     1      44.986   7.722  11.907  0.00  0.00    +0.000 A 
BRANCH  22  24
ATOM     24  C   UNL     1      44.703  10.163  11.951  0.00  0.00    +0.000 C 
ATOM     25  N   UNL     1      44.020  11.099  11.942  0.00  0.00    +0.000 NA
ENDBRANCH  22  24
ENDBRANCH  17  18
ENDBRANCH  15  17
ENDBRANCH   1  15
TORSDOF 6
ENDMDL
MODEL 5
REMARK VINA RESULT:    -7.283      2.308      3.307
REMARK INTER + INTRA:         -10.707
REMARK INTER:                  -9.843
REMARK INTRA:                  -0.864
REMARK UNBOUND:                -0.869
REMARK  Name = 
REMARK  7 active torsions:
REMARK  status: ('A' for Active; 'I' for Inactive)
REMARK    1  A    between atoms: C_1  and  C_2
REMARK    2  A    between atoms: C_2  and  C_3
REMARK    3  A    between atoms: C_2  and  C_15
REMARK    4  A    between atoms: C_3  and  N_4
REMARK    5  A    between atoms: N_4  and  C_5
REMARK    6  A    between atoms: C_8  and  C_9
REMARK    7  A    between atoms: C_19  and  C_20
REMARK                            x       y       z     vdW  Elec       q    Type
REMARK                         _______ _______ _______ _____ _____    ______ ____
ROOT
ATOM      1  N   UNL     1      44.134   3.315  10.738  0.00  0.00    +0.000 N 
ATOM      2  H   UNL     1      43.605   4.174  10.579  0.00  0.00    +0.000 HD
ENDROOT
BRANCH   1   3
ATOM      3  C   UNL     1      44.960   3.052   9.623  0.00  0.00    +0.000 A 
ATOM      4  C   UNL     1      45.111   1.751   9.125  0.00  0.00    +0.000 A 
ATOM      5  C   UNL     1      45.918   1.479   8.017  0.00  0.00    +0.000 A 
ATOM      6  C   UNL     1      46.573   2.516   7.349  0.00  0.00    +0.000 A 
ATOM      7  C   UNL     1      46.372   3.834   7.781  0.00  0.00    +0.000 A 
ATOM      8  C   UNL     1      45.566   4.096   8.894  0.00  0.00    +0.000 A 
ATOM      9 CL   UNL     1      45.369   5.744   9.390  0.00  0.00    +0.000 Cl
BRANCH   6  10
ATOM     10  C   UNL     1      47.480   2.279   6.192  0.00  0.00    +0.000 C 
ATOM     11  N   UNL     1      47.412   3.127   5.120  0.00  0.00    +0.000 N 
ATOM     12  O   UNL     1      48.263   1.338   6.180  0.00  0.00    +0.000 OA
ATOM     13  H   UNL     1      46.770   3.896   5.018  0.00  0.00    +0.000 HD
ATOM     14  H   UNL     1      48.017   2.916   4.337  0.00  0.00    +0.000 HD
ENDBRANCH   6  10
ENDBRANCH   1   3
BRANCH   1  15
ATOM     15  C   UNL     1      44.783   3.299  12.046  0.00  0.00    +0.000 C 
BRANCH  15  17
ATOM     16  C   UNL     1      42.942   4.708  13.154  0.00  0.00    +0.000 C 
ATOM     17  C   UNL     1      44.381   4.540  12.778  0.00  0.00    +0.000 C 
BRANCH  17  18
ATOM     18  C   UNL     1      45.298   5.687  12.815  0.00  0.00    +0.000 A 
ATOM     19  C   UNL     1      46.644   5.492  13.144  0.00  0.00    +0.000 A 
ATOM     20  C   UNL     1      47.515   6.574  13.256  0.00  0.00    +0.000 A 
ATOM     21  C   UNL     1      47.053   7.868  13.021  0.00  0.00    +0.000 A 
ATOM     22  C   UNL     1      45.719   8.079  12.663  0.00  0.00    +0.000 A 
ATOM     23  C   UNL     1      44.844   6.987  12.561  0.00  0.00    +0.000 A 
BRANCH  22  24
ATOM     24  C   UNL     1      45.244   9.407  12.408  0.00  0.00    +0.000 C 
ATOM     25  N   UNL     1      44.858  10.480  12.200  0.00  0.00    +0.000 NA
ENDBRANCH  22  24
ENDBRANCH  17  18
ENDBRANCH  15  17
ENDBRANCH   1  15
TORSDOF 6
ENDMDL
MODEL 6
REMARK VINA RESULT:    -6.131      3.673      6.753
REMARK INTER + INTRA:          -9.150
REMARK INTER:                  -8.194
REMARK INTRA:                  -0.957
REMARK UNBOUND:                -0.869
REMARK  Name = 
REMARK  7 active torsions:
REMARK  status: ('A' for Active; 'I' for Inactive)
REMARK    1  A    between atoms: C_1  and  C_2
REMARK    2  A    between atoms: C_2  and  C_3
REMARK    3  A    between atoms: C_2  and  C_15
REMARK    4  A    between atoms: C_3  and  N_4
REMARK    5  A    between atoms: N_4  and  C_5
REMARK    6  A    between atoms: C_8  and  C_9
REMARK    7  A    between atoms: C_19  and  C_20
REMARK                            x       y       z     vdW  Elec       q    Type
REMARK                         _______ _______ _______ _____ _____    ______ ____
ROOT
ATOM      1  N   UNL     1      45.043   6.840  13.295  0.00  0.00    +0.000 N 
ATOM      2  H   UNL     1      44.947   6.988  14.302  0.00  0.00    +0.000 HD
ENDROOT
BRANCH   1   3
ATOM      3  C   UNL     1      46.332   7.237  12.877  0.00  0.00    +0.000 A 
ATOM      4  C   UNL     1      47.408   6.339  12.898  0.00  0.00    +0.000 A 
ATOM      5  C   UNL     1      48.687   6.717  12.478  0.00  0.00    +0.000 A 
ATOM      6  C   UNL     1      48.917   8.005  11.989  0.00  0.00    +0.000 A 
ATOM      7  C   UNL     1      47.839   8.893  11.884  0.00  0.00    +0.000 A 
ATOM      8  C   UNL     1      46.564   8.507  12.311  0.00  0.00    +0.000 A 
ATOM      9 CL   UNL     1      45.274   9.656  12.171  0.00  0.00    +0.000 Cl
BRANCH   6  10
ATOM     10  C   UNL     1      50.267   8.474  11.571  0.00  0.00    +0.000 C 
ATOM     11  N   UNL     1      51.260   7.549  11.400  0.00  0.00    +0.000 N 
ATOM     12  O   UNL     1      50.501   9.664  11.396  0.00  0.00    +0.000 OA
ATOM     13  H   UNL     1      51.177   6.559  11.566  0.00  0.00    +0.000 HD
ATOM     14  H   UNL     1      52.174   7.906  11.151  0.00  0.00    +0.000 HD
ENDBRANCH   6  10
ENDBRANCH   1   3
BRANCH   1  15
ATOM     15  C   UNL     1      44.608   5.507  12.888  0.00  0.00    +0.000 C 
BRANCH  15  17
ATOM     16  C   UNL     1      43.138   6.647  11.117  0.00  0.00    +0.000 C 
ATOM     17  C   UNL     1      44.131   5.586  11.473  0.00  0.00    +0.000 C 
BRANCH  17  18
ATOM     18  C   UNL     1      44.370   4.456  10.565  0.00  0.00    +0.000 A 
ATOM     19  C   UNL     1      43.912   3.179  10.907  0.00  0.00    +0.000 A 
ATOM     20  C   UNL     1      44.190   2.081  10.096  0.00  0.00    +0.000 A 
ATOM     21  C   UNL     1      44.917   2.249   8.919  0.00  0.00    +0.000 A 
ATOM     22  C   UNL     1      45.358   3.522   8.547  0.00  0.00    +0.000 A 
ATOM     23  C   UNL     1      45.084   4.623   9.372  0.00  0.00    +0.000 A 
BRANCH  22  24
ATOM     24  C   UNL     1      46.095   3.700   7.331  0.00  0.00    +0.000 C 
ATOM     25  N   UNL     1      46.690   3.843   6.346  0.00  0.00    +0.000 NA
ENDBRANCH  22  24
ENDBRANCH  17  18
ENDBRANCH  15  17
ENDBRANCH   1  15
TORSDOF 6
ENDMDL
MODEL 7
REMARK VINA RESULT:    -6.067      3.647      7.135
REMARK INTER + INTRA:          -9.064
REMARK INTER:                  -8.343
REMARK INTRA:                  -0.722
REMARK UNBOUND:                -0.869
REMARK  Name = 
REMARK  7 active torsions:
REMARK  status: ('A' for Active; 'I' for Inactive)
REMARK    1  A    between atoms: C_1  and  C_2
REMARK    2  A    between atoms: C_2  and  C_3
REMARK    3  A    between atoms: C_2  and  C_15
REMARK    4  A    between atoms: C_3  and  N_4
REMARK    5  A    between atoms: N_4  and  C_5
REMARK    6  A    between atoms: C_8  and  C_9
REMARK    7  A    between atoms: C_19  and  C_20
REMARK                            x       y       z     vdW  Elec       q    Type
REMARK                         _______ _______ _______ _____ _____    ______ ____
ROOT
ATOM      1  N   UNL     1      47.974   7.234  13.431  0.00  0.00    +0.000 N 
ATOM      2  H   UNL     1      47.555   8.105  13.762  0.00  0.00    +0.000 HD
ENDROOT
BRANCH   1   3
ATOM      3  C   UNL     1      47.891   6.252  14.441  0.00  0.00    +0.000 A 
ATOM      4  C   UNL     1      47.191   5.056  14.233  0.00  0.00    +0.000 A 
ATOM      5  C   UNL     1      47.109   4.072  15.222  0.00  0.00    +0.000 A 
ATOM      6  C   UNL     1      47.763   4.243  16.445  0.00  0.00    +0.000 A 
ATOM      7  C   UNL     1      48.536   5.395  16.644  0.00  0.00    +0.000 A 
ATOM      8  C   UNL     1      48.608   6.377  15.650  0.00  0.00    +0.000 A 
ATOM      9 CL   UNL     1      49.567   7.785  15.961  0.00  0.00    +0.000 Cl
BRANCH   6  10
ATOM     10  C   UNL     1      47.674   3.249  17.549  0.00  0.00    +0.000 C 
ATOM     11  N   UNL     1      48.735   3.118  18.402  0.00  0.00    +0.000 N 
ATOM     12  O   UNL     1      46.682   2.544  17.692  0.00  0.00    +0.000 OA
ATOM     13  H   UNL     1      49.608   3.615  18.336  0.00  0.00    +0.000 HD
ATOM     14  H   UNL     1      48.655   2.408  19.119  0.00  0.00    +0.000 HD
ENDBRANCH   6  10
ENDBRANCH   1   3
BRANCH   1  15
ATOM     15  C   UNL     1      47.482   6.852  12.109  0.00  0.00    +0.000 C 
BRANCH  15  17
ATOM     16  C   UNL     1      45.591   8.535  12.545  0.00  0.00    +0.000 C 
ATOM     17  C   UNL     1      46.029   7.197  12.038  0.00  0.00    +0.000 C 
BRANCH  17  18
ATOM     18  C   UNL     1      45.044   6.134  11.799  0.00  0.00    +0.000 A 
ATOM     19  C   UNL     1      43.914   6.035  12.619  0.00  0.00    +0.000 A 
ATOM     20  C   UNL     1      43.004   4.992  12.458  0.00  0.00    +0.000 A 
ATOM     21  C   UNL     1      43.204   4.042  11.458  0.00  0.00    +0.000 A 
ATOM     22  C   UNL     1      44.311   4.141  10.611  0.00  0.00    +0.000 A 
ATOM     23  C   UNL     1      45.229   5.187  10.784  0.00  0.00    +0.000 A 
BRANCH  22  24
ATOM     24  C   UNL     1      44.512   3.172   9.574  0.00  0.00    +0.000 C 
ATOM     25  N   UNL     1      44.672   2.389   8.734  0.00  0.00    +0.000 NA
ENDBRANCH  22  24
ENDBRANCH  17  18
ENDBRANCH  15  17
ENDBRANCH   1  15
TORSDOF 6
ENDMDL
MODEL 8
REMARK VINA RESULT:    -6.038      3.784      7.724
REMARK INTER + INTRA:          -9.025
REMARK INTER:                  -8.442
REMARK INTRA:                  -0.583
REMARK UNBOUND:                -0.869
REMARK  Name = 
REMARK  7 active torsions:
REMARK  status: ('A' for Active; 'I' for Inactive)
REMARK    1  A    between atoms: C_1  and  C_2
REMARK    2  A    between atoms: C_2  and  C_3
REMARK    3  A    between atoms: C_2  and  C_15
REMARK    4  A    between atoms: C_3  and  N_4
REMARK    5  A    between atoms: N_4  and  C_5
REMARK    6  A    between atoms: C_8  and  C_9
REMARK    7  A    between atoms: C_19  and  C_20
REMARK                            x       y       z     vdW  Elec       q    Type
REMARK                         _______ _______ _______ _____ _____    ______ ____
ROOT
ATOM      1  N   UNL     1      46.977   5.290  13.355  0.00  0.00    +0.000 N 
ATOM      2  H   UNL     1      47.628   5.927  12.891  0.00  0.00    +0.000 HD
ENDROOT
BRANCH   1   3
ATOM      3  C   UNL     1      47.467   4.961  14.638  0.00  0.00    +0.000 A 
ATOM      4  C   UNL     1      47.319   3.670  15.161  0.00  0.00    +0.000 A 
ATOM      5  C   UNL     1      47.808   3.330  16.425  0.00  0.00    +0.000 A 
ATOM      6  C   UNL     1      48.496   4.271  17.193  0.00  0.00    +0.000 A 
ATOM      7  C   UNL     1      48.726   5.545  16.657  0.00  0.00    +0.000 A 
ATOM      8  C   UNL     1      48.229   5.878  15.392  0.00  0.00    +0.000 A 
ATOM      9 CL   UNL     1      48.532   7.474  14.789  0.00  0.00    +0.000 Cl
BRANCH   6  10
ATOM     10  C   UNL     1      48.998   3.977  18.564  0.00  0.00    +0.000 C 
ATOM     11  N   UNL     1      48.239   3.191  19.386  0.00  0.00    +0.000 N 
ATOM     12  O   UNL     1      50.061   4.436  18.964  0.00  0.00    +0.000 OA
ATOM     13  H   UNL     1      47.333   2.810  19.164  0.00  0.00    +0.000 HD
ATOM     14  H   UNL     1      48.593   3.041  20.322  0.00  0.00    +0.000 HD
ENDBRANCH   6  10
ENDBRANCH   1   3
BRANCH   1  15
ATOM     15  C   UNL     1      45.597   5.762  13.287  0.00  0.00    +0.000 C 
BRANCH  15  17
ATOM     16  C   UNL     1      44.901   7.460  11.490  0.00  0.00    +0.000 C 
ATOM     17  C   UNL     1      45.279   6.060  11.856  0.00  0.00    +0.000 C 
BRANCH  17  18
ATOM     18  C   UNL     1      45.017   4.952  10.928  0.00  0.00    +0.000 A 
ATOM     19  C   UNL     1      44.205   3.885  11.328  0.00  0.00    +0.000 A 
ATOM     20  C   UNL     1      44.002   2.790  10.492  0.00  0.00    +0.000 A 
ATOM     21  C   UNL     1      44.596   2.755   9.232  0.00  0.00    +0.000 A 
ATOM     22  C   UNL     1      45.387   3.825   8.804  0.00  0.00    +0.000 A 
ATOM     23  C   UNL     1      45.596   4.921   9.653  0.00  0.00    +0.000 A 
BRANCH  22  24
ATOM     24  C   UNL     1      45.990   3.798   7.503  0.00  0.00    +0.000 C 
ATOM     25  N   UNL     1      46.476   3.775   6.451  0.00  0.00    +0.000 NA
ENDBRANCH  22  24
ENDBRANCH  17  18
ENDBRANCH  15  17
ENDBRANCH   1  15
TORSDOF 6
ENDMDL
MODEL 9
REMARK VINA RESULT:    -5.926      3.242      5.152
REMARK INTER + INTRA:          -8.874
REMARK INTER:                  -8.116
REMARK INTRA:                  -0.758
REMARK UNBOUND:                -0.869
REMARK  Name = 
REMARK  7 active torsions:
REMARK  status: ('A' for Active; 'I' for Inactive)
REMARK    1  A    between atoms: C_1  and  C_2
REMARK    2  A    between atoms: C_2  and  C_3
REMARK    3  A    between atoms: C_2  and  C_15
REMARK    4  A    between atoms: C_3  and  N_4
REMARK    5  A    between atoms: N_4  and  C_5
REMARK    6  A    between atoms: C_8  and  C_9
REMARK    7  A    between atoms: C_19  and  C_20
REMARK                            x       y       z     vdW  Elec       q    Type
REMARK                         _______ _______ _______ _____ _____    ______ ____
ROOT
ATOM      1  N   UNL     1      47.074   7.734  13.716  0.00  0.00    +0.000 N 
ATOM      2  H   UNL     1      46.869   8.703  13.464  0.00  0.00    +0.000 HD
ENDROOT
BRANCH   1   3
ATOM      3  C   UNL     1      46.304   6.861  12.917  0.00  0.00    +0.000 A 
ATOM      4  C   UNL     1      46.386   5.472  13.076  0.00  0.00    +0.000 A 
ATOM      5  C   UNL     1      45.623   4.598  12.297  0.00  0.00    +0.000 A 
ATOM      6  C   UNL     1      44.722   5.096  11.354  0.00  0.00    +0.000 A 
ATOM      7  C   UNL     1      44.565   6.484  11.234  0.00  0.00    +0.000 A 
ATOM      8  C   UNL     1      45.337   7.350  12.015  0.00  0.00    +0.000 A 
ATOM      9 CL   UNL     1      45.109   9.056  11.809  0.00  0.00    +0.000 Cl
BRANCH   6  10
ATOM     10  C   UNL     1      43.917   4.211  10.467  0.00  0.00    +0.000 C 
ATOM     11  N   UNL     1      43.913   4.459   9.122  0.00  0.00    +0.000 N 
ATOM     12  O   UNL     1      43.254   3.288  10.922  0.00  0.00    +0.000 OA
ATOM     13  H   UNL     1      44.386   5.220   8.663  0.00  0.00    +0.000 HD
ATOM     14  H   UNL     1      43.328   3.860   8.553  0.00  0.00    +0.000 HD
ENDBRANCH   6  10
ENDBRANCH   1   3
BRANCH   1  15
ATOM     15  C   UNL     1      48.509   7.470  13.773  0.00  0.00    +0.000 C 
BRANCH  15  17
ATOM     16  C   UNL     1      49.439   9.052  15.570  0.00  0.00    +0.000 C 
ATOM     17  C   UNL     1      48.966   7.687  15.180  0.00  0.00    +0.000 C 
BRANCH  17  18
ATOM     18  C   UNL     1      49.257   6.527  16.033  0.00  0.00    +0.000 A 
ATOM     19  C   UNL     1      50.552   6.336  16.530  0.00  0.00    +0.000 A 
ATOM     20  C   UNL     1      50.868   5.206  17.280  0.00  0.00    +0.000 A 
ATOM     21  C   UNL     1      49.886   4.258  17.560  0.00  0.00    +0.000 A 
ATOM     22  C   UNL     1      48.581   4.446  17.097  0.00  0.00    +0.000 A 
ATOM     23  C   UNL     1      48.270   5.581  16.334  0.00  0.00    +0.000 A 
BRANCH  22  24
ATOM     24  C   UNL     1      47.565   3.479  17.394  0.00  0.00    +0.000 C 
ATOM     25  N   UNL     1      46.742   2.699  17.633  0.00  0.00    +0.000 NA
ENDBRANCH  22  24
ENDBRANCH  17  18
ENDBRANCH  15  17
ENDBRANCH   1  15
TORSDOF 6
ENDMDL
