MODEL 1
REMARK VINA RESULT:    -7.487      0.000      0.000
REMARK INTER + INTRA:         -10.296
REMARK INTER:                  -9.895
REMARK INTRA:                  -0.401
REMARK UNBOUND:                -0.401
REMARK  Name = 
REMARK  9 active torsions:
REMARK  status: ('A' for Active; 'I' for Inactive)
REMARK    1  A    between atoms: C_1  and  C_2
REMARK    2  A    between atoms: C_2  and  C_3
REMARK    3  A    between atoms: C_2  and  C_4
REMARK    4  A    between atoms: C_2  and  C_5
REMARK    5  A    between atoms: N_7  and  C_8
REMARK    6  A    between atoms: C_8  and  C_9
REMARK    7  A    between atoms: C_12  and  C_13
REMARK    8  A    between atoms: C_13  and  C_14
REMARK    9  A    between atoms: C_14  and  N_15
REMARK                            x       y       z     vdW  Elec       q    Type
REMARK                         _______ _______ _______ _____ _____    ______ ____
ROOT
ATOM      1  C   UNL     1      46.426   6.940  12.558  0.00  0.00    +0.000 A 
ATOM      2  C   UNL     1      45.772   5.825  12.060  0.00  0.00    +0.000 A 
ATOM      3  N   UNL     1      44.642   6.219  11.392  0.00  0.00    +0.000 N 
ATOM      4  C   UNL     1      44.560   7.593  11.381  0.00  0.00    +0.000 A 
ATOM      5  C   UNL     1      43.615   8.443  10.781  0.00  0.00    +0.000 A 
ATOM      6  C   UNL     1      43.783   9.816  10.940  0.00  0.00    +0.000 A 
ATOM      7  F   UNL     1      42.901  10.652  10.373  0.00  0.00    +0.000 F 
ATOM      8  C   UNL     1      44.838  10.338  11.672  0.00  0.00    +0.000 A 
ATOM      9  C   UNL     1      45.772   9.481  12.267  0.00  0.00    +0.000 A 
ATOM     10  C   UNL     1      45.652   8.077  12.116  0.00  0.00    +0.000 A 
ENDROOT
BRANCH   1  12
ATOM     11  C   UNL     1      48.971   6.892  12.533  0.00  0.00    +0.000 C 
ATOM     12  C   UNL     1      47.697   6.922  13.415  0.00  0.00    +0.000 C 
ATOM     13  C   UNL     1      47.726   5.661  14.303  0.00  0.00    +0.000 C 
ATOM     14  C   UNL     1      47.798   8.176  14.305  0.00  0.00    +0.000 C 
ENDBRANCH   1  12
BRANCH   3  15
ATOM     15  C   UNL     1      43.664   5.296  10.825  0.00  0.00    +0.000 C 
BRANCH  15  16
ATOM     16  C   UNL     1      44.329   4.330   9.883  0.00  0.00    +0.000 A 
ATOM     17  C   UNL     1      44.240   2.957  10.099  0.00  0.00    +0.000 A 
ATOM     18  C   UNL     1      44.977   2.097   9.291  0.00  0.00    +0.000 A 
ATOM     19  C   UNL     1      45.791   2.623   8.287  0.00  0.00    +0.000 A 
ATOM     20  C   UNL     1      45.787   4.000   8.113  0.00  0.00    +0.000 A 
ATOM     21  N   UNL     1      45.069   4.857   8.874  0.00  0.00    +0.000 NA
BRANCH  19  22
ATOM     22  C   UNL     1      46.702   1.742   7.477  0.00  0.00    +0.000 C 
BRANCH  22  23
ATOM     23  C   UNL     1      47.825   2.562   6.829  0.00  0.00    +0.000 C 
BRANCH  23  24
ATOM     24  N   UNL     1      48.474   1.811   5.756  0.00  0.00    +0.000 NA
ATOM     25  H   UNL     1      48.518   0.824   6.005  0.00  0.00    +0.000 HD
ATOM     26  H   UNL     1      49.442   2.123   5.669  0.00  0.00    +0.000 HD
ENDBRANCH  23  24
ENDBRANCH  22  23
ENDBRANCH  19  22
ENDBRANCH  15  16
ENDBRANCH   3  15
TORSDOF 6
ENDMDL
MODEL 2
REMARK VINA RESULT:    -7.377      2.186      3.596
REMARK INTER + INTRA:         -10.150
REMARK INTER:                  -9.512
REMARK INTRA:                  -0.638
REMARK UNBOUND:                -0.401
REMARK  Name = 
REMARK  9 active torsions:
REMARK  status: ('A' for Active; 'I' for Inactive)
REMARK    1  A    between atoms: C_1  and  C_2
REMARK    2  A    between atoms: C_2  and  C_3
REMARK    3  A    between atoms: C_2  and  C_4
REMARK    4  A    between atoms: C_2  and  C_5
REMARK    5  A    between atoms: N_7  and  C_8
REMARK    6  A    between atoms: C_8  and  C_9
REMARK    7  A    between atoms: C_12  and  C_13
REMARK    8  A    between atoms: C_13  and  C_14
REMARK    9  A    between atoms: C_14  and  N_15
REMARK                            x       y       z     vdW  Elec       q    Type
REMARK                         _______ _______ _______ _____ _____    ______ ____
ROOT
ATOM      1  C   UNL     1      46.127   7.818  12.154  0.00  0.00    +0.000 A 
ATOM      2  C   UNL     1      45.029   7.431  11.402  0.00  0.00    +0.000 A 
ATOM      3  N   UNL     1      44.823   6.085  11.553  0.00  0.00    +0.000 N 
ATOM      4  C   UNL     1      45.734   5.570  12.448  0.00  0.00    +0.000 A 
ATOM      5  C   UNL     1      45.879   4.265  12.949  0.00  0.00    +0.000 A 
ATOM      6  C   UNL     1      46.909   4.027  13.856  0.00  0.00    +0.000 A 
ATOM      7  F   UNL     1      47.066   2.794  14.357  0.00  0.00    +0.000 F 
ATOM      8  C   UNL     1      47.774   5.035  14.250  0.00  0.00    +0.000 A 
ATOM      9  C   UNL     1      47.621   6.332  13.742  0.00  0.00    +0.000 A 
ATOM     10  C   UNL     1      46.576   6.624  12.831  0.00  0.00    +0.000 A 
ENDROOT
BRANCH   1  12
ATOM     11  C   UNL     1      47.029   9.657  13.665  0.00  0.00    +0.000 C 
ATOM     12  C   UNL     1      46.720   9.231  12.208  0.00  0.00    +0.000 C 
ATOM     13  C   UNL     1      45.718  10.254  11.635  0.00  0.00    +0.000 C 
ATOM     14  C   UNL     1      48.044   9.319  11.424  0.00  0.00    +0.000 C 
ENDBRANCH   1  12
BRANCH   3  15
ATOM     15  C   UNL     1      43.811   5.325  10.826  0.00  0.00    +0.000 C 
BRANCH  15  16
ATOM     16  C   UNL     1      44.457   4.371   9.859  0.00  0.00    +0.000 A 
ATOM     17  C   UNL     1      44.243   2.999   9.970  0.00  0.00    +0.000 A 
ATOM     18  C   UNL     1      44.959   2.135   9.149  0.00  0.00    +0.000 A 
ATOM     19  C   UNL     1      45.878   2.655   8.236  0.00  0.00    +0.000 A 
ATOM     20  C   UNL     1      45.997   4.036   8.162  0.00  0.00    +0.000 A 
ATOM     21  N   UNL     1      45.302   4.898   8.937  0.00  0.00    +0.000 NA
BRANCH  19  22
ATOM     22  C   UNL     1      46.766   1.756   7.422  0.00  0.00    +0.000 C 
BRANCH  22  23
ATOM     23  C   UNL     1      47.905   2.551   6.771  0.00  0.00    +0.000 C 
BRANCH  23  24
ATOM     24  N   UNL     1      48.551   1.777   5.712  0.00  0.00    +0.000 NA
ATOM     25  H   UNL     1      49.289   2.333   5.282  0.00  0.00    +0.000 HD
ATOM     26  H   UNL     1      47.871   1.592   4.973  0.00  0.00    +0.000 HD
ENDBRANCH  23  24
ENDBRANCH  22  23
ENDBRANCH  19  22
ENDBRANCH  15  16
ENDBRANCH   3  15
TORSDOF 6
ENDMDL
MODEL 3
REMARK VINA RESULT:    -6.810      1.854      3.715
REMARK INTER + INTRA:          -9.401
REMARK INTER:                  -9.086
REMARK INTRA:                  -0.314
REMARK UNBOUND:                -0.401
REMARK  Name = 
REMARK  9 active torsions:
REMARK  status: ('A' for Active; 'I' for Inactive)
REMARK    1  A    between atoms: C_1  and  C_2
REMARK    2  A    between atoms: C_2  and  C_3
REMARK    3  A    between atoms: C_2  and  C_4
REMARK    4  A    between atoms: C_2  and  C_5
REMARK    5  A    between atoms: N_7  and  C_8
REMARK    6  A    between atoms: C_8  and  C_9
REMARK    7  A    between atoms: C_12  and  C_13
REMARK    8  A    between atoms: C_13  and  C_14
REMARK    9  A    between atoms: C_14  and  N_15
REMARK                            x       y       z     vdW  Elec       q    Type
REMARK                         _______ _______ _______ _____ _____    ______ ____
ROOT
ATOM      1  C   UNL     1      44.166   8.673  11.162  0.00  0.00    +0.000 A 
ATOM      2  C   UNL     1      43.626   7.404  11.027  0.00  0.00    +0.000 A 
ATOM      3  N   UNL     1      44.542   6.472  11.439  0.00  0.00    +0.000 N 
ATOM      4  C   UNL     1      45.673   7.103  11.909  0.00  0.00    +0.000 A 
ATOM      5  C   UNL     1      46.844   6.569  12.473  0.00  0.00    +0.000 A 
ATOM      6  C   UNL     1      47.842   7.459  12.862  0.00  0.00    +0.000 A 
ATOM      7  F   UNL     1      48.968   6.980  13.410  0.00  0.00    +0.000 F 
ATOM      8  C   UNL     1      47.699   8.828  12.694  0.00  0.00    +0.000 A 
ATOM      9  C   UNL     1      46.527   9.347  12.129  0.00  0.00    +0.000 A 
ATOM     10  C   UNL     1      45.478   8.481  11.735  0.00  0.00    +0.000 A 
ENDROOT
BRANCH   1  12
ATOM     11  C   UNL     1      41.943   9.814  10.676  0.00  0.00    +0.000 C 
ATOM     12  C   UNL     1      43.481   9.983  10.754  0.00  0.00    +0.000 C 
ATOM     13  C   UNL     1      43.963  10.428   9.359  0.00  0.00    +0.000 C 
ATOM     14  C   UNL     1      43.757  11.106  11.773  0.00  0.00    +0.000 C 
ENDBRANCH   1  12
BRANCH   3  15
ATOM     15  C   UNL     1      44.342   5.029  11.341  0.00  0.00    +0.000 C 
BRANCH  15  16
ATOM     16  C   UNL     1      44.782   4.524   9.994  0.00  0.00    +0.000 A 
ATOM     17  C   UNL     1      44.357   3.280   9.533  0.00  0.00    +0.000 A 
ATOM     18  C   UNL     1      44.888   2.782   8.347  0.00  0.00    +0.000 A 
ATOM     19  C   UNL     1      45.835   3.532   7.647  0.00  0.00    +0.000 A 
ATOM     20  C   UNL     1      46.169   4.779   8.157  0.00  0.00    +0.000 A 
ATOM     21  N   UNL     1      45.657   5.293   9.298  0.00  0.00    +0.000 NA
BRANCH  19  22
ATOM     22  C   UNL     1      46.529   2.978   6.434  0.00  0.00    +0.000 C 
BRANCH  22  23
ATOM     23  C   UNL     1      47.703   2.076   6.837  0.00  0.00    +0.000 C 
BRANCH  23  24
ATOM     24  N   UNL     1      48.578   1.809   5.697  0.00  0.00    +0.000 NA
ATOM     25  H   UNL     1      48.799   2.682   5.222  0.00  0.00    +0.000 HD
ATOM     26  H   UNL     1      48.076   1.237   5.018  0.00  0.00    +0.000 HD
ENDBRANCH  23  24
ENDBRANCH  22  23
ENDBRANCH  19  22
ENDBRANCH  15  16
ENDBRANCH   3  15
TORSDOF 6
ENDMDL
MODEL 4
REMARK VINA RESULT:    -6.395      1.555      2.177
REMARK INTER + INTRA:          -8.852
REMARK INTER:                  -8.142
REMARK INTRA:                  -0.710
REMARK UNBOUND:                -0.401
REMARK  Name = 
REMARK  9 active torsions:
REMARK  status: ('A' for Active; 'I' for Inactive)
REMARK    1  A    between atoms: C_1  and  C_2
REMARK    2  A    between atoms: C_2  and  C_3
REMARK    3  A    between atoms: C_2  and  C_4
REMARK    4  A    between atoms: C_2  and  C_5
REMARK    5  A    between atoms: N_7  and  C_8
REMARK    6  A    between atoms: C_8  and  C_9
REMARK    7  A    between atoms: C_12  and  C_13
REMARK    8  A    between atoms: C_13  and  C_14
REMARK    9  A    between atoms: C_14  and  N_15
REMARK                            x       y       z     vdW  Elec       q    Type
REMARK                         _______ _______ _______ _____ _____    ______ ____
ROOT
ATOM      1  C   UNL     1      47.490   8.392  12.749  0.00  0.00    +0.000 A 
ATOM      2  C   UNL     1      46.789   7.211  12.935  0.00  0.00    +0.000 A 
ATOM      3  N   UNL     1      45.502   7.369  12.492  0.00  0.00    +0.000 N 
ATOM      4  C   UNL     1      45.344   8.626  11.952  0.00  0.00    +0.000 A 
ATOM      5  C   UNL     1      44.228   9.218  11.337  0.00  0.00    +0.000 A 
ATOM      6  C   UNL     1      44.356  10.527  10.879  0.00  0.00    +0.000 A 
ATOM      7  F   UNL     1      43.310  11.115  10.281  0.00  0.00    +0.000 F 
ATOM      8  C   UNL     1      45.538  11.236  11.029  0.00  0.00    +0.000 A 
ATOM      9  C   UNL     1      46.643  10.635  11.646  0.00  0.00    +0.000 A 
ATOM     10  C   UNL     1      46.565   9.299  12.111  0.00  0.00    +0.000 A 
ENDROOT
BRANCH   1  12
ATOM     11  C   UNL     1      49.829   8.998  11.948  0.00  0.00    +0.000 C 
ATOM     12  C   UNL     1      48.943   8.643  13.168  0.00  0.00    +0.000 C 
ATOM     13  C   UNL     1      49.541   7.377  13.814  0.00  0.00    +0.000 C 
ATOM     14  C   UNL     1      49.050   9.820  14.157  0.00  0.00    +0.000 C 
ENDBRANCH   1  12
BRANCH   3  15
ATOM     15  C   UNL     1      44.460   6.356  12.627  0.00  0.00    +0.000 C 
BRANCH  15  16
ATOM     16  C   UNL     1      44.712   5.208  11.688  0.00  0.00    +0.000 A 
ATOM     17  C   UNL     1      45.057   5.444  10.359  0.00  0.00    +0.000 A 
ATOM     18  C   UNL     1      45.150   4.366   9.484  0.00  0.00    +0.000 A 
ATOM     19  C   UNL     1      44.893   3.076   9.950  0.00  0.00    +0.000 A 
ATOM     20  C   UNL     1      44.598   2.928  11.298  0.00  0.00    +0.000 A 
ATOM     21  N   UNL     1      44.516   3.955  12.173  0.00  0.00    +0.000 NA
BRANCH  19  22
ATOM     22  C   UNL     1      44.854   1.900   9.013  0.00  0.00    +0.000 C 
BRANCH  22  23
ATOM     23  C   UNL     1      46.155   1.799   8.206  0.00  0.00    +0.000 C 
BRANCH  23  24
ATOM     24  N   UNL     1      46.524   0.404   7.973  0.00  0.00    +0.000 NA
ATOM     25  H   UNL     1      47.344   0.362   7.369  0.00  0.00    +0.000 HD
ATOM     26  H   UNL     1      45.773  -0.059   7.461  0.00  0.00    +0.000 HD
ENDBRANCH  23  24
ENDBRANCH  22  23
ENDBRANCH  19  22
ENDBRANCH  15  16
ENDBRANCH   3  15
TORSDOF 6
ENDMDL
MODEL 5
REMARK VINA RESULT:    -6.310      4.457      7.102
REMARK INTER + INTRA:          -8.740
REMARK INTER:                  -8.355
REMARK INTRA:                  -0.385
REMARK UNBOUND:                -0.401
REMARK  Name = 
REMARK  9 active torsions:
REMARK  status: ('A' for Active; 'I' for Inactive)
REMARK    1  A    between atoms: C_1  and  C_2
REMARK    2  A    between atoms: C_2  and  C_3
REMARK    3  A    between atoms: C_2  and  C_4
REMARK    4  A    between atoms: C_2  and  C_5
REMARK    5  A    between atoms: N_7  and  C_8
REMARK    6  A    between atoms: C_8  and  C_9
REMARK    7  A    between atoms: C_12  and  C_13
REMARK    8  A    between atoms: C_13  and  C_14
REMARK    9  A    between atoms: C_14  and  N_15
REMARK                            x       y       z     vdW  Elec       q    Type
REMARK                         _______ _______ _______ _____ _____    ______ ____
ROOT
ATOM      1  C   UNL     1      48.091   6.663  13.550  0.00  0.00    +0.000 A 
ATOM      2  C   UNL     1      48.144   5.947  14.735  0.00  0.00    +0.000 A 
ATOM      3  N   UNL     1      47.172   4.981  14.730  0.00  0.00    +0.000 N 
ATOM      4  C   UNL     1      46.503   4.997  13.527  0.00  0.00    +0.000 A 
ATOM      5  C   UNL     1      45.473   4.171  13.047  0.00  0.00    +0.000 A 
ATOM      6  C   UNL     1      44.975   4.425  11.772  0.00  0.00    +0.000 A 
ATOM      7  F   UNL     1      43.997   3.647  11.285  0.00  0.00    +0.000 F 
ATOM      8  C   UNL     1      45.466   5.463  10.996  0.00  0.00    +0.000 A 
ATOM      9  C   UNL     1      46.492   6.282  11.485  0.00  0.00    +0.000 A 
ATOM     10  C   UNL     1      47.041   6.049  12.770  0.00  0.00    +0.000 A 
ENDROOT
BRANCH   1  12
ATOM     11  C   UNL     1      49.634   7.686  11.803  0.00  0.00    +0.000 C 
ATOM     12  C   UNL     1      48.971   7.865  13.193  0.00  0.00    +0.000 C 
ATOM     13  C   UNL     1      50.107   8.023  14.223  0.00  0.00    +0.000 C 
ATOM     14  C   UNL     1      48.151   9.169  13.133  0.00  0.00    +0.000 C 
ENDBRANCH   1  12
BRANCH   3  15
ATOM     15  C   UNL     1      46.880   4.108  15.862  0.00  0.00    +0.000 C 
BRANCH  15  16
ATOM     16  C   UNL     1      48.154   3.630  16.506  0.00  0.00    +0.000 A 
ATOM     17  C   UNL     1      48.764   4.381  17.508  0.00  0.00    +0.000 A 
ATOM     18  C   UNL     1      50.008   3.983  17.987  0.00  0.00    +0.000 A 
ATOM     19  C   UNL     1      50.621   2.847  17.455  0.00  0.00    +0.000 A 
ATOM     20  C   UNL     1      49.921   2.134  16.490  0.00  0.00    +0.000 A 
ATOM     21  N   UNL     1      48.706   2.490  16.019  0.00  0.00    +0.000 NA
BRANCH  19  22
ATOM     22  C   UNL     1      52.018   2.455  17.849  0.00  0.00    +0.000 C 
BRANCH  22  23
ATOM     23  C   UNL     1      52.342   1.031  17.379  0.00  0.00    +0.000 C 
BRANCH  23  24
ATOM     24  N   UNL     1      51.910   0.040  18.362  0.00  0.00    +0.000 NA
ATOM     25  H   UNL     1      51.391   0.500  19.109  0.00  0.00    +0.000 HD
ATOM     26  H   UNL     1      52.733  -0.372  18.803  0.00  0.00    +0.000 HD
ENDBRANCH  23  24
ENDBRANCH  22  23
ENDBRANCH  19  22
ENDBRANCH  15  16
ENDBRANCH   3  15
TORSDOF 6
ENDMDL
MODEL 6
REMARK VINA RESULT:    -6.101      2.286      3.326
REMARK INTER + INTRA:          -8.464
REMARK INTER:                  -8.141
REMARK INTRA:                  -0.323
REMARK UNBOUND:                -0.401
REMARK  Name = 
REMARK  9 active torsions:
REMARK  status: ('A' for Active; 'I' for Inactive)
REMARK    1  A    between atoms: C_1  and  C_2
REMARK    2  A    between atoms: C_2  and  C_3
REMARK    3  A    between atoms: C_2  and  C_4
REMARK    4  A    between atoms: C_2  and  C_5
REMARK    5  A    between atoms: N_7  and  C_8
REMARK    6  A    between atoms: C_8  and  C_9
REMARK    7  A    between atoms: C_12  and  C_13
REMARK    8  A    between atoms: C_13  and  C_14
REMARK    9  A    between atoms: C_14  and  N_15
REMARK                            x       y       z     vdW  Elec       q    Type
REMARK                         _______ _______ _______ _____ _____    ______ ____
ROOT
ATOM      1  C   UNL     1      47.305   4.993  14.936  0.00  0.00    +0.000 A 
ATOM      2  C   UNL     1      46.091   4.677  14.346  0.00  0.00    +0.000 A 
ATOM      3  N   UNL     1      45.873   5.508  13.278  0.00  0.00    +0.000 N 
ATOM      4  C   UNL     1      46.956   6.340  13.103  0.00  0.00    +0.000 A 
ATOM      5  C   UNL     1      47.206   7.314  12.122  0.00  0.00    +0.000 A 
ATOM      6  C   UNL     1      48.405   8.018  12.195  0.00  0.00    +0.000 A 
ATOM      7  F   UNL     1      48.674   8.948  11.267  0.00  0.00    +0.000 F 
ATOM      8  C   UNL     1      49.324   7.782  13.205  0.00  0.00    +0.000 A 
ATOM      9  C   UNL     1      49.062   6.810  14.180  0.00  0.00    +0.000 A 
ATOM     10  C   UNL     1      47.864   6.056  14.134  0.00  0.00    +0.000 A 
ENDROOT
BRANCH   1  12
ATOM     11  C   UNL     1      48.324   2.875  15.914  0.00  0.00    +0.000 C 
ATOM     12  C   UNL     1      47.884   4.334  16.193  0.00  0.00    +0.000 C 
ATOM     13  C   UNL     1      46.823   4.286  17.310  0.00  0.00    +0.000 C 
ATOM     14  C   UNL     1      49.129   5.087  16.703  0.00  0.00    +0.000 C 
ENDBRANCH   1  12
BRANCH   3  15
ATOM     15  C   UNL     1      44.646   5.519  12.487  0.00  0.00    +0.000 C 
BRANCH  15  16
ATOM     16  C   UNL     1      44.818   4.713  11.228  0.00  0.00    +0.000 A 
ATOM     17  C   UNL     1      44.625   3.334  11.240  0.00  0.00    +0.000 A 
ATOM     18  C   UNL     1      44.923   2.601  10.096  0.00  0.00    +0.000 A 
ATOM     19  C   UNL     1      45.413   3.256   8.965  0.00  0.00    +0.000 A 
ATOM     20  C   UNL     1      45.534   4.638   9.027  0.00  0.00    +0.000 A 
ATOM     21  N   UNL     1      45.237   5.375  10.120  0.00  0.00    +0.000 NA
BRANCH  19  22
ATOM     22  C   UNL     1      45.870   2.491   7.754  0.00  0.00    +0.000 C 
BRANCH  22  23
ATOM     23  C   UNL     1      46.606   3.408   6.770  0.00  0.00    +0.000 C 
BRANCH  23  24
ATOM     24  N   UNL     1      48.010   3.024   6.639  0.00  0.00    +0.000 NA
ATOM     25  H   UNL     1      48.435   2.957   7.562  0.00  0.00    +0.000 HD
ATOM     26  H   UNL     1      48.514   3.764   6.149  0.00  0.00    +0.000 HD
ENDBRANCH  23  24
ENDBRANCH  22  23
ENDBRANCH  19  22
ENDBRANCH  15  16
ENDBRANCH   3  15
TORSDOF 6
ENDMDL
MODEL 7
REMARK VINA RESULT:    -6.056      3.252      7.131
REMARK INTER + INTRA:          -8.405
REMARK INTER:                  -7.814
REMARK INTRA:                  -0.591
REMARK UNBOUND:                -0.401
REMARK  Name = 
REMARK  9 active torsions:
REMARK  status: ('A' for Active; 'I' for Inactive)
REMARK    1  A    between atoms: C_1  and  C_2
REMARK    2  A    between atoms: C_2  and  C_3
REMARK    3  A    between atoms: C_2  and  C_4
REMARK    4  A    between atoms: C_2  and  C_5
REMARK    5  A    between atoms: N_7  and  C_8
REMARK    6  A    between atoms: C_8  and  C_9
REMARK    7  A    between atoms: C_12  and  C_13
REMARK    8  A    between atoms: C_13  and  C_14
REMARK    9  A    between atoms: C_14  and  N_15
REMARK                            x       y       z     vdW  Elec       q    Type
REMARK                         _______ _______ _______ _____ _____    ______ ____
ROOT
ATOM      1  C   UNL     1      45.120   5.612  11.983  0.00  0.00    +0.000 A 
ATOM      2  C   UNL     1      46.294   5.242  12.619  0.00  0.00    +0.000 A 
ATOM      3  N   UNL     1      47.058   6.355  12.851  0.00  0.00    +0.000 N 
ATOM      4  C   UNL     1      46.384   7.481  12.435  0.00  0.00    +0.000 A 
ATOM      5  C   UNL     1      46.743   8.837  12.512  0.00  0.00    +0.000 A 
ATOM      6  C   UNL     1      45.852   9.776  11.998  0.00  0.00    +0.000 A 
ATOM      7  F   UNL     1      46.164  11.078  12.065  0.00  0.00    +0.000 F 
ATOM      8  C   UNL     1      44.652   9.395  11.418  0.00  0.00    +0.000 A 
ATOM      9  C   UNL     1      44.307   8.040  11.344  0.00  0.00    +0.000 A 
ATOM     10  C   UNL     1      45.174   7.051  11.871  0.00  0.00    +0.000 A 
ENDROOT
BRANCH   1  12
ATOM     11  C   UNL     1      44.185   3.249  12.133  0.00  0.00    +0.000 C 
ATOM     12  C   UNL     1      44.026   4.653  11.499  0.00  0.00    +0.000 C 
ATOM     13  C   UNL     1      44.108   4.476   9.969  0.00  0.00    +0.000 C 
ATOM     14  C   UNL     1      42.621   5.160  11.880  0.00  0.00    +0.000 C 
ENDBRANCH   1  12
BRANCH   3  15
ATOM     15  C   UNL     1      48.404   6.321  13.416  0.00  0.00    +0.000 C 
BRANCH  15  16
ATOM     16  C   UNL     1      48.347   6.281  14.920  0.00  0.00    +0.000 A 
ATOM     17  C   UNL     1      48.720   7.394  15.670  0.00  0.00    +0.000 A 
ATOM     18  C   UNL     1      48.786   7.283  17.055  0.00  0.00    +0.000 A 
ATOM     19  C   UNL     1      48.485   6.063  17.664  0.00  0.00    +0.000 A 
ATOM     20  C   UNL     1      48.081   5.019  16.843  0.00  0.00    +0.000 A 
ATOM     21  N   UNL     1      47.993   5.105  15.497  0.00  0.00    +0.000 NA
BRANCH  19  22
ATOM     22  C   UNL     1      48.668   5.861  19.143  0.00  0.00    +0.000 C 
BRANCH  22  23
ATOM     23  C   UNL     1      49.236   4.468  19.440  0.00  0.00    +0.000 C 
BRANCH  23  24
ATOM     24  N   UNL     1      48.408   3.758  20.413  0.00  0.00    +0.000 NA
ATOM     25  H   UNL     1      48.892   2.920  20.730  0.00  0.00    +0.000 HD
ATOM     26  H   UNL     1      47.557   3.434  19.953  0.00  0.00    +0.000 HD
ENDBRANCH  23  24
ENDBRANCH  22  23
ENDBRANCH  19  22
ENDBRANCH  15  16
ENDBRANCH   3  15
TORSDOF 6
ENDMDL
MODEL 8
REMARK VINA RESULT:    -5.884      2.644      6.749
REMARK INTER + INTRA:          -8.176
REMARK INTER:                  -7.526
REMARK INTRA:                  -0.650
REMARK UNBOUND:                -0.401
REMARK  Name = 
REMARK  9 active torsions:
REMARK  status: ('A' for Active; 'I' for Inactive)
REMARK    1  A    between atoms: C_1  and  C_2
REMARK    2  A    between atoms: C_2  and  C_3
REMARK    3  A    between atoms: C_2  and  C_4
REMARK    4  A    between atoms: C_2  and  C_5
REMARK    5  A    between atoms: N_7  and  C_8
REMARK    6  A    between atoms: C_8  and  C_9
REMARK    7  A    between atoms: C_12  and  C_13
REMARK    8  A    between atoms: C_13  and  C_14
REMARK    9  A    between atoms: C_14  and  N_15
REMARK                            x       y       z     vdW  Elec       q    Type
REMARK                         _______ _______ _______ _____ _____    ______ ____
ROOT
ATOM      1  C   UNL     1      45.399   4.262   9.353  0.00  0.00    +0.000 A 
ATOM      2  C   UNL     1      45.852   5.562   9.507  0.00  0.00    +0.000 A 
ATOM      3  N   UNL     1      45.388   6.070  10.692  0.00  0.00    +0.000 N 
ATOM      4  C   UNL     1      44.677   5.105  11.369  0.00  0.00    +0.000 A 
ATOM      5  C   UNL     1      44.061   5.146  12.631  0.00  0.00    +0.000 A 
ATOM      6  C   UNL     1      43.398   4.003  13.068  0.00  0.00    +0.000 A 
ATOM      7  F   UNL     1      42.807   4.010  14.272  0.00  0.00    +0.000 F 
ATOM      8  C   UNL     1      43.332   2.859  12.288  0.00  0.00    +0.000 A 
ATOM      9  C   UNL     1      43.948   2.831  11.030  0.00  0.00    +0.000 A 
ATOM     10  C   UNL     1      44.650   3.965  10.552  0.00  0.00    +0.000 A 
ENDROOT
BRANCH   1  12
ATOM     11  C   UNL     1      46.810   3.911   7.263  0.00  0.00    +0.000 C 
ATOM     12  C   UNL     1      45.650   3.367   8.134  0.00  0.00    +0.000 C 
ATOM     13  C   UNL     1      44.394   3.315   7.240  0.00  0.00    +0.000 C 
ATOM     14  C   UNL     1      46.038   1.935   8.553  0.00  0.00    +0.000 C 
ENDBRANCH   1  12
BRANCH   3  15
ATOM     15  C   UNL     1      45.593   7.449  11.127  0.00  0.00    +0.000 C 
BRANCH  15  16
ATOM     16  C   UNL     1      46.773   7.543  12.054  0.00  0.00    +0.000 A 
ATOM     17  C   UNL     1      48.019   7.055  11.665  0.00  0.00    +0.000 A 
ATOM     18  C   UNL     1      49.055   7.033  12.592  0.00  0.00    +0.000 A 
ATOM     19  C   UNL     1      48.828   7.492  13.891  0.00  0.00    +0.000 A 
ATOM     20  C   UNL     1      47.570   8.001  14.180  0.00  0.00    +0.000 A 
ATOM     21  N   UNL     1      46.550   8.049  13.294  0.00  0.00    +0.000 NA
BRANCH  19  22
ATOM     22  C   UNL     1      49.879   7.367  14.959  0.00  0.00    +0.000 C 
BRANCH  22  23
ATOM     23  C   UNL     1      49.284   6.788  16.249  0.00  0.00    +0.000 C 
BRANCH  23  24
ATOM     24  N   UNL     1      48.895   5.391  16.070  0.00  0.00    +0.000 NA
ATOM     25  H   UNL     1      47.884   5.327  15.957  0.00  0.00    +0.000 HD
ATOM     26  H   UNL     1      49.116   4.871  16.920  0.00  0.00    +0.000 HD
ENDBRANCH  23  24
ENDBRANCH  22  23
ENDBRANCH  19  22
ENDBRANCH  15  16
ENDBRANCH   3  15
TORSDOF 6
ENDMDL
MODEL 9
REMARK VINA RESULT:    -5.620      4.298      6.995
REMARK INTER + INTRA:          -7.829
REMARK INTER:                  -7.207
REMARK INTRA:                  -0.622
REMARK UNBOUND:                -0.401
REMARK  Name = 
REMARK  9 active torsions:
REMARK  status: ('A' for Active; 'I' for Inactive)
REMARK    1  A    between atoms: C_1  and  C_2
REMARK    2  A    between atoms: C_2  and  C_3
REMARK    3  A    between atoms: C_2  and  C_4
REMARK    4  A    between atoms: C_2  and  C_5
REMARK    5  A    between atoms: N_7  and  C_8
REMARK    6  A    between atoms: C_8  and  C_9
REMARK    7  A    between atoms: C_12  and  C_13
REMARK    8  A    between atoms: C_13  and  C_14
REMARK    9  A    between atoms: C_14  and  N_15
REMARK                            x       y       z     vdW  Elec       q    Type
REMARK                         _______ _______ _______ _____ _____    ______ ____
ROOT
ATOM      1  C   UNL     1      48.642   8.319  17.301  0.00  0.00    +0.000 A 
ATOM      2  C   UNL     1      48.617   8.282  15.916  0.00  0.00    +0.000 A 
ATOM      3  N   UNL     1      48.658   6.979  15.492  0.00  0.00    +0.000 N 
ATOM      4  C   UNL     1      48.648   6.133  16.579  0.00  0.00    +0.000 A 
ATOM      5  C   UNL     1      48.632   4.730  16.639  0.00  0.00    +0.000 A 
ATOM      6  C   UNL     1      48.628   4.133  17.897  0.00  0.00    +0.000 A 
ATOM      7  F   UNL     1      48.605   2.795  17.985  0.00  0.00    +0.000 F 
ATOM      8  C   UNL     1      48.651   4.888  19.059  0.00  0.00    +0.000 A 
ATOM      9  C   UNL     1      48.669   6.288  18.986  0.00  0.00    +0.000 A 
ATOM     10  C   UNL     1      48.655   6.938  17.728  0.00  0.00    +0.000 A 
ENDROOT
BRANCH   1  12
ATOM     11  C   UNL     1      48.557  10.863  17.288  0.00  0.00    +0.000 C 
ATOM     12  C   UNL     1      48.669   9.587  18.161  0.00  0.00    +0.000 C 
ATOM     13  C   UNL     1      49.998   9.680  18.937  0.00  0.00    +0.000 C 
ATOM     14  C   UNL     1      47.493   9.621  19.156  0.00  0.00    +0.000 C 
ENDBRANCH   1  12
BRANCH   3  15
ATOM     15  C   UNL     1      48.745   6.577  14.092  0.00  0.00    +0.000 C 
BRANCH  15  16
ATOM     16  C   UNL     1      47.413   6.083  13.598  0.00  0.00    +0.000 A 
ATOM     17  C   UNL     1      46.424   6.985  13.211  0.00  0.00    +0.000 A 
ATOM     18  C   UNL     1      45.160   6.503  12.889  0.00  0.00    +0.000 A 
ATOM     19  C   UNL     1      44.904   5.133  12.963  0.00  0.00    +0.000 A 
ATOM     20  C   UNL     1      45.959   4.302  13.316  0.00  0.00    +0.000 A 
ATOM     21  N   UNL     1      47.201   4.743  13.619  0.00  0.00    +0.000 NA
BRANCH  19  22
ATOM     22  C   UNL     1      43.521   4.583  12.750  0.00  0.00    +0.000 C 
BRANCH  22  23
ATOM     23  C   UNL     1      43.458   3.737  11.472  0.00  0.00    +0.000 C 
BRANCH  23  24
ATOM     24  N   UNL     1      43.025   2.372  11.764  0.00  0.00    +0.000 NA
ATOM     25  H   UNL     1      43.334   2.106  12.698  0.00  0.00    +0.000 HD
ATOM     26  H   UNL     1      43.490   1.730  11.121  0.00  0.00    +0.000 HD
ENDBRANCH  23  24
ENDBRANCH  22  23
ENDBRANCH  19  22
ENDBRANCH  15  16
ENDBRANCH   3  15
TORSDOF 6
ENDMDL
