MODEL 1
REMARK VINA RESULT:    -8.465      0.000      0.000
REMARK INTER + INTRA:         -11.954
REMARK INTER:                 -11.187
REMARK INTRA:                  -0.767
REMARK UNBOUND:                -0.767
REMARK  Name = 
REMARK  6 active torsions:
REMARK  status: ('A' for Active; 'I' for Inactive)
REMARK    1  A    between atoms: N_1  and  C_2
REMARK    2  A    between atoms: C_2  and  C_3
REMARK    3  A    between atoms: C_3  and  C_4
REMARK    4  A    between atoms: C_7  and  C_8
REMARK    5  A    between atoms: C_8  and  C_9
REMARK    6  A    between atoms: C_16  and  C_17
REMARK                            x       y       z     vdW  Elec       q    Type
REMARK                         _______ _______ _______ _____ _____    ______ ____
ROOT
ATOM      1  C   UNL     1      43.860   5.897  11.594  0.00  0.00    +0.000 A 
ATOM      2  N   UNL     1      43.788   7.130  11.065  0.00  0.00    +0.000 NA
ATOM      3  O   UNL     1      44.940   7.774  11.477  0.00  0.00    +0.000 OA
ATOM      4  C   UNL     1      45.641   6.955  12.303  0.00  0.00    +0.000 A 
ATOM      5  C   UNL     1      46.919   7.187  12.790  0.00  0.00    +0.000 A 
ATOM      6  C   UNL     1      47.439   6.205  13.632  0.00  0.00    +0.000 A 
ATOM      7  F   UNL     1      48.702   6.369  14.056  0.00  0.00    +0.000 F 
ATOM      8  C   UNL     1      46.695   5.082  14.017  0.00  0.00    +0.000 A 
ATOM      9  C   UNL     1      45.414   4.865  13.468  0.00  0.00    +0.000 A 
ATOM     10  C   UNL     1      44.909   5.807  12.552  0.00  0.00    +0.000 A 
ENDROOT
BRANCH   8  11
ATOM     11  C   UNL     1      47.211   4.089  14.997  0.00  0.00    +0.000 C 
ATOM     12  N   UNL     1      47.229   4.432  16.319  0.00  0.00    +0.000 N 
ATOM     13  O   UNL     1      47.603   2.985  14.635  0.00  0.00    +0.000 OA
ATOM     14  H   UNL     1      46.903   5.328  16.664  0.00  0.00    +0.000 HD
ATOM     15  H   UNL     1      47.549   3.746  16.989  0.00  0.00    +0.000 HD
ENDBRANCH   8  11
BRANCH   1  16
ATOM     16  C   UNL     1      43.066   4.786  10.991  0.00  0.00    +0.000 C 
BRANCH  16  20
ATOM     17  C   UNL     1      45.791   2.673   8.323  0.00  0.00    +0.000 A 
ATOM     18  C   UNL     1      45.677   4.068   8.278  0.00  0.00    +0.000 A 
ATOM     19  C   UNL     1      44.842   4.755   9.170  0.00  0.00    +0.000 A 
ATOM     20  C   UNL     1      44.085   4.060  10.121  0.00  0.00    +0.000 A 
ATOM     21  C   UNL     1      44.199   2.662  10.169  0.00  0.00    +0.000 A 
ATOM     22  C   UNL     1      45.033   1.980   9.277  0.00  0.00    +0.000 A 
BRANCH  17  23
ATOM     23  C   UNL     1      46.623   1.879   7.335  0.00  0.00    +0.000 C 
BRANCH  23  24
ATOM     24  C   UNL     1      47.888   2.577   6.816  0.00  0.00    +0.000 C 
BRANCH  24  25
ATOM     25  N   UNL     1      48.494   1.831   5.709  0.00  0.00    +0.000 NA
ATOM     26  H   UNL     1      49.418   1.500   5.987  0.00  0.00    +0.000 HD
ATOM     27  H   UNL     1      48.641   2.454   4.915  0.00  0.00    +0.000 HD
ENDBRANCH  24  25
ENDBRANCH  23  24
ENDBRANCH  17  23
ENDBRANCH  16  20
ENDBRANCH   1  16
TORSDOF 6
ENDMDL
MODEL 2
REMARK VINA RESULT:    -8.130      1.599      2.037
REMARK INTER + INTRA:         -11.512
REMARK INTER:                 -11.332
REMARK INTRA:                  -0.180
REMARK UNBOUND:                -0.767
REMARK  Name = 
REMARK  6 active torsions:
REMARK  status: ('A' for Active; 'I' for Inactive)
REMARK    1  A    between atoms: N_1  and  C_2
REMARK    2  A    between atoms: C_2  and  C_3
REMARK    3  A    between atoms: C_3  and  C_4
REMARK    4  A    between atoms: C_7  and  C_8
REMARK    5  A    between atoms: C_8  and  C_9
REMARK    6  A    between atoms: C_16  and  C_17
REMARK                            x       y       z     vdW  Elec       q    Type
REMARK                         _______ _______ _______ _____ _____    ______ ____
ROOT
ATOM      1  C   UNL     1      43.359   4.702  11.725  0.00  0.00    +0.000 A 
ATOM      2  N   UNL     1      42.335   5.460  11.297  0.00  0.00    +0.000 NA
ATOM      3  O   UNL     1      42.821   6.755  11.281  0.00  0.00    +0.000 OA
ATOM      4  C   UNL     1      44.088   6.766  11.768  0.00  0.00    +0.000 A 
ATOM      5  C   UNL     1      44.956   7.848  11.762  0.00  0.00    +0.000 A 
ATOM      6  C   UNL     1      46.212   7.627  12.325  0.00  0.00    +0.000 A 
ATOM      7  F   UNL     1      47.095   8.635  12.264  0.00  0.00    +0.000 F 
ATOM      8  C   UNL     1      46.559   6.407  12.920  0.00  0.00    +0.000 A 
ATOM      9  C   UNL     1      45.660   5.320  12.870  0.00  0.00    +0.000 A 
ATOM     10  C   UNL     1      44.419   5.504  12.231  0.00  0.00    +0.000 A 
ENDROOT
BRANCH   8  11
ATOM     11  C   UNL     1      47.859   6.206  13.613  0.00  0.00    +0.000 C 
ATOM     12  N   UNL     1      47.858   6.096  14.974  0.00  0.00    +0.000 N 
ATOM     13  O   UNL     1      48.909   6.130  12.983  0.00  0.00    +0.000 OA
ATOM     14  H   UNL     1      47.014   6.139  15.534  0.00  0.00    +0.000 HD
ATOM     15  H   UNL     1      48.738   5.926  15.443  0.00  0.00    +0.000 HD
ENDBRANCH   8  11
BRANCH   1  16
ATOM     16  C   UNL     1      43.374   3.241  11.420  0.00  0.00    +0.000 C 
BRANCH  16  20
ATOM     17  C   UNL     1      45.829   3.077   7.820  0.00  0.00    +0.000 A 
ATOM     18  C   UNL     1      45.560   1.920   8.561  0.00  0.00    +0.000 A 
ATOM     19  C   UNL     1      44.728   1.960   9.688  0.00  0.00    +0.000 A 
ATOM     20  C   UNL     1      44.156   3.165  10.114  0.00  0.00    +0.000 A 
ATOM     21  C   UNL     1      44.423   4.326   9.372  0.00  0.00    +0.000 A 
ATOM     22  C   UNL     1      45.255   4.283   8.247  0.00  0.00    +0.000 A 
BRANCH  17  23
ATOM     23  C   UNL     1      46.778   3.101   6.639  0.00  0.00    +0.000 C 
BRANCH  23  24
ATOM     24  C   UNL     1      47.996   2.171   6.743  0.00  0.00    +0.000 C 
BRANCH  24  25
ATOM     25  N   UNL     1      48.515   1.819   5.418  0.00  0.00    +0.000 NA
ATOM     26  H   UNL     1      48.878   2.655   4.961  0.00  0.00    +0.000 HD
ATOM     27  H   UNL     1      47.753   1.479   4.830  0.00  0.00    +0.000 HD
ENDBRANCH  24  25
ENDBRANCH  23  24
ENDBRANCH  17  23
ENDBRANCH  16  20
ENDBRANCH   1  16
TORSDOF 6
ENDMDL
MODEL 3
REMARK VINA RESULT:    -7.978      2.910      6.828
REMARK INTER + INTRA:         -11.311
REMARK INTER:                 -11.317
REMARK INTRA:                   0.006
REMARK UNBOUND:                -0.767
REMARK  Name = 
REMARK  6 active torsions:
REMARK  status: ('A' for Active; 'I' for Inactive)
REMARK    1  A    between atoms: N_1  and  C_2
REMARK    2  A    between atoms: C_2  and  C_3
REMARK    3  A    between atoms: C_3  and  C_4
REMARK    4  A    between atoms: C_7  and  C_8
REMARK    5  A    between atoms: C_8  and  C_9
REMARK    6  A    between atoms: C_16  and  C_17
REMARK                            x       y       z     vdW  Elec       q    Type
REMARK                         _______ _______ _______ _____ _____    ______ ____
ROOT
ATOM      1  C   UNL     1      44.607   5.044  10.260  0.00  0.00    +0.000 A 
ATOM      2  N   UNL     1      43.507   4.620  10.904  0.00  0.00    +0.000 NA
ATOM      3  O   UNL     1      43.386   3.280  10.580  0.00  0.00    +0.000 OA
ATOM      4  C   UNL     1      44.358   2.944   9.693  0.00  0.00    +0.000 A 
ATOM      5  C   UNL     1      44.657   1.661   9.258  0.00  0.00    +0.000 A 
ATOM      6  C   UNL     1      45.697   1.556   8.336  0.00  0.00    +0.000 A 
ATOM      7  F   UNL     1      46.055   0.320   7.956  0.00  0.00    +0.000 F 
ATOM      8  C   UNL     1      46.362   2.681   7.828  0.00  0.00    +0.000 A 
ATOM      9  C   UNL     1      46.053   3.964   8.328  0.00  0.00    +0.000 A 
ATOM     10  C   UNL     1      45.060   4.077   9.319  0.00  0.00    +0.000 A 
ENDROOT
BRANCH   8  11
ATOM     11  C   UNL     1      47.399   2.576   6.768  0.00  0.00    +0.000 C 
ATOM     12  N   UNL     1      47.241   3.314   5.630  0.00  0.00    +0.000 N 
ATOM     13  O   UNL     1      48.380   1.853   6.910  0.00  0.00    +0.000 OA
ATOM     14  H   UNL     1      46.453   3.934   5.477  0.00  0.00    +0.000 HD
ATOM     15  H   UNL     1      47.962   3.268   4.924  0.00  0.00    +0.000 HD
ENDBRANCH   8  11
BRANCH   1  16
ATOM     16  C   UNL     1      45.316   6.268  10.736  0.00  0.00    +0.000 C 
BRANCH  16  20
ATOM     17  C   UNL     1      47.186   5.108  14.500  0.00  0.00    +0.000 A 
ATOM     18  C   UNL     1      46.000   4.500  14.068  0.00  0.00    +0.000 A 
ATOM     19  C   UNL     1      45.426   4.833  12.834  0.00  0.00    +0.000 A 
ATOM     20  C   UNL     1      46.015   5.796  12.006  0.00  0.00    +0.000 A 
ATOM     21  C   UNL     1      47.203   6.405  12.436  0.00  0.00    +0.000 A 
ATOM     22  C   UNL     1      47.774   6.071  13.669  0.00  0.00    +0.000 A 
BRANCH  17  23
ATOM     23  C   UNL     1      47.807   4.837  15.855  0.00  0.00    +0.000 C 
BRANCH  23  24
ATOM     24  C   UNL     1      47.690   3.393  16.366  0.00  0.00    +0.000 C 
BRANCH  24  25
ATOM     25  N   UNL     1      46.714   3.288  17.454  0.00  0.00    +0.000 NA
ATOM     26  H   UNL     1      45.820   2.967  17.080  0.00  0.00    +0.000 HD
ATOM     27  H   UNL     1      46.542   4.212  17.852  0.00  0.00    +0.000 HD
ENDBRANCH  24  25
ENDBRANCH  23  24
ENDBRANCH  17  23
ENDBRANCH  16  20
ENDBRANCH   1  16
TORSDOF 6
ENDMDL
MODEL 4
REMARK VINA RESULT:    -7.929      1.773      3.301
REMARK INTER + INTRA:         -11.245
REMARK INTER:                 -10.508
REMARK INTRA:                  -0.738
REMARK UNBOUND:                -0.767
REMARK  Name = 
REMARK  6 active torsions:
REMARK  status: ('A' for Active; 'I' for Inactive)
REMARK    1  A    between atoms: N_1  and  C_2
REMARK    2  A    between atoms: C_2  and  C_3
REMARK    3  A    between atoms: C_3  and  C_4
REMARK    4  A    between atoms: C_7  and  C_8
REMARK    5  A    between atoms: C_8  and  C_9
REMARK    6  A    between atoms: C_16  and  C_17
REMARK                            x       y       z     vdW  Elec       q    Type
REMARK                         _______ _______ _______ _____ _____    ______ ____
ROOT
ATOM      1  C   UNL     1      45.640   4.334  12.509  0.00  0.00    +0.000 A 
ATOM      2  N   UNL     1      46.006   3.281  13.258  0.00  0.00    +0.000 NA
ATOM      3  O   UNL     1      46.923   3.779  14.168  0.00  0.00    +0.000 OA
ATOM      4  C   UNL     1      47.150   5.091  13.903  0.00  0.00    +0.000 A 
ATOM      5  C   UNL     1      47.882   5.967  14.690  0.00  0.00    +0.000 A 
ATOM      6  C   UNL     1      47.988   7.273  14.214  0.00  0.00    +0.000 A 
ATOM      7  F   UNL     1      48.628   8.158  14.994  0.00  0.00    +0.000 F 
ATOM      8  C   UNL     1      47.443   7.666  12.985  0.00  0.00    +0.000 A 
ATOM      9  C   UNL     1      46.671   6.753  12.235  0.00  0.00    +0.000 A 
ATOM     10  C   UNL     1      46.487   5.453  12.743  0.00  0.00    +0.000 A 
ENDROOT
BRANCH   8  11
ATOM     11  C   UNL     1      47.645   9.030  12.429  0.00  0.00    +0.000 C 
ATOM     12  N   UNL     1      46.681   9.971  12.654  0.00  0.00    +0.000 N 
ATOM     13  O   UNL     1      48.655   9.314  11.794  0.00  0.00    +0.000 OA
ATOM     14  H   UNL     1      45.837   9.785  13.185  0.00  0.00    +0.000 HD
ATOM     15  H   UNL     1      46.833  10.908  12.305  0.00  0.00    +0.000 HD
ENDBRANCH   8  11
BRANCH   1  16
ATOM     16  C   UNL     1      44.347   4.298  11.765  0.00  0.00    +0.000 C 
BRANCH  16  20
ATOM     17  C   UNL     1      45.789   3.093   7.830  0.00  0.00    +0.000 A 
ATOM     18  C   UNL     1      45.273   2.149   8.728  0.00  0.00    +0.000 A 
ATOM     19  C   UNL     1      44.760   2.540   9.972  0.00  0.00    +0.000 A 
ATOM     20  C   UNL     1      44.765   3.886  10.358  0.00  0.00    +0.000 A 
ATOM     21  C   UNL     1      45.280   4.833   9.460  0.00  0.00    +0.000 A 
ATOM     22  C   UNL     1      45.791   4.440   8.218  0.00  0.00    +0.000 A 
BRANCH  17  23
ATOM     23  C   UNL     1      46.420   2.714   6.506  0.00  0.00    +0.000 C 
BRANCH  23  24
ATOM     24  C   UNL     1      47.448   1.575   6.558  0.00  0.00    +0.000 C 
BRANCH  24  25
ATOM     25  N   UNL     1      48.605   1.858   5.703  0.00  0.00    +0.000 NA
ATOM     26  H   UNL     1      49.239   1.059   5.712  0.00  0.00    +0.000 HD
ATOM     27  H   UNL     1      49.131   2.644   6.087  0.00  0.00    +0.000 HD
ENDBRANCH  24  25
ENDBRANCH  23  24
ENDBRANCH  17  23
ENDBRANCH  16  20
ENDBRANCH   1  16
TORSDOF 6
ENDMDL
MODEL 5
REMARK VINA RESULT:    -7.055      3.115      6.425
REMARK INTER + INTRA:         -10.091
REMARK INTER:                  -9.284
REMARK INTRA:                  -0.807
REMARK UNBOUND:                -0.767
REMARK  Name = 
REMARK  6 active torsions:
REMARK  status: ('A' for Active; 'I' for Inactive)
REMARK    1  A    between atoms: N_1  and  C_2
REMARK    2  A    between atoms: C_2  and  C_3
REMARK    3  A    between atoms: C_3  and  C_4
REMARK    4  A    between atoms: C_7  and  C_8
REMARK    5  A    between atoms: C_8  and  C_9
REMARK    6  A    between atoms: C_16  and  C_17
REMARK                            x       y       z     vdW  Elec       q    Type
REMARK                         _______ _______ _______ _____ _____    ______ ____
ROOT
ATOM      1  C   UNL     1      43.457   4.817  10.731  0.00  0.00    +0.000 A 
ATOM      2  N   UNL     1      42.715   4.033  11.531  0.00  0.00    +0.000 NA
ATOM      3  O   UNL     1      43.101   2.738  11.237  0.00  0.00    +0.000 OA
ATOM      4  C   UNL     1      44.002   2.758  10.221  0.00  0.00    +0.000 A 
ATOM      5  C   UNL     1      44.732   1.674   9.756  0.00  0.00    +0.000 A 
ATOM      6  C   UNL     1      45.597   1.931   8.693  0.00  0.00    +0.000 A 
ATOM      7  F   UNL     1      46.369   0.916   8.274  0.00  0.00    +0.000 F 
ATOM      8  C   UNL     1      45.681   3.191   8.087  0.00  0.00    +0.000 A 
ATOM      9  C   UNL     1      44.950   4.276   8.617  0.00  0.00    +0.000 A 
ATOM     10  C   UNL     1      44.134   4.050   9.741  0.00  0.00    +0.000 A 
ENDROOT
BRANCH   8  11
ATOM     11  C   UNL     1      46.525   3.438   6.888  0.00  0.00    +0.000 C 
ATOM     12  N   UNL     1      47.589   4.285   7.008  0.00  0.00    +0.000 N 
ATOM     13  O   UNL     1      46.284   2.888   5.818  0.00  0.00    +0.000 OA
ATOM     14  H   UNL     1      47.833   4.750   7.875  0.00  0.00    +0.000 HD
ATOM     15  H   UNL     1      48.183   4.428   6.202  0.00  0.00    +0.000 HD
ENDBRANCH   8  11
BRANCH   1  16
ATOM     16  C   UNL     1      43.670   6.250  11.090  0.00  0.00    +0.000 C 
BRANCH  16  20
ATOM     17  C   UNL     1      47.483   6.428  13.196  0.00  0.00    +0.000 A 
ATOM     18  C   UNL     1      46.445   5.607  13.655  0.00  0.00    +0.000 A 
ATOM     19  C   UNL     1      45.237   5.507  12.951  0.00  0.00    +0.000 A 
ATOM     20  C   UNL     1      45.030   6.240  11.776  0.00  0.00    +0.000 A 
ATOM     21  C   UNL     1      46.070   7.062  11.314  0.00  0.00    +0.000 A 
ATOM     22  C   UNL     1      47.274   7.160  12.019  0.00  0.00    +0.000 A 
BRANCH  17  23
ATOM     23  C   UNL     1      48.778   6.627  13.958  0.00  0.00    +0.000 C 
BRANCH  23  24
ATOM     24  C   UNL     1      49.804   7.559  13.298  0.00  0.00    +0.000 C 
BRANCH  24  25
ATOM     25  N   UNL     1      50.994   7.724  14.137  0.00  0.00    +0.000 NA
ATOM     26  H   UNL     1      50.711   7.873  15.106  0.00  0.00    +0.000 HD
ATOM     27  H   UNL     1      51.499   8.565  13.855  0.00  0.00    +0.000 HD
ENDBRANCH  24  25
ENDBRANCH  23  24
ENDBRANCH  17  23
ENDBRANCH  16  20
ENDBRANCH   1  16
TORSDOF 6
ENDMDL
MODEL 6
REMARK VINA RESULT:    -6.716      3.848      7.507
REMARK INTER + INTRA:          -9.642
REMARK INTER:                  -9.295
REMARK INTRA:                  -0.347
REMARK UNBOUND:                -0.767
REMARK  Name = 
REMARK  6 active torsions:
REMARK  status: ('A' for Active; 'I' for Inactive)
REMARK    1  A    between atoms: N_1  and  C_2
REMARK    2  A    between atoms: C_2  and  C_3
REMARK    3  A    between atoms: C_3  and  C_4
REMARK    4  A    between atoms: C_7  and  C_8
REMARK    5  A    between atoms: C_8  and  C_9
REMARK    6  A    between atoms: C_16  and  C_17
REMARK                            x       y       z     vdW  Elec       q    Type
REMARK                         _______ _______ _______ _____ _____    ______ ____
ROOT
ATOM      1  C   UNL     1      47.511   4.769  15.175  0.00  0.00    +0.000 A 
ATOM      2  N   UNL     1      48.375   5.798  15.174  0.00  0.00    +0.000 NA
ATOM      3  O   UNL     1      48.118   6.491  14.004  0.00  0.00    +0.000 OA
ATOM      4  C   UNL     1      47.170   5.830  13.291  0.00  0.00    +0.000 A 
ATOM      5  C   UNL     1      46.541   6.294  12.145  0.00  0.00    +0.000 A 
ATOM      6  C   UNL     1      45.599   5.438  11.576  0.00  0.00    +0.000 A 
ATOM      7  F   UNL     1      44.923   5.894  10.510  0.00  0.00    +0.000 F 
ATOM      8  C   UNL     1      45.348   4.158  12.089  0.00  0.00    +0.000 A 
ATOM      9  C   UNL     1      45.981   3.742  13.279  0.00  0.00    +0.000 A 
ATOM     10  C   UNL     1      46.873   4.629  13.911  0.00  0.00    +0.000 A 
ENDROOT
BRANCH   8  11
ATOM     11  C   UNL     1      44.421   3.206  11.422  0.00  0.00    +0.000 C 
ATOM     12  N   UNL     1      44.899   2.456  10.385  0.00  0.00    +0.000 N 
ATOM     13  O   UNL     1      43.259   3.085  11.794  0.00  0.00    +0.000 OA
ATOM     14  H   UNL     1      45.855   2.513  10.054  0.00  0.00    +0.000 HD
ATOM     15  H   UNL     1      44.279   1.784   9.953  0.00  0.00    +0.000 HD
ENDBRANCH   8  11
BRANCH   1  16
ATOM     16  C   UNL     1      47.161   4.099  16.462  0.00  0.00    +0.000 C 
BRANCH  16  20
ATOM     17  C   UNL     1      51.106   2.675  17.654  0.00  0.00    +0.000 A 
ATOM     18  C   UNL     1      50.641   3.931  18.062  0.00  0.00    +0.000 A 
ATOM     19  C   UNL     1      49.353   4.370  17.725  0.00  0.00    +0.000 A 
ATOM     20  C   UNL     1      48.502   3.568  16.955  0.00  0.00    +0.000 A 
ATOM     21  C   UNL     1      48.965   2.308  16.546  0.00  0.00    +0.000 A 
ATOM     22  C   UNL     1      50.252   1.873  16.884  0.00  0.00    +0.000 A 
BRANCH  17  23
ATOM     23  C   UNL     1      52.513   2.185  17.929  0.00  0.00    +0.000 C 
BRANCH  23  24
ATOM     24  C   UNL     1      52.862   0.802  17.361  0.00  0.00    +0.000 C 
BRANCH  24  25
ATOM     25  N   UNL     1      52.810  -0.232  18.398  0.00  0.00    +0.000 NA
ATOM     26  H   UNL     1      52.758   0.209  19.316  0.00  0.00    +0.000 HD
ATOM     27  H   UNL     1      53.676  -0.772  18.388  0.00  0.00    +0.000 HD
ENDBRANCH  24  25
ENDBRANCH  23  24
ENDBRANCH  17  23
ENDBRANCH  16  20
ENDBRANCH   1  16
TORSDOF 6
ENDMDL
MODEL 7
REMARK VINA RESULT:    -6.395      2.159      3.599
REMARK INTER + INTRA:          -9.218
REMARK INTER:                  -8.513
REMARK INTRA:                  -0.706
REMARK UNBOUND:                -0.767
REMARK  Name = 
REMARK  6 active torsions:
REMARK  status: ('A' for Active; 'I' for Inactive)
REMARK    1  A    between atoms: N_1  and  C_2
REMARK    2  A    between atoms: C_2  and  C_3
REMARK    3  A    between atoms: C_3  and  C_4
REMARK    4  A    between atoms: C_7  and  C_8
REMARK    5  A    between atoms: C_8  and  C_9
REMARK    6  A    between atoms: C_16  and  C_17
REMARK                            x       y       z     vdW  Elec       q    Type
REMARK                         _______ _______ _______ _____ _____    ______ ____
ROOT
ATOM      1  C   UNL     1      46.101   4.948  13.498  0.00  0.00    +0.000 A 
ATOM      2  N   UNL     1      46.405   4.013  14.414  0.00  0.00    +0.000 NA
ATOM      3  O   UNL     1      47.444   4.549  15.154  0.00  0.00    +0.000 OA
ATOM      4  C   UNL     1      47.797   5.749  14.627  0.00  0.00    +0.000 A 
ATOM      5  C   UNL     1      48.688   6.654  15.185  0.00  0.00    +0.000 A 
ATOM      6  C   UNL     1      48.903   7.826  14.460  0.00  0.00    +0.000 A 
ATOM      7  F   UNL     1      49.702   8.750  15.014  0.00  0.00    +0.000 F 
ATOM      8  C   UNL     1      48.307   8.051  13.212  0.00  0.00    +0.000 A 
ATOM      9  C   UNL     1      47.377   7.122  12.700  0.00  0.00    +0.000 A 
ATOM     10  C   UNL     1      47.087   5.973  13.460  0.00  0.00    +0.000 A 
ENDROOT
BRANCH   8  11
ATOM     11  C   UNL     1      48.618   9.252  12.392  0.00  0.00    +0.000 C 
ATOM     12  N   UNL     1      49.736   9.230  11.608  0.00  0.00    +0.000 N 
ATOM     13  O   UNL     1      47.887  10.237  12.406  0.00  0.00    +0.000 OA
ATOM     14  H   UNL     1      50.360   8.433  11.555  0.00  0.00    +0.000 HD
ATOM     15  H   UNL     1      49.930  10.033  11.025  0.00  0.00    +0.000 HD
ENDBRANCH   8  11
BRANCH   1  16
ATOM     16  C   UNL     1      44.755   4.941  12.853  0.00  0.00    +0.000 C 
BRANCH  16  20
ATOM     17  C   UNL     1      45.352   3.666   8.726  0.00  0.00    +0.000 A 
ATOM     18  C   UNL     1      45.547   5.001   9.102  0.00  0.00    +0.000 A 
ATOM     19  C   UNL     1      45.408   5.403  10.437  0.00  0.00    +0.000 A 
ATOM     20  C   UNL     1      45.053   4.482  11.430  0.00  0.00    +0.000 A 
ATOM     21  C   UNL     1      44.859   3.144  11.055  0.00  0.00    +0.000 A 
ATOM     22  C   UNL     1      44.998   2.745   9.721  0.00  0.00    +0.000 A 
BRANCH  17  23
ATOM     23  C   UNL     1      45.418   3.195   7.287  0.00  0.00    +0.000 C 
BRANCH  23  24
ATOM     24  C   UNL     1      46.658   2.369   6.912  0.00  0.00    +0.000 C 
BRANCH  24  25
ATOM     25  N   UNL     1      47.845   3.218   6.775  0.00  0.00    +0.000 NA
ATOM     26  H   UNL     1      47.817   3.700   5.876  0.00  0.00    +0.000 HD
ATOM     27  H   UNL     1      48.683   2.636   6.761  0.00  0.00    +0.000 HD
ENDBRANCH  24  25
ENDBRANCH  23  24
ENDBRANCH  17  23
ENDBRANCH  16  20
ENDBRANCH   1  16
TORSDOF 6
ENDMDL
MODEL 8
REMARK VINA RESULT:    -6.260      3.855      7.447
REMARK INTER + INTRA:          -9.041
REMARK INTER:                  -8.210
REMARK INTRA:                  -0.831
REMARK UNBOUND:                -0.767
REMARK  Name = 
REMARK  6 active torsions:
REMARK  status: ('A' for Active; 'I' for Inactive)
REMARK    1  A    between atoms: N_1  and  C_2
REMARK    2  A    between atoms: C_2  and  C_3
REMARK    3  A    between atoms: C_3  and  C_4
REMARK    4  A    between atoms: C_7  and  C_8
REMARK    5  A    between atoms: C_8  and  C_9
REMARK    6  A    between atoms: C_16  and  C_17
REMARK                            x       y       z     vdW  Elec       q    Type
REMARK                         _______ _______ _______ _____ _____    ______ ____
ROOT
ATOM      1  C   UNL     1      48.858   7.237  14.814  0.00  0.00    +0.000 A 
ATOM      2  N   UNL     1      49.688   8.045  14.133  0.00  0.00    +0.000 NA
ATOM      3  O   UNL     1      49.233   8.020  12.826  0.00  0.00    +0.000 OA
ATOM      4  C   UNL     1      48.198   7.147  12.728  0.00  0.00    +0.000 A 
ATOM      5  C   UNL     1      47.385   6.968  11.619  0.00  0.00    +0.000 A 
ATOM      6  C   UNL     1      46.384   6.006  11.745  0.00  0.00    +0.000 A 
ATOM      7  F   UNL     1      45.536   5.866  10.713  0.00  0.00    +0.000 F 
ATOM      8  C   UNL     1      46.244   5.220  12.897  0.00  0.00    +0.000 A 
ATOM      9  C   UNL     1      47.068   5.462  14.016  0.00  0.00    +0.000 A 
ATOM     10  C   UNL     1      48.029   6.487  13.933  0.00  0.00    +0.000 A 
ENDROOT
BRANCH   8  11
ATOM     11  C   UNL     1      45.244   4.123  12.990  0.00  0.00    +0.000 C 
ATOM     12  N   UNL     1      45.590   2.889  12.520  0.00  0.00    +0.000 N 
ATOM     13  O   UNL     1      44.138   4.314  13.486  0.00  0.00    +0.000 OA
ATOM     14  H   UNL     1      46.497   2.683  12.116  0.00  0.00    +0.000 HD
ATOM     15  H   UNL     1      44.923   2.135  12.614  0.00  0.00    +0.000 HD
ENDBRANCH   8  11
BRANCH   1  16
ATOM     16  C   UNL     1      48.732   7.385  16.293  0.00  0.00    +0.000 C 
BRANCH  16  20
ATOM     17  C   UNL     1      51.068   3.938  17.588  0.00  0.00    +0.000 A 
ATOM     18  C   UNL     1      51.694   5.143  17.242  0.00  0.00    +0.000 A 
ATOM     19  C   UNL     1      50.943   6.269  16.877  0.00  0.00    +0.000 A 
ATOM     20  C   UNL     1      49.544   6.213  16.832  0.00  0.00    +0.000 A 
ATOM     21  C   UNL     1      48.916   5.008  17.179  0.00  0.00    +0.000 A 
ATOM     22  C   UNL     1      49.668   3.885  17.544  0.00  0.00    +0.000 A 
BRANCH  17  23
ATOM     23  C   UNL     1      51.835   2.674  17.919  0.00  0.00    +0.000 C 
BRANCH  23  24
ATOM     24  C   UNL     1      51.262   1.374  17.337  0.00  0.00    +0.000 C 
BRANCH  24  25
ATOM     25  N   UNL     1      51.684   0.207  18.117  0.00  0.00    +0.000 NA
ATOM     26  H   UNL     1      51.532   0.387  19.110  0.00  0.00    +0.000 HD
ATOM     27  H   UNL     1      52.688   0.063  18.003  0.00  0.00    +0.000 HD
ENDBRANCH  24  25
ENDBRANCH  23  24
ENDBRANCH  17  23
ENDBRANCH  16  20
ENDBRANCH   1  16
TORSDOF 6
ENDMDL
MODEL 9
REMARK VINA RESULT:    -6.097      2.999      6.926
REMARK INTER + INTRA:          -8.824
REMARK INTER:                  -8.105
REMARK INTRA:                  -0.719
REMARK UNBOUND:                -0.767
REMARK  Name = 
REMARK  6 active torsions:
REMARK  status: ('A' for Active; 'I' for Inactive)
REMARK    1  A    between atoms: N_1  and  C_2
REMARK    2  A    between atoms: C_2  and  C_3
REMARK    3  A    between atoms: C_3  and  C_4
REMARK    4  A    between atoms: C_7  and  C_8
REMARK    5  A    between atoms: C_8  and  C_9
REMARK    6  A    between atoms: C_16  and  C_17
REMARK                            x       y       z     vdW  Elec       q    Type
REMARK                         _______ _______ _______ _____ _____    ______ ____
ROOT
ATOM      1  C   UNL     1      46.870   7.440  11.792  0.00  0.00    +0.000 A 
ATOM      2  N   UNL     1      46.327   8.536  12.348  0.00  0.00    +0.000 NA
ATOM      3  O   UNL     1      44.964   8.298  12.372  0.00  0.00    +0.000 OA
ATOM      4  C   UNL     1      44.705   7.112  11.765  0.00  0.00    +0.000 A 
ATOM      5  C   UNL     1      43.480   6.462  11.733  0.00  0.00    +0.000 A 
ATOM      6  C   UNL     1      43.448   5.251  11.042  0.00  0.00    +0.000 A 
ATOM      7  F   UNL     1      42.294   4.567  11.060  0.00  0.00    +0.000 F 
ATOM      8  C   UNL     1      44.568   4.749  10.365  0.00  0.00    +0.000 A 
ATOM      9  C   UNL     1      45.804   5.422  10.456  0.00  0.00    +0.000 A 
ATOM     10  C   UNL     1      45.871   6.603  11.219  0.00  0.00    +0.000 A 
ENDROOT
BRANCH   8  11
ATOM     11  C   UNL     1      44.505   3.512   9.542  0.00  0.00    +0.000 C 
ATOM     12  N   UNL     1      44.463   2.308  10.184  0.00  0.00    +0.000 N 
ATOM     13  O   UNL     1      44.481   3.566   8.317  0.00  0.00    +0.000 OA
ATOM     14  H   UNL     1      44.466   2.217  11.194  0.00  0.00    +0.000 HD
ATOM     15  H   UNL     1      44.387   1.468   9.626  0.00  0.00    +0.000 HD
ENDBRANCH   8  11
BRANCH   1  16
ATOM     16  C   UNL     1      48.308   7.124  12.032  0.00  0.00    +0.000 C 
BRANCH  16  20
ATOM     17  C   UNL     1      48.570   5.786  16.173  0.00  0.00    +0.000 A 
ATOM     18  C   UNL     1      49.362   6.843  15.707  0.00  0.00    +0.000 A 
ATOM     19  C   UNL     1      49.242   7.311  14.392  0.00  0.00    +0.000 A 
ATOM     20  C   UNL     1      48.337   6.720  13.501  0.00  0.00    +0.000 A 
ATOM     21  C   UNL     1      47.542   5.661  13.966  0.00  0.00    +0.000 A 
ATOM     22  C   UNL     1      47.664   5.196  15.281  0.00  0.00    +0.000 A 
BRANCH  17  23
ATOM     23  C   UNL     1      48.713   5.197  17.562  0.00  0.00    +0.000 C 
BRANCH  23  24
ATOM     24  C   UNL     1      47.845   5.841  18.653  0.00  0.00    +0.000 C 
BRANCH  24  25
ATOM     25  N   UNL     1      46.480   5.308  18.635  0.00  0.00    +0.000 NA
ATOM     26  H   UNL     1      46.451   4.428  19.148  0.00  0.00    +0.000 HD
ATOM     27  H   UNL     1      46.209   5.090  17.676  0.00  0.00    +0.000 HD
ENDBRANCH  24  25
ENDBRANCH  23  24
ENDBRANCH  17  23
ENDBRANCH  16  20
ENDBRANCH   1  16
TORSDOF 6
ENDMDL
