MODEL 1
REMARK VINA RESULT:    -7.983      0.000      0.000
REMARK INTER + INTRA:         -11.629
REMARK INTER:                 -10.784
REMARK INTRA:                  -0.845
REMARK UNBOUND:                -0.845
REMARK  Name = 
REMARK  6 active torsions:
REMARK  status: ('A' for Active; 'I' for Inactive)
REMARK    1  A    between atoms: C_2  and  C_3
REMARK    2  A    between atoms: C_7  and  C_8
REMARK    3  A    between atoms: C_12  and  C_13
REMARK    4  A    between atoms: C_13  and  N_14
REMARK    5  A    between atoms: N_14  and  C_15
REMARK    6  A    between atoms: C_18  and  C_19
REMARK                            x       y       z     vdW  Elec       q    Type
REMARK                         _______ _______ _______ _____ _____    ______ ____
ROOT
ATOM      1  C   UNL     1      47.166   6.631  12.544  0.00  0.00    +0.000 A 
ATOM      2  C   UNL     1      47.544   5.863  13.654  0.00  0.00    +0.000 A 
ATOM      3  C   UNL     1      46.807   4.740  14.044  0.00  0.00    +0.000 A 
ATOM      4  C   UNL     1      45.673   4.360  13.328  0.00  0.00    +0.000 A 
ATOM      5  C   UNL     1      45.253   5.088  12.210  0.00  0.00    +0.000 A 
ATOM      6  C   UNL     1      46.026   6.208  11.839  0.00  0.00    +0.000 A 
ENDROOT
BRANCH   1  11
ATOM      7  C   UNL     1      49.970   8.939  11.392  0.00  0.00    +0.000 A 
ATOM      8  C   UNL     1      49.336  10.180  11.396  0.00  0.00    +0.000 A 
ATOM      9  C   UNL     1      47.997  10.271  11.766  0.00  0.00    +0.000 A 
ATOM     10  C   UNL     1      47.294   9.116  12.125  0.00  0.00    +0.000 A 
ATOM     11  C   UNL     1      47.906   7.849  12.132  0.00  0.00    +0.000 A 
ATOM     12  C   UNL     1      49.260   7.787  11.766  0.00  0.00    +0.000 A 
BRANCH   7  14
ATOM     13  N   UNL     1      52.465   8.744  10.714  0.00  0.00    +0.000 NA
ATOM     14  C   UNL     1      51.348   8.834  11.019  0.00  0.00    +0.000 C 
ENDBRANCH   7  14
ENDBRANCH   1  11
BRANCH   5  15
ATOM     15  C   UNL     1      44.028   4.720  11.385  0.00  0.00    +0.000 C 
ATOM     16  C   UNL     1      42.700   5.120  12.029  0.00  0.00    +0.000 C 
ATOM     17  C   UNL     1      43.029   3.679  11.839  0.00  0.00    +0.000 C 
BRANCH  15  18
ATOM     18  N   UNL     1      44.203   4.965   9.935  0.00  0.00    +0.000 N 
ATOM     19  H   UNL     1      44.224   5.951   9.680  0.00  0.00    +0.000 HD
BRANCH  18  20
ATOM     20  C   UNL     1      45.095   4.214   9.148  0.00  0.00    +0.000 A 
ATOM     21  C   UNL     1      45.131   2.833   9.057  0.00  0.00    +0.000 A 
ATOM     22  N   UNL     1      45.944   2.127   8.237  0.00  0.00    +0.000 NA
ATOM     23  C   UNL     1      46.745   2.860   7.442  0.00  0.00    +0.000 A 
ATOM     24  N   UNL     1      46.787   4.204   7.400  0.00  0.00    +0.000 NA
ATOM     25  C   UNL     1      45.950   4.839   8.250  0.00  0.00    +0.000 A 
BRANCH  23  26
ATOM     26  C   UNL     1      47.622   2.145   6.552  0.00  0.00    +0.000 C 
ATOM     27  N   UNL     1      48.329   1.567   5.829  0.00  0.00    +0.000 NA
ENDBRANCH  23  26
ENDBRANCH  18  20
ENDBRANCH  15  18
ENDBRANCH   5  15
TORSDOF 6
ENDMDL
MODEL 2
REMARK VINA RESULT:    -7.966      2.540      4.273
REMARK INTER + INTRA:         -11.606
REMARK INTER:                 -10.962
REMARK INTRA:                  -0.644
REMARK UNBOUND:                -0.845
REMARK  Name = 
REMARK  6 active torsions:
REMARK  status: ('A' for Active; 'I' for Inactive)
REMARK    1  A    between atoms: C_2  and  C_3
REMARK    2  A    between atoms: C_7  and  C_8
REMARK    3  A    between atoms: C_12  and  C_13
REMARK    4  A    between atoms: C_13  and  N_14
REMARK    5  A    between atoms: N_14  and  C_15
REMARK    6  A    between atoms: C_18  and  C_19
REMARK                            x       y       z     vdW  Elec       q    Type
REMARK                         _______ _______ _______ _____ _____    ______ ____
ROOT
ATOM      1  C   UNL     1      47.074   5.354  14.010  0.00  0.00    +0.000 A 
ATOM      2  C   UNL     1      47.716   6.400  13.334  0.00  0.00    +0.000 A 
ATOM      3  C   UNL     1      47.232   6.882  12.114  0.00  0.00    +0.000 A 
ATOM      4  C   UNL     1      46.087   6.325  11.542  0.00  0.00    +0.000 A 
ATOM      5  C   UNL     1      45.404   5.282  12.176  0.00  0.00    +0.000 A 
ATOM      6  C   UNL     1      45.915   4.828  13.410  0.00  0.00    +0.000 A 
ENDROOT
BRANCH   1  11
ATOM      7  C   UNL     1      48.771   5.082  17.409  0.00  0.00    +0.000 A 
ATOM      8  C   UNL     1      48.620   3.726  17.695  0.00  0.00    +0.000 A 
ATOM      9  C   UNL     1      47.962   2.899  16.790  0.00  0.00    +0.000 A 
ATOM     10  C   UNL     1      47.450   3.433  15.602  0.00  0.00    +0.000 A 
ATOM     11  C   UNL     1      47.588   4.797  15.285  0.00  0.00    +0.000 A 
ATOM     12  C   UNL     1      48.266   5.608  16.209  0.00  0.00    +0.000 A 
BRANCH   7  14
ATOM     13  N   UNL     1      50.004   6.635  19.081  0.00  0.00    +0.000 NA
ATOM     14  C   UNL     1      49.451   5.942  18.330  0.00  0.00    +0.000 C 
ENDBRANCH   7  14
ENDBRANCH   1  11
BRANCH   5  15
ATOM     15  C   UNL     1      44.148   4.638  11.607  0.00  0.00    +0.000 C 
ATOM     16  C   UNL     1      42.877   4.949  12.397  0.00  0.00    +0.000 C 
ATOM     17  C   UNL     1      43.392   3.552  12.340  0.00  0.00    +0.000 C 
BRANCH  15  18
ATOM     18  N   UNL     1      44.082   4.688  10.129  0.00  0.00    +0.000 N 
ATOM     19  H   UNL     1      43.878   5.613   9.753  0.00  0.00    +0.000 HD
BRANCH  18  20
ATOM     20  C   UNL     1      44.993   3.994   9.311  0.00  0.00    +0.000 A 
ATOM     21  C   UNL     1      45.126   2.618   9.233  0.00  0.00    +0.000 A 
ATOM     22  N   UNL     1      45.954   1.963   8.386  0.00  0.00    +0.000 NA
ATOM     23  C   UNL     1      46.664   2.742   7.549  0.00  0.00    +0.000 A 
ATOM     24  N   UNL     1      46.606   4.085   7.492  0.00  0.00    +0.000 NA
ATOM     25  C   UNL     1      45.760   4.668   8.371  0.00  0.00    +0.000 A 
BRANCH  23  26
ATOM     26  C   UNL     1      47.553   2.081   6.630  0.00  0.00    +0.000 C 
ATOM     27  N   UNL     1      48.273   1.550   5.883  0.00  0.00    +0.000 NA
ENDBRANCH  23  26
ENDBRANCH  18  20
ENDBRANCH  15  18
ENDBRANCH   5  15
TORSDOF 6
ENDMDL
MODEL 3
REMARK VINA RESULT:    -7.602      1.891      2.689
REMARK INTER + INTRA:         -11.114
REMARK INTER:                 -10.245
REMARK INTRA:                  -0.869
REMARK UNBOUND:                -0.845
REMARK  Name = 
REMARK  6 active torsions:
REMARK  status: ('A' for Active; 'I' for Inactive)
REMARK    1  A    between atoms: C_2  and  C_3
REMARK    2  A    between atoms: C_7  and  C_8
REMARK    3  A    between atoms: C_12  and  C_13
REMARK    4  A    between atoms: C_13  and  N_14
REMARK    5  A    between atoms: N_14  and  C_15
REMARK    6  A    between atoms: C_18  and  C_19
REMARK                            x       y       z     vdW  Elec       q    Type
REMARK                         _______ _______ _______ _____ _____    ______ ____
ROOT
ATOM      1  C   UNL     1      46.617   7.394  12.176  0.00  0.00    +0.000 A 
ATOM      2  C   UNL     1      45.741   8.440  11.854  0.00  0.00    +0.000 A 
ATOM      3  C   UNL     1      44.427   8.188  11.448  0.00  0.00    +0.000 A 
ATOM      4  C   UNL     1      43.958   6.877  11.358  0.00  0.00    +0.000 A 
ATOM      5  C   UNL     1      44.788   5.796  11.671  0.00  0.00    +0.000 A 
ATOM      6  C   UNL     1      46.104   6.088  12.087  0.00  0.00    +0.000 A 
ENDROOT
BRANCH   1  11
ATOM      7  C   UNL     1      49.832   7.477  14.217  0.00  0.00    +0.000 A 
ATOM      8  C   UNL     1      50.704   8.131  13.348  0.00  0.00    +0.000 A 
ATOM      9  C   UNL     1      50.253   8.542  12.097  0.00  0.00    +0.000 A 
ATOM     10  C   UNL     1      48.930   8.289  11.716  0.00  0.00    +0.000 A 
ATOM     11  C   UNL     1      48.027   7.632  12.571  0.00  0.00    +0.000 A 
ATOM     12  C   UNL     1      48.503   7.239  13.832  0.00  0.00    +0.000 A 
BRANCH   7  14
ATOM     13  N   UNL     1      50.651   6.709  16.555  0.00  0.00    +0.000 NA
ATOM     14  C   UNL     1      50.283   7.055  15.509  0.00  0.00    +0.000 C 
ENDBRANCH   7  14
ENDBRANCH   1  11
BRANCH   5  15
ATOM     15  C   UNL     1      44.334   4.345  11.598  0.00  0.00    +0.000 C 
ATOM     16  C   UNL     1      43.514   3.887  12.804  0.00  0.00    +0.000 C 
ATOM     17  C   UNL     1      44.852   3.286  12.546  0.00  0.00    +0.000 C 
BRANCH  15  18
ATOM     18  N   UNL     1      43.877   3.941  10.248  0.00  0.00    +0.000 N 
ATOM     19  H   UNL     1      43.152   4.541   9.858  0.00  0.00    +0.000 HD
BRANCH  18  20
ATOM     20  C   UNL     1      44.769   3.504   9.252  0.00  0.00    +0.000 A 
ATOM     21  C   UNL     1      45.473   4.318   8.380  0.00  0.00    +0.000 A 
ATOM     22  N   UNL     1      46.385   3.888   7.478  0.00  0.00    +0.000 NA
ATOM     23  C   UNL     1      46.622   2.563   7.478  0.00  0.00    +0.000 A 
ATOM     24  N   UNL     1      46.039   1.665   8.292  0.00  0.00    +0.000 NA
ATOM     25  C   UNL     1      45.137   2.168   9.164  0.00  0.00    +0.000 A 
BRANCH  23  26
ATOM     26  C   UNL     1      47.590   2.067   6.536  0.00  0.00    +0.000 C 
ATOM     27  N   UNL     1      48.374   1.662   5.774  0.00  0.00    +0.000 NA
ENDBRANCH  23  26
ENDBRANCH  18  20
ENDBRANCH  15  18
ENDBRANCH   5  15
TORSDOF 6
ENDMDL
MODEL 4
REMARK VINA RESULT:    -7.556      3.135      4.885
REMARK INTER + INTRA:         -11.052
REMARK INTER:                 -10.196
REMARK INTRA:                  -0.856
REMARK UNBOUND:                -0.845
REMARK  Name = 
REMARK  6 active torsions:
REMARK  status: ('A' for Active; 'I' for Inactive)
REMARK    1  A    between atoms: C_2  and  C_3
REMARK    2  A    between atoms: C_7  and  C_8
REMARK    3  A    between atoms: C_12  and  C_13
REMARK    4  A    between atoms: C_13  and  N_14
REMARK    5  A    between atoms: N_14  and  C_15
REMARK    6  A    between atoms: C_18  and  C_19
REMARK                            x       y       z     vdW  Elec       q    Type
REMARK                         _______ _______ _______ _____ _____    ______ ____
ROOT
ATOM      1  C   UNL     1      44.603   8.258  11.396  0.00  0.00    +0.000 A 
ATOM      2  C   UNL     1      45.834   8.461  12.036  0.00  0.00    +0.000 A 
ATOM      3  C   UNL     1      46.569   7.390  12.553  0.00  0.00    +0.000 A 
ATOM      4  C   UNL     1      46.087   6.086  12.438  0.00  0.00    +0.000 A 
ATOM      5  C   UNL     1      44.867   5.825  11.806  0.00  0.00    +0.000 A 
ATOM      6  C   UNL     1      44.157   6.929  11.287  0.00  0.00    +0.000 A 
ENDROOT
BRANCH   1  11
ATOM      7  C   UNL     1      41.604  10.424  10.490  0.00  0.00    +0.000 A 
ATOM      8  C   UNL     1      42.213  11.493   9.833  0.00  0.00    +0.000 A 
ATOM      9  C   UNL     1      43.597  11.516   9.688  0.00  0.00    +0.000 A 
ATOM     10  C   UNL     1      44.369  10.471  10.208  0.00  0.00    +0.000 A 
ATOM     11  C   UNL     1      43.784   9.379  10.875  0.00  0.00    +0.000 A 
ATOM     12  C   UNL     1      42.385   9.374  10.997  0.00  0.00    +0.000 A 
BRANCH   7  14
ATOM     13  N   UNL     1      39.025  10.359  10.756  0.00  0.00    +0.000 NA
ATOM     14  C   UNL     1      40.180  10.387  10.639  0.00  0.00    +0.000 C 
ENDBRANCH   7  14
ENDBRANCH   1  11
BRANCH   5  15
ATOM     15  C   UNL     1      44.291   4.426  11.644  0.00  0.00    +0.000 C 
ATOM     16  C   UNL     1      43.379   3.992  12.791  0.00  0.00    +0.000 C 
ATOM     17  C   UNL     1      44.670   3.284  12.562  0.00  0.00    +0.000 C 
BRANCH  15  18
ATOM     18  N   UNL     1      43.864   4.124  10.259  0.00  0.00    +0.000 N 
ATOM     19  H   UNL     1      43.209   4.800   9.870  0.00  0.00    +0.000 HD
BRANCH  18  20
ATOM     20  C   UNL     1      44.761   3.658   9.280  0.00  0.00    +0.000 A 
ATOM     21  C   UNL     1      45.517   4.449   8.432  0.00  0.00    +0.000 A 
ATOM     22  N   UNL     1      46.433   3.988   7.548  0.00  0.00    +0.000 NA
ATOM     23  C   UNL     1      46.615   2.655   7.543  0.00  0.00    +0.000 A 
ATOM     24  N   UNL     1      45.977   1.775   8.335  0.00  0.00    +0.000 NA
ATOM     25  C   UNL     1      45.075   2.309   9.189  0.00  0.00    +0.000 A 
BRANCH  23  26
ATOM     26  C   UNL     1      47.584   2.127   6.618  0.00  0.00    +0.000 C 
ATOM     27  N   UNL     1      48.371   1.700   5.872  0.00  0.00    +0.000 NA
ENDBRANCH  23  26
ENDBRANCH  18  20
ENDBRANCH  15  18
ENDBRANCH   5  15
TORSDOF 6
ENDMDL
MODEL 5
REMARK VINA RESULT:    -6.865      3.636      7.402
REMARK INTER + INTRA:         -10.119
REMARK INTER:                  -9.286
REMARK INTRA:                  -0.832
REMARK UNBOUND:                -0.845
REMARK  Name = 
REMARK  6 active torsions:
REMARK  status: ('A' for Active; 'I' for Inactive)
REMARK    1  A    between atoms: C_2  and  C_3
REMARK    2  A    between atoms: C_7  and  C_8
REMARK    3  A    between atoms: C_12  and  C_13
REMARK    4  A    between atoms: C_13  and  N_14
REMARK    5  A    between atoms: N_14  and  C_15
REMARK    6  A    between atoms: C_18  and  C_19
REMARK                            x       y       z     vdW  Elec       q    Type
REMARK                         _______ _______ _______ _____ _____    ______ ____
ROOT
ATOM      1  C   UNL     1      45.021   4.138  10.252  0.00  0.00    +0.000 A 
ATOM      2  C   UNL     1      43.653   4.100  10.557  0.00  0.00    +0.000 A 
ATOM      3  C   UNL     1      43.162   4.623  11.758  0.00  0.00    +0.000 A 
ATOM      4  C   UNL     1      44.033   5.200  12.682  0.00  0.00    +0.000 A 
ATOM      5  C   UNL     1      45.406   5.268  12.427  0.00  0.00    +0.000 A 
ATOM      6  C   UNL     1      45.865   4.740  11.202  0.00  0.00    +0.000 A 
ENDROOT
BRANCH   1  11
ATOM      7  C   UNL     1      46.360   1.623   7.725  0.00  0.00    +0.000 A 
ATOM      8  C   UNL     1      46.678   2.446   6.646  0.00  0.00    +0.000 A 
ATOM      9  C   UNL     1      46.453   3.817   6.733  0.00  0.00    +0.000 A 
ATOM     10  C   UNL     1      45.903   4.359   7.899  0.00  0.00    +0.000 A 
ATOM     11  C   UNL     1      45.573   3.555   9.005  0.00  0.00    +0.000 A 
ATOM     12  C   UNL     1      45.821   2.177   8.896  0.00  0.00    +0.000 A 
BRANCH   7  14
ATOM     13  N   UNL     1      46.786  -0.932   7.584  0.00  0.00    +0.000 NA
ATOM     14  C   UNL     1      46.594   0.212   7.649  0.00  0.00    +0.000 C 
ENDBRANCH   7  14
ENDBRANCH   1  11
BRANCH   5  15
ATOM     15  C   UNL     1      46.406   5.890  13.392  0.00  0.00    +0.000 C 
ATOM     16  C   UNL     1      46.635   7.385  13.173  0.00  0.00    +0.000 C 
ATOM     17  C   UNL     1      47.747   6.422  12.937  0.00  0.00    +0.000 C 
BRANCH  15  18
ATOM     18  N   UNL     1      46.260   5.402  14.782  0.00  0.00    +0.000 N 
ATOM     19  H   UNL     1      45.301   5.181  15.047  0.00  0.00    +0.000 HD
BRANCH  18  20
ATOM     20  C   UNL     1      47.170   4.499  15.362  0.00  0.00    +0.000 A 
ATOM     21  C   UNL     1      47.453   3.225  14.900  0.00  0.00    +0.000 A 
ATOM     22  N   UNL     1      48.387   2.396  15.423  0.00  0.00    +0.000 NA
ATOM     23  C   UNL     1      49.096   2.897  16.451  0.00  0.00    +0.000 A 
ATOM     24  N   UNL     1      48.951   4.127  16.976  0.00  0.00    +0.000 NA
ATOM     25  C   UNL     1      47.997   4.895  16.404  0.00  0.00    +0.000 A 
BRANCH  23  26
ATOM     26  C   UNL     1      50.103   2.047  17.032  0.00  0.00    +0.000 C 
ATOM     27  N   UNL     1      50.920   1.361  17.500  0.00  0.00    +0.000 NA
ENDBRANCH  23  26
ENDBRANCH  18  20
ENDBRANCH  15  18
ENDBRANCH   5  15
TORSDOF 6
ENDMDL
MODEL 6
REMARK VINA RESULT:    -6.763      1.835      2.113
REMARK INTER + INTRA:          -9.981
REMARK INTER:                  -9.898
REMARK INTRA:                  -0.082
REMARK UNBOUND:                -0.845
REMARK  Name = 
REMARK  6 active torsions:
REMARK  status: ('A' for Active; 'I' for Inactive)
REMARK    1  A    between atoms: C_2  and  C_3
REMARK    2  A    between atoms: C_7  and  C_8
REMARK    3  A    between atoms: C_12  and  C_13
REMARK    4  A    between atoms: C_13  and  N_14
REMARK    5  A    between atoms: N_14  and  C_15
REMARK    6  A    between atoms: C_18  and  C_19
REMARK                            x       y       z     vdW  Elec       q    Type
REMARK                         _______ _______ _______ _____ _____    ______ ____
ROOT
ATOM      1  C   UNL     1      47.082   5.999  12.862  0.00  0.00    +0.000 A 
ATOM      2  C   UNL     1      47.466   4.848  13.565  0.00  0.00    +0.000 A 
ATOM      3  C   UNL     1      46.684   3.689  13.542  0.00  0.00    +0.000 A 
ATOM      4  C   UNL     1      45.498   3.655  12.809  0.00  0.00    +0.000 A 
ATOM      5  C   UNL     1      45.070   4.773  12.086  0.00  0.00    +0.000 A 
ATOM      6  C   UNL     1      45.888   5.922  12.124  0.00  0.00    +0.000 A 
ENDROOT
BRANCH   1  11
ATOM      7  C   UNL     1      48.768   9.167  14.138  0.00  0.00    +0.000 A 
ATOM      8  C   UNL     1      49.332   9.680  12.971  0.00  0.00    +0.000 A 
ATOM      9  C   UNL     1      49.172   8.996  11.769  0.00  0.00    +0.000 A 
ATOM     10  C   UNL     1      48.453   7.795  11.741  0.00  0.00    +0.000 A 
ATOM     11  C   UNL     1      47.871   7.254  12.902  0.00  0.00    +0.000 A 
ATOM     12  C   UNL     1      48.037   7.969  14.099  0.00  0.00    +0.000 A 
BRANCH   7  14
ATOM     13  N   UNL     1      49.049  10.430  16.386  0.00  0.00    +0.000 NA
ATOM     14  C   UNL     1      48.920   9.865  15.380  0.00  0.00    +0.000 C 
ENDBRANCH   7  14
ENDBRANCH   1  11
BRANCH   5  15
ATOM     15  C   UNL     1      43.789   4.796  11.264  0.00  0.00    +0.000 C 
ATOM     16  C   UNL     1      43.418   6.179  10.729  0.00  0.00    +0.000 C 
ATOM     17  C   UNL     1      42.541   5.511  11.731  0.00  0.00    +0.000 C 
BRANCH  15  18
ATOM     18  N   UNL     1      43.656   3.636  10.353  0.00  0.00    +0.000 N 
ATOM     19  H   UNL     1      42.738   3.552   9.919  0.00  0.00    +0.000 HD
BRANCH  18  20
ATOM     20  C   UNL     1      44.679   3.257   9.464  0.00  0.00    +0.000 A 
ATOM     21  C   UNL     1      45.125   1.965   9.247  0.00  0.00    +0.000 A 
ATOM     22  N   UNL     1      46.057   1.606   8.333  0.00  0.00    +0.000 NA
ATOM     23  C   UNL     1      46.542   2.607   7.575  0.00  0.00    +0.000 A 
ATOM     24  N   UNL     1      46.172   3.898   7.654  0.00  0.00    +0.000 NA
ATOM     25  C   UNL     1      45.240   4.180   8.592  0.00  0.00    +0.000 A 
BRANCH  23  26
ATOM     26  C   UNL     1      47.532   2.265   6.588  0.00  0.00    +0.000 C 
ATOM     27  N   UNL     1      48.336   1.991   5.789  0.00  0.00    +0.000 NA
ENDBRANCH  23  26
ENDBRANCH  18  20
ENDBRANCH  15  18
ENDBRANCH   5  15
TORSDOF 6
ENDMDL
MODEL 7
REMARK VINA RESULT:    -6.306      4.266      7.701
REMARK INTER + INTRA:          -9.363
REMARK INTER:                  -8.460
REMARK INTRA:                  -0.903
REMARK UNBOUND:                -0.845
REMARK  Name = 
REMARK  6 active torsions:
REMARK  status: ('A' for Active; 'I' for Inactive)
REMARK    1  A    between atoms: C_2  and  C_3
REMARK    2  A    between atoms: C_7  and  C_8
REMARK    3  A    between atoms: C_12  and  C_13
REMARK    4  A    between atoms: C_13  and  N_14
REMARK    5  A    between atoms: N_14  and  C_15
REMARK    6  A    between atoms: C_18  and  C_19
REMARK                            x       y       z     vdW  Elec       q    Type
REMARK                         _______ _______ _______ _____ _____    ______ ____
ROOT
ATOM      1  C   UNL     1      47.328   6.822  12.564  0.00  0.00    +0.000 A 
ATOM      2  C   UNL     1      48.373   7.164  11.694  0.00  0.00    +0.000 A 
ATOM      3  C   UNL     1      49.524   7.806  12.160  0.00  0.00    +0.000 A 
ATOM      4  C   UNL     1      49.657   8.119  13.512  0.00  0.00    +0.000 A 
ATOM      5  C   UNL     1      48.648   7.797  14.425  0.00  0.00    +0.000 A 
ATOM      6  C   UNL     1      47.505   7.140  13.922  0.00  0.00    +0.000 A 
ENDROOT
BRANCH   1  11
ATOM      7  C   UNL     1      44.814   5.005  10.353  0.00  0.00    +0.000 A 
ATOM      8  C   UNL     1      43.680   4.991  11.164  0.00  0.00    +0.000 A 
ATOM      9  C   UNL     1      43.730   5.565  12.431  0.00  0.00    +0.000 A 
ATOM     10  C   UNL     1      44.919   6.146  12.886  0.00  0.00    +0.000 A 
ATOM     11  C   UNL     1      46.079   6.176  12.091  0.00  0.00    +0.000 A 
ATOM     12  C   UNL     1      45.999   5.601  10.812  0.00  0.00    +0.000 A 
BRANCH   7  14
ATOM     13  N   UNL     1      44.743   3.948   7.986  0.00  0.00    +0.000 NA
ATOM     14  C   UNL     1      44.773   4.423   9.045  0.00  0.00    +0.000 C 
ENDBRANCH   7  14
ENDBRANCH   1  11
BRANCH   5  15
ATOM     15  C   UNL     1      48.736   8.107  15.913  0.00  0.00    +0.000 C 
ATOM     16  C   UNL     1      48.300   9.525  16.280  0.00  0.00    +0.000 C 
ATOM     17  C   UNL     1      49.718   9.112  16.473  0.00  0.00    +0.000 C 
BRANCH  15  18
ATOM     18  N   UNL     1      48.279   6.991  16.772  0.00  0.00    +0.000 N 
ATOM     19  H   UNL     1      47.270   6.853  16.772  0.00  0.00    +0.000 HD
BRANCH  18  20
ATOM     20  C   UNL     1      48.963   5.763  16.837  0.00  0.00    +0.000 A 
ATOM     21  C   UNL     1      50.286   5.592  17.208  0.00  0.00    +0.000 A 
ATOM     22  N   UNL     1      50.909   4.397  17.340  0.00  0.00    +0.000 NA
ATOM     23  C   UNL     1      50.142   3.314  17.114  0.00  0.00    +0.000 A 
ATOM     24  N   UNL     1      48.838   3.335  16.784  0.00  0.00    +0.000 NA
ATOM     25  C   UNL     1      48.286   4.563  16.667  0.00  0.00    +0.000 A 
BRANCH  23  26
ATOM     26  C   UNL     1      50.767   2.025  17.249  0.00  0.00    +0.000 C 
ATOM     27  N   UNL     1      51.272   0.981  17.362  0.00  0.00    +0.000 NA
ENDBRANCH  23  26
ENDBRANCH  18  20
ENDBRANCH  15  18
ENDBRANCH   5  15
TORSDOF 6
ENDMDL
MODEL 8
REMARK VINA RESULT:    -6.152      1.518      2.855
REMARK INTER + INTRA:          -9.156
REMARK INTER:                  -8.201
REMARK INTRA:                  -0.954
REMARK UNBOUND:                -0.845
REMARK  Name = 
REMARK  6 active torsions:
REMARK  status: ('A' for Active; 'I' for Inactive)
REMARK    1  A    between atoms: C_2  and  C_3
REMARK    2  A    between atoms: C_7  and  C_8
REMARK    3  A    between atoms: C_12  and  C_13
REMARK    4  A    between atoms: C_13  and  N_14
REMARK    5  A    between atoms: N_14  and  C_15
REMARK    6  A    between atoms: C_18  and  C_19
REMARK                            x       y       z     vdW  Elec       q    Type
REMARK                         _______ _______ _______ _____ _____    ______ ____
ROOT
ATOM      1  C   UNL     1      48.448   8.525  11.907  0.00  0.00    +0.000 A 
ATOM      2  C   UNL     1      47.589   9.611  12.124  0.00  0.00    +0.000 A 
ATOM      3  C   UNL     1      46.233   9.420  12.406  0.00  0.00    +0.000 A 
ATOM      4  C   UNL     1      45.705   8.131  12.481  0.00  0.00    +0.000 A 
ATOM      5  C   UNL     1      46.517   7.011  12.278  0.00  0.00    +0.000 A 
ATOM      6  C   UNL     1      47.883   7.241  12.005  0.00  0.00    +0.000 A 
ENDROOT
BRANCH   1  11
ATOM      7  C   UNL     1      51.990   7.802  10.708  0.00  0.00    +0.000 A 
ATOM      8  C   UNL     1      52.630   9.014  10.965  0.00  0.00    +0.000 A 
ATOM      9  C   UNL     1      51.914  10.069  11.522  0.00  0.00    +0.000 A 
ATOM     10  C   UNL     1      50.554   9.910  11.814  0.00  0.00    +0.000 A 
ATOM     11  C   UNL     1      49.881   8.700  11.567  0.00  0.00    +0.000 A 
ATOM     12  C   UNL     1      50.629   7.647  11.015  0.00  0.00    +0.000 A 
BRANCH   7  14
ATOM     13  N   UNL     1      53.311   5.818   9.686  0.00  0.00    +0.000 NA
ATOM     14  C   UNL     1      52.719   6.708  10.141  0.00  0.00    +0.000 C 
ENDBRANCH   7  14
ENDBRANCH   1  11
BRANCH   5  15
ATOM     15  C   UNL     1      46.002   5.581  12.351  0.00  0.00    +0.000 C 
ATOM     16  C   UNL     1      45.775   5.073  13.775  0.00  0.00    +0.000 C 
ATOM     17  C   UNL     1      46.829   4.452  12.925  0.00  0.00    +0.000 C 
BRANCH  15  18
ATOM     18  N   UNL     1      44.977   5.274  11.328  0.00  0.00    +0.000 N 
ATOM     19  H   UNL     1      44.237   5.970  11.259  0.00  0.00    +0.000 HD
BRANCH  18  20
ATOM     20  C   UNL     1      45.309   4.753  10.064  0.00  0.00    +0.000 A 
ATOM     21  C   UNL     1      46.045   5.403   9.088  0.00  0.00    +0.000 A 
ATOM     22  N   UNL     1      46.422   4.860   7.906  0.00  0.00    +0.000 NA
ATOM     23  C   UNL     1      46.059   3.579   7.714  0.00  0.00    +0.000 A 
ATOM     24  N   UNL     1      45.375   2.820   8.589  0.00  0.00    +0.000 NA
ATOM     25  C   UNL     1      45.031   3.431   9.745  0.00  0.00    +0.000 A 
BRANCH  23  26
ATOM     26  C   UNL     1      46.444   2.965   6.470  0.00  0.00    +0.000 C 
ATOM     27  N   UNL     1      46.756   2.472   5.462  0.00  0.00    +0.000 NA
ENDBRANCH  23  26
ENDBRANCH  18  20
ENDBRANCH  15  18
ENDBRANCH   5  15
TORSDOF 6
ENDMDL
MODEL 9
REMARK VINA RESULT:    -5.732      3.507      8.326
REMARK INTER + INTRA:          -8.588
REMARK INTER:                  -8.080
REMARK INTRA:                  -0.508
REMARK UNBOUND:                -0.845
REMARK  Name = 
REMARK  6 active torsions:
REMARK  status: ('A' for Active; 'I' for Inactive)
REMARK    1  A    between atoms: C_2  and  C_3
REMARK    2  A    between atoms: C_7  and  C_8
REMARK    3  A    between atoms: C_12  and  C_13
REMARK    4  A    between atoms: C_13  and  N_14
REMARK    5  A    between atoms: N_14  and  C_15
REMARK    6  A    between atoms: C_18  and  C_19
REMARK                            x       y       z     vdW  Elec       q    Type
REMARK                         _______ _______ _______ _____ _____    ______ ____
ROOT
ATOM      1  C   UNL     1      45.938   6.951  12.124  0.00  0.00    +0.000 A 
ATOM      2  C   UNL     1      45.359   8.225  12.190  0.00  0.00    +0.000 A 
ATOM      3  C   UNL     1      46.147   9.376  12.293  0.00  0.00    +0.000 A 
ATOM      4  C   UNL     1      47.537   9.276  12.329  0.00  0.00    +0.000 A 
ATOM      5  C   UNL     1      48.168   8.029  12.262  0.00  0.00    +0.000 A 
ATOM      6  C   UNL     1      47.343   6.891  12.149  0.00  0.00    +0.000 A 
ENDROOT
BRANCH   1  11
ATOM      7  C   UNL     1      44.506   3.632  10.923  0.00  0.00    +0.000 A 
ATOM      8  C   UNL     1      43.540   3.371  11.893  0.00  0.00    +0.000 A 
ATOM      9  C   UNL     1      43.355   4.267  12.942  0.00  0.00    +0.000 A 
ATOM     10  C   UNL     1      44.144   5.420  13.020  0.00  0.00    +0.000 A 
ATOM     11  C   UNL     1      45.126   5.711  12.056  0.00  0.00    +0.000 A 
ATOM     12  C   UNL     1      45.285   4.797  11.002  0.00  0.00    +0.000 A 
BRANCH   7  14
ATOM     13  N   UNL     1      44.863   1.984   8.952  0.00  0.00    +0.000 NA
ATOM     14  C   UNL     1      44.701   2.720   9.835  0.00  0.00    +0.000 C 
ENDBRANCH   7  14
ENDBRANCH   1  11
BRANCH   5  15
ATOM     15  C   UNL     1      49.680   7.855  12.291  0.00  0.00    +0.000 C 
ATOM     16  C   UNL     1      50.454   9.026  11.684  0.00  0.00    +0.000 C 
ATOM     17  C   UNL     1      50.500   7.688  11.030  0.00  0.00    +0.000 C 
BRANCH  15  18
ATOM     18  N   UNL     1      50.178   7.269  13.556  0.00  0.00    +0.000 N 
ATOM     19  H   UNL     1      51.185   7.113  13.573  0.00  0.00    +0.000 HD
BRANCH  18  20
ATOM     20  C   UNL     1      49.703   7.681  14.814  0.00  0.00    +0.000 A 
ATOM     21  C   UNL     1      49.679   8.983  15.284  0.00  0.00    +0.000 A 
ATOM     22  N   UNL     1      49.148   9.375  16.466  0.00  0.00    +0.000 NA
ATOM     23  C   UNL     1      48.582   8.399  17.200  0.00  0.00    +0.000 A 
ATOM     24  N   UNL     1      48.503   7.102  16.850  0.00  0.00    +0.000 NA
ATOM     25  C   UNL     1      49.058   6.787  15.658  0.00  0.00    +0.000 A 
BRANCH  23  26
ATOM     26  C   UNL     1      48.003   8.776  18.463  0.00  0.00    +0.000 C 
ATOM     27  N   UNL     1      47.538   9.082  19.487  0.00  0.00    +0.000 NA
ENDBRANCH  23  26
ENDBRANCH  18  20
ENDBRANCH  15  18
ENDBRANCH   5  15
TORSDOF 6
ENDMDL
