MODEL 1
REMARK VINA RESULT:    -8.023      0.000      0.000
REMARK INTER + INTRA:         -10.397
REMARK INTER:                  -9.899
REMARK INTRA:                  -0.498
REMARK UNBOUND:                -0.498
REMARK  Name = 
REMARK  4 active torsions:
REMARK  status: ('A' for Active; 'I' for Inactive)
REMARK    1  A    between atoms: C_2  and  C_4
REMARK    2  A    between atoms: C_7  and  O_8
REMARK    3  A    between atoms: O_8  and  C_9
REMARK    4  A    between atoms: C_9  and  C_10
REMARK                            x       y       z     vdW  Elec       q    Type
REMARK                         _______ _______ _______ _____ _____    ______ ____
ROOT
ATOM      1  C   UNL     1      46.415   2.710   7.554  0.00  0.00    +0.000 A 
ATOM      2  C   UNL     1      45.913   1.715   8.389  0.00  0.00    +0.000 A 
ATOM      3  C   UNL     1      45.031   2.072   9.406  0.00  0.00    +0.000 A 
ATOM      4  C   UNL     1      44.667   3.406   9.548  0.00  0.00    +0.000 A 
ATOM      5  N   UNL     1      45.129   4.398   8.759  0.00  0.00    +0.000 NA
ATOM      6  C   UNL     1      46.007   4.023   7.783  0.00  0.00    +0.000 A 
ENDROOT
BRANCH   1   8
ATOM      7  N   UNL     1      47.332   3.184   5.346  0.00  0.00    +0.000 N 
ATOM      8  C   UNL     1      47.395   2.426   6.482  0.00  0.00    +0.000 C 
ATOM      9  O   UNL     1      48.248   1.553   6.613  0.00  0.00    +0.000 OA
ATOM     10  H   UNL     1      48.049   3.020   4.648  0.00  0.00    +0.000 HD
ATOM     11  H   UNL     1      46.806   4.043   5.279  0.00  0.00    +0.000 HD
ENDBRANCH   1   8
BRANCH   4  12
ATOM     12  O   UNL     1      43.832   3.669  10.618  0.00  0.00    +0.000 OA
BRANCH  12  13
ATOM     13  C   UNL     1      43.931   4.943  11.293  0.00  0.00    +0.000 C 
ATOM     14  C   UNL     1      42.698   5.150  12.175  0.00  0.00    +0.000 C 
ATOM     15  C   UNL     1      42.946   6.062  11.024  0.00  0.00    +0.000 C 
BRANCH  13  16
ATOM     16  C   UNL     1      45.294   5.304  11.867  0.00  0.00    +0.000 A 
ATOM     17  C   UNL     1      45.995   6.437  11.410  0.00  0.00    +0.000 A 
ATOM     18  C   UNL     1      47.217   6.816  11.976  0.00  0.00    +0.000 A 
ATOM     19  C   UNL     1      47.758   6.058  13.005  0.00  0.00    +0.000 A 
ATOM     20  F   UNL     1      48.919   6.429  13.563  0.00  0.00    +0.000 F 
ATOM     21  C   UNL     1      47.110   4.920  13.465  0.00  0.00    +0.000 A 
ATOM     22  C   UNL     1      45.893   4.545  12.891  0.00  0.00    +0.000 A 
ENDBRANCH  13  16
ENDBRANCH  12  13
ENDBRANCH   4  12
TORSDOF 4
ENDMDL
MODEL 2
REMARK VINA RESULT:    -7.799      0.953      1.738
REMARK INTER + INTRA:         -10.121
REMARK INTER:                 -10.333
REMARK INTRA:                   0.211
REMARK UNBOUND:                -0.498
REMARK  Name = 
REMARK  4 active torsions:
REMARK  status: ('A' for Active; 'I' for Inactive)
REMARK    1  A    between atoms: C_2  and  C_4
REMARK    2  A    between atoms: C_7  and  O_8
REMARK    3  A    between atoms: O_8  and  C_9
REMARK    4  A    between atoms: C_9  and  C_10
REMARK                            x       y       z     vdW  Elec       q    Type
REMARK                         _______ _______ _______ _____ _____    ______ ____
ROOT
ATOM      1  C   UNL     1      46.423   2.374   7.846  0.00  0.00    +0.000 A 
ATOM      2  C   UNL     1      46.403   3.755   7.666  0.00  0.00    +0.000 A 
ATOM      3  C   UNL     1      45.494   4.516   8.397  0.00  0.00    +0.000 A 
ATOM      4  C   UNL     1      44.646   3.879   9.293  0.00  0.00    +0.000 A 
ATOM      5  N   UNL     1      44.636   2.545   9.498  0.00  0.00    +0.000 NA
ATOM      6  C   UNL     1      45.522   1.821   8.755  0.00  0.00    +0.000 A 
ENDROOT
BRANCH   1   8
ATOM      7  N   UNL     1      48.382   2.061   6.430  0.00  0.00    +0.000 N 
ATOM      8  C   UNL     1      47.320   1.487   7.073  0.00  0.00    +0.000 C 
ATOM      9  O   UNL     1      47.132   0.275   7.025  0.00  0.00    +0.000 OA
ATOM     10  H   UNL     1      49.023   1.433   5.958  0.00  0.00    +0.000 HD
ATOM     11  H   UNL     1      48.703   3.000   6.617  0.00  0.00    +0.000 HD
ENDBRANCH   1   8
BRANCH   4  12
ATOM     12  O   UNL     1      43.743   4.710   9.930  0.00  0.00    +0.000 OA
BRANCH  12  13
ATOM     13  C   UNL     1      43.858   4.916  11.356  0.00  0.00    +0.000 C 
ATOM     14  C   UNL     1      43.169   3.766  12.094  0.00  0.00    +0.000 C 
ATOM     15  C   UNL     1      42.639   5.152  12.225  0.00  0.00    +0.000 C 
BRANCH  13  16
ATOM     16  C   UNL     1      45.211   5.391  11.866  0.00  0.00    +0.000 A 
ATOM     17  C   UNL     1      45.894   4.684  12.875  0.00  0.00    +0.000 A 
ATOM     18  C   UNL     1      47.168   5.073  13.305  0.00  0.00    +0.000 A 
ATOM     19  C   UNL     1      47.771   6.184  12.733  0.00  0.00    +0.000 A 
ATOM     20  F   UNL     1      48.999   6.548  13.129  0.00  0.00    +0.000 F 
ATOM     21  C   UNL     1      47.120   6.922  11.755  0.00  0.00    +0.000 A 
ATOM     22  C   UNL     1      45.847   6.530  11.335  0.00  0.00    +0.000 A 
ENDBRANCH  13  16
ENDBRANCH  12  13
ENDBRANCH   4  12
TORSDOF 4
ENDMDL
MODEL 3
REMARK VINA RESULT:    -6.719      3.507      6.136
REMARK INTER + INTRA:          -8.788
REMARK INTER:                  -8.426
REMARK INTRA:                  -0.362
REMARK UNBOUND:                -0.498
REMARK  Name = 
REMARK  4 active torsions:
REMARK  status: ('A' for Active; 'I' for Inactive)
REMARK    1  A    between atoms: C_2  and  C_4
REMARK    2  A    between atoms: C_7  and  O_8
REMARK    3  A    between atoms: O_8  and  C_9
REMARK    4  A    between atoms: C_9  and  C_10
REMARK                            x       y       z     vdW  Elec       q    Type
REMARK                         _______ _______ _______ _____ _____    ______ ____
ROOT
ATOM      1  C   UNL     1      48.183   6.702  13.372  0.00  0.00    +0.000 A 
ATOM      2  C   UNL     1      47.936   7.202  12.096  0.00  0.00    +0.000 A 
ATOM      3  C   UNL     1      46.755   6.845  11.450  0.00  0.00    +0.000 A 
ATOM      4  C   UNL     1      45.854   6.012  12.101  0.00  0.00    +0.000 A 
ATOM      5  N   UNL     1      46.055   5.509  13.337  0.00  0.00    +0.000 NA
ATOM      6  C   UNL     1      47.229   5.860  13.939  0.00  0.00    +0.000 A 
ENDROOT
BRANCH   1   8
ATOM      7  N   UNL     1      50.358   7.796  13.500  0.00  0.00    +0.000 N 
ATOM      8  C   UNL     1      49.434   6.991  14.108  0.00  0.00    +0.000 C 
ATOM      9  O   UNL     1      49.630   6.541  15.232  0.00  0.00    +0.000 OA
ATOM     10  H   UNL     1      51.181   8.036  14.041  0.00  0.00    +0.000 HD
ATOM     11  H   UNL     1      50.154   8.360  12.688  0.00  0.00    +0.000 HD
ENDBRANCH   1   8
BRANCH   4  12
ATOM     12  O   UNL     1      44.739   5.669  11.359  0.00  0.00    +0.000 OA
BRANCH  12  13
ATOM     13  C   UNL     1      44.482   4.275  11.076  0.00  0.00    +0.000 C 
ATOM     14  C   UNL     1      43.007   3.964  11.341  0.00  0.00    +0.000 C 
ATOM     15  C   UNL     1      44.061   3.308  12.164  0.00  0.00    +0.000 C 
BRANCH  13  16
ATOM     16  C   UNL     1      45.121   3.709   9.815  0.00  0.00    +0.000 A 
ATOM     17  C   UNL     1      45.208   2.319   9.609  0.00  0.00    +0.000 A 
ATOM     18  C   UNL     1      45.732   1.788   8.425  0.00  0.00    +0.000 A 
ATOM     19  C   UNL     1      46.185   2.647   7.434  0.00  0.00    +0.000 A 
ATOM     20  F   UNL     1      46.670   2.142   6.290  0.00  0.00    +0.000 F 
ATOM     21  C   UNL     1      46.140   4.022   7.610  0.00  0.00    +0.000 A 
ATOM     22  C   UNL     1      45.620   4.544   8.796  0.00  0.00    +0.000 A 
ENDBRANCH  13  16
ENDBRANCH  12  13
ENDBRANCH   4  12
TORSDOF 4
ENDMDL
MODEL 4
REMARK VINA RESULT:    -6.454      3.656      6.469
REMARK INTER + INTRA:          -8.461
REMARK INTER:                  -8.260
REMARK INTRA:                  -0.202
REMARK UNBOUND:                -0.498
REMARK  Name = 
REMARK  4 active torsions:
REMARK  status: ('A' for Active; 'I' for Inactive)
REMARK    1  A    between atoms: C_2  and  C_4
REMARK    2  A    between atoms: C_7  and  O_8
REMARK    3  A    between atoms: O_8  and  C_9
REMARK    4  A    between atoms: C_9  and  C_10
REMARK                            x       y       z     vdW  Elec       q    Type
REMARK                         _______ _______ _______ _____ _____    ______ ____
ROOT
ATOM      1  C   UNL     1      47.759   6.398  14.377  0.00  0.00    +0.000 A 
ATOM      2  C   UNL     1      47.417   7.527  13.636  0.00  0.00    +0.000 A 
ATOM      3  C   UNL     1      46.518   7.394  12.582  0.00  0.00    +0.000 A 
ATOM      4  C   UNL     1      45.977   6.144  12.308  0.00  0.00    +0.000 A 
ATOM      5  N   UNL     1      46.279   5.027  13.002  0.00  0.00    +0.000 NA
ATOM      6  C   UNL     1      47.179   5.182  14.018  0.00  0.00    +0.000 A 
ENDROOT
BRANCH   1   8
ATOM      7  N   UNL     1      48.278   6.270  16.755  0.00  0.00    +0.000 N 
ATOM      8  C   UNL     1      48.744   6.440  15.480  0.00  0.00    +0.000 C 
ATOM      9  O   UNL     1      49.940   6.605  15.261  0.00  0.00    +0.000 OA
ATOM     10  H   UNL     1      48.971   6.239  17.493  0.00  0.00    +0.000 HD
ATOM     11  H   UNL     1      47.356   5.917  16.967  0.00  0.00    +0.000 HD
ENDBRANCH   1   8
BRANCH   4  12
ATOM     12  O   UNL     1      45.139   6.102  11.210  0.00  0.00    +0.000 OA
BRANCH  12  13
ATOM     13  C   UNL     1      44.473   4.863  10.877  0.00  0.00    +0.000 C 
ATOM     14  C   UNL     1      42.961   5.089  10.843  0.00  0.00    +0.000 C 
ATOM     15  C   UNL     1      43.549   4.169  11.857  0.00  0.00    +0.000 C 
BRANCH  13  16
ATOM     16  C   UNL     1      45.102   4.032   9.766  0.00  0.00    +0.000 A 
ATOM     17  C   UNL     1      45.018   2.627   9.777  0.00  0.00    +0.000 A 
ATOM     18  C   UNL     1      45.532   1.857   8.728  0.00  0.00    +0.000 A 
ATOM     19  C   UNL     1      46.147   2.488   7.655  0.00  0.00    +0.000 A 
ATOM     20  F   UNL     1      46.624   1.754   6.639  0.00  0.00    +0.000 F 
ATOM     21  C   UNL     1      46.272   3.869   7.620  0.00  0.00    +0.000 A 
ATOM     22  C   UNL     1      45.760   4.630   8.673  0.00  0.00    +0.000 A 
ENDBRANCH  13  16
ENDBRANCH  12  13
ENDBRANCH   4  12
TORSDOF 4
ENDMDL
MODEL 5
REMARK VINA RESULT:    -5.916      4.354      7.083
REMARK INTER + INTRA:          -7.797
REMARK INTER:                  -7.421
REMARK INTRA:                  -0.376
REMARK UNBOUND:                -0.498
REMARK  Name = 
REMARK  4 active torsions:
REMARK  status: ('A' for Active; 'I' for Inactive)
REMARK    1  A    between atoms: C_2  and  C_4
REMARK    2  A    between atoms: C_7  and  O_8
REMARK    3  A    between atoms: O_8  and  C_9
REMARK    4  A    between atoms: C_9  and  C_10
REMARK                            x       y       z     vdW  Elec       q    Type
REMARK                         _______ _______ _______ _____ _____    ______ ____
ROOT
ATOM      1  C   UNL     1      48.137   4.879  16.400  0.00  0.00    +0.000 A 
ATOM      2  C   UNL     1      48.544   6.113  15.898  0.00  0.00    +0.000 A 
ATOM      3  C   UNL     1      48.214   6.448  14.587  0.00  0.00    +0.000 A 
ATOM      4  C   UNL     1      47.477   5.551  13.825  0.00  0.00    +0.000 A 
ATOM      5  N   UNL     1      47.061   4.349  14.275  0.00  0.00    +0.000 NA
ATOM      6  C   UNL     1      47.416   4.037  15.556  0.00  0.00    +0.000 A 
ENDROOT
BRANCH   1   8
ATOM      7  N   UNL     1      47.498   4.418  18.706  0.00  0.00    +0.000 N 
ATOM      8  C   UNL     1      48.489   4.423  17.763  0.00  0.00    +0.000 C 
ATOM      9  O   UNL     1      49.623   4.044  18.035  0.00  0.00    +0.000 OA
ATOM     10  H   UNL     1      47.738   4.044  19.617  0.00  0.00    +0.000 HD
ATOM     11  H   UNL     1      46.518   4.506  18.483  0.00  0.00    +0.000 HD
ENDBRANCH   1   8
BRANCH   4  12
ATOM     12  O   UNL     1      47.246   5.949  12.521  0.00  0.00    +0.000 OA
BRANCH  12  13
ATOM     13  C   UNL     1      45.885   6.112  12.064  0.00  0.00    +0.000 C 
ATOM     14  C   UNL     1      45.614   7.591  11.783  0.00  0.00    +0.000 C 
ATOM     15  C   UNL     1      44.865   6.894  12.866  0.00  0.00    +0.000 C 
BRANCH  13  16
ATOM     16  C   UNL     1      45.379   5.085  11.060  0.00  0.00    +0.000 A 
ATOM     17  C   UNL     1      45.662   5.214   9.687  0.00  0.00    +0.000 A 
ATOM     18  C   UNL     1      45.260   4.242   8.764  0.00  0.00    +0.000 A 
ATOM     19  C   UNL     1      44.559   3.129   9.207  0.00  0.00    +0.000 A 
ATOM     20  F   UNL     1      44.189   2.186   8.328  0.00  0.00    +0.000 F 
ATOM     21  C   UNL     1      44.238   2.978  10.548  0.00  0.00    +0.000 A 
ATOM     22  C   UNL     1      44.639   3.955  11.462  0.00  0.00    +0.000 A 
ENDBRANCH  13  16
ENDBRANCH  12  13
ENDBRANCH   4  12
TORSDOF 4
ENDMDL
MODEL 6
REMARK VINA RESULT:    -5.662      4.366      7.237
REMARK INTER + INTRA:          -7.483
REMARK INTER:                  -7.014
REMARK INTRA:                  -0.470
REMARK UNBOUND:                -0.498
REMARK  Name = 
REMARK  4 active torsions:
REMARK  status: ('A' for Active; 'I' for Inactive)
REMARK    1  A    between atoms: C_2  and  C_4
REMARK    2  A    between atoms: C_7  and  O_8
REMARK    3  A    between atoms: O_8  and  C_9
REMARK    4  A    between atoms: C_9  and  C_10
REMARK                            x       y       z     vdW  Elec       q    Type
REMARK                         _______ _______ _______ _____ _____    ______ ____
ROOT
ATOM      1  C   UNL     1      47.964   4.455  16.672  0.00  0.00    +0.000 A 
ATOM      2  C   UNL     1      48.630   5.676  16.734  0.00  0.00    +0.000 A 
ATOM      3  C   UNL     1      48.674   6.477  15.596  0.00  0.00    +0.000 A 
ATOM      4  C   UNL     1      48.041   6.041  14.438  0.00  0.00    +0.000 A 
ATOM      5  N   UNL     1      47.384   4.867  14.339  0.00  0.00    +0.000 NA
ATOM      6  C   UNL     1      47.373   4.093  15.463  0.00  0.00    +0.000 A 
ENDROOT
BRANCH   1   8
ATOM      7  N   UNL     1      46.885   2.619  17.858  0.00  0.00    +0.000 N 
ATOM      8  C   UNL     1      47.912   3.521  17.819  0.00  0.00    +0.000 C 
ATOM      9  O   UNL     1      48.770   3.540  18.696  0.00  0.00    +0.000 OA
ATOM     10  H   UNL     1      46.898   1.945  18.616  0.00  0.00    +0.000 HD
ATOM     11  H   UNL     1      46.292   2.417  17.067  0.00  0.00    +0.000 HD
ENDBRANCH   1   8
BRANCH   4  12
ATOM     12  O   UNL     1      48.188   6.878  13.347  0.00  0.00    +0.000 OA
BRANCH  12  13
ATOM     13  C   UNL     1      47.033   7.584  12.840  0.00  0.00    +0.000 C 
ATOM     14  C   UNL     1      47.483   8.891  12.183  0.00  0.00    +0.000 C 
ATOM     15  C   UNL     1      46.620   8.932  13.396  0.00  0.00    +0.000 C 
BRANCH  13  16
ATOM     16  C   UNL     1      45.982   6.745  12.127  0.00  0.00    +0.000 A 
ATOM     17  C   UNL     1      46.271   6.109  10.904  0.00  0.00    +0.000 A 
ATOM     18  C   UNL     1      45.335   5.280  10.274  0.00  0.00    +0.000 A 
ATOM     19  C   UNL     1      44.092   5.086  10.859  0.00  0.00    +0.000 A 
ATOM     20  F   UNL     1      43.201   4.278  10.268  0.00  0.00    +0.000 F 
ATOM     21  C   UNL     1      43.761   5.716  12.050  0.00  0.00    +0.000 A 
ATOM     22  C   UNL     1      44.698   6.544  12.670  0.00  0.00    +0.000 A 
ENDBRANCH  13  16
ENDBRANCH  12  13
ENDBRANCH   4  12
TORSDOF 4
ENDMDL
MODEL 7
REMARK VINA RESULT:    -5.567      3.305      5.216
REMARK INTER + INTRA:          -7.367
REMARK INTER:                  -6.947
REMARK INTRA:                  -0.420
REMARK UNBOUND:                -0.498
REMARK  Name = 
REMARK  4 active torsions:
REMARK  status: ('A' for Active; 'I' for Inactive)
REMARK    1  A    between atoms: C_2  and  C_4
REMARK    2  A    between atoms: C_7  and  O_8
REMARK    3  A    between atoms: O_8  and  C_9
REMARK    4  A    between atoms: C_9  and  C_10
REMARK                            x       y       z     vdW  Elec       q    Type
REMARK                         _______ _______ _______ _____ _____    ______ ____
ROOT
ATOM      1  C   UNL     1      44.668   4.162  11.407  0.00  0.00    +0.000 A 
ATOM      2  C   UNL     1      45.146   5.058  10.454  0.00  0.00    +0.000 A 
ATOM      3  C   UNL     1      45.750   6.237  10.882  0.00  0.00    +0.000 A 
ATOM      4  C   UNL     1      45.871   6.478  12.245  0.00  0.00    +0.000 A 
ATOM      5  N   UNL     1      45.424   5.635  13.199  0.00  0.00    +0.000 NA
ATOM      6  C   UNL     1      44.818   4.497  12.751  0.00  0.00    +0.000 A 
ENDROOT
BRANCH   1   8
ATOM      7  N   UNL     1      44.482   2.177  10.005  0.00  0.00    +0.000 N 
ATOM      8  C   UNL     1      43.968   2.911  11.038  0.00  0.00    +0.000 C 
ATOM      9  O   UNL     1      42.973   2.534  11.648  0.00  0.00    +0.000 OA
ATOM     10  H   UNL     1      44.030   1.292   9.805  0.00  0.00    +0.000 HD
ATOM     11  H   UNL     1      45.405   2.324   9.623  0.00  0.00    +0.000 HD
ENDBRANCH   1   8
BRANCH   4  12
ATOM     12  O   UNL     1      46.434   7.698  12.571  0.00  0.00    +0.000 OA
BRANCH  12  13
ATOM     13  C   UNL     1      47.834   7.758  12.925  0.00  0.00    +0.000 C 
ATOM     14  C   UNL     1      48.541   8.785  12.039  0.00  0.00    +0.000 C 
ATOM     15  C   UNL     1      48.918   7.347  11.950  0.00  0.00    +0.000 C 
BRANCH  13  16
ATOM     16  C   UNL     1      48.159   7.745  14.413  0.00  0.00    +0.000 A 
ATOM     17  C   UNL     1      48.570   6.561  15.054  0.00  0.00    +0.000 A 
ATOM     18  C   UNL     1      48.935   6.552  16.405  0.00  0.00    +0.000 A 
ATOM     19  C   UNL     1      48.886   7.731  17.134  0.00  0.00    +0.000 A 
ATOM     20  F   UNL     1      49.254   7.730  18.423  0.00  0.00    +0.000 F 
ATOM     21  C   UNL     1      48.461   8.913  16.545  0.00  0.00    +0.000 A 
ATOM     22  C   UNL     1      48.093   8.914  15.197  0.00  0.00    +0.000 A 
ENDBRANCH  13  16
ENDBRANCH  12  13
ENDBRANCH   4  12
TORSDOF 4
ENDMDL
MODEL 8
REMARK VINA RESULT:    -5.567      5.187      7.303
REMARK INTER + INTRA:          -7.367
REMARK INTER:                  -6.957
REMARK INTRA:                  -0.410
REMARK UNBOUND:                -0.498
REMARK  Name = 
REMARK  4 active torsions:
REMARK  status: ('A' for Active; 'I' for Inactive)
REMARK    1  A    between atoms: C_2  and  C_4
REMARK    2  A    between atoms: C_7  and  O_8
REMARK    3  A    between atoms: O_8  and  C_9
REMARK    4  A    between atoms: C_9  and  C_10
REMARK                            x       y       z     vdW  Elec       q    Type
REMARK                         _______ _______ _______ _____ _____    ______ ____
ROOT
ATOM      1  C   UNL     1      46.552   6.725  13.202  0.00  0.00    +0.000 A 
ATOM      2  C   UNL     1      45.755   5.585  13.293  0.00  0.00    +0.000 A 
ATOM      3  C   UNL     1      46.204   4.510  14.054  0.00  0.00    +0.000 A 
ATOM      4  C   UNL     1      47.424   4.609  14.712  0.00  0.00    +0.000 A 
ATOM      5  N   UNL     1      48.223   5.695  14.652  0.00  0.00    +0.000 NA
ATOM      6  C   UNL     1      47.768   6.727  13.882  0.00  0.00    +0.000 A 
ENDROOT
BRANCH   1   8
ATOM      7  N   UNL     1      44.854   8.041  12.051  0.00  0.00    +0.000 N 
ATOM      8  C   UNL     1      46.174   7.892  12.374  0.00  0.00    +0.000 C 
ATOM      9  O   UNL     1      47.012   8.708  12.005  0.00  0.00    +0.000 OA
ATOM     10  H   UNL     1      44.601   8.878  11.538  0.00  0.00    +0.000 HD
ATOM     11  H   UNL     1      44.109   7.532  12.506  0.00  0.00    +0.000 HD
ENDBRANCH   1   8
BRANCH   4  12
ATOM     12  O   UNL     1      47.809   3.471  15.396  0.00  0.00    +0.000 OA
BRANCH  12  13
ATOM     13  C   UNL     1      48.134   3.568  16.801  0.00  0.00    +0.000 C 
ATOM     14  C   UNL     1      47.019   2.927  17.629  0.00  0.00    +0.000 C 
ATOM     15  C   UNL     1      47.289   4.386  17.757  0.00  0.00    +0.000 C 
BRANCH  13  16
ATOM     16  C   UNL     1      49.577   3.272  17.186  0.00  0.00    +0.000 A 
ATOM     17  C   UNL     1      50.111   1.976  17.051  0.00  0.00    +0.000 A 
ATOM     18  C   UNL     1      51.454   1.707  17.338  0.00  0.00    +0.000 A 
ATOM     19  C   UNL     1      52.279   2.734  17.774  0.00  0.00    +0.000 A 
ATOM     20  F   UNL     1      53.570   2.484  18.032  0.00  0.00    +0.000 F 
ATOM     21  C   UNL     1      51.783   4.019  17.945  0.00  0.00    +0.000 A 
ATOM     22  C   UNL     1      50.441   4.279  17.661  0.00  0.00    +0.000 A 
ENDBRANCH  13  16
ENDBRANCH  12  13
ENDBRANCH   4  12
TORSDOF 4
ENDMDL
MODEL 9
REMARK VINA RESULT:    -5.549      4.959      7.927
REMARK INTER + INTRA:          -7.344
REMARK INTER:                  -6.727
REMARK INTRA:                  -0.617
REMARK UNBOUND:                -0.498
REMARK  Name = 
REMARK  4 active torsions:
REMARK  status: ('A' for Active; 'I' for Inactive)
REMARK    1  A    between atoms: C_2  and  C_4
REMARK    2  A    between atoms: C_7  and  O_8
REMARK    3  A    between atoms: O_8  and  C_9
REMARK    4  A    between atoms: C_9  and  C_10
REMARK                            x       y       z     vdW  Elec       q    Type
REMARK                         _______ _______ _______ _____ _____    ______ ____
ROOT
ATOM      1  C   UNL     1      48.248   5.183  17.721  0.00  0.00    +0.000 A 
ATOM      2  C   UNL     1      48.767   6.342  17.149  0.00  0.00    +0.000 A 
ATOM      3  C   UNL     1      48.653   6.522  15.773  0.00  0.00    +0.000 A 
ATOM      4  C   UNL     1      48.014   5.549  15.014  0.00  0.00    +0.000 A 
ATOM      5  N   UNL     1      47.496   4.415  15.530  0.00  0.00    +0.000 NA
ATOM      6  C   UNL     1      47.640   4.255  16.878  0.00  0.00    +0.000 A 
ENDROOT
BRANCH   1   8
ATOM      7  N   UNL     1      48.300   3.580  19.556  0.00  0.00    +0.000 N 
ATOM      8  C   UNL     1      48.372   4.889  19.166  0.00  0.00    +0.000 C 
ATOM      9  O   UNL     1      48.550   5.784  19.986  0.00  0.00    +0.000 OA
ATOM     10  H   UNL     1      48.449   3.388  20.540  0.00  0.00    +0.000 HD
ATOM     11  H   UNL     1      48.375   2.803  18.915  0.00  0.00    +0.000 HD
ENDBRANCH   1   8
BRANCH   4  12
ATOM     12  O   UNL     1      47.999   5.791  13.653  0.00  0.00    +0.000 OA
BRANCH  12  13
ATOM     13  C   UNL     1      46.821   6.373  13.052  0.00  0.00    +0.000 C 
ATOM     14  C   UNL     1      47.238   7.444  12.042  0.00  0.00    +0.000 C 
ATOM     15  C   UNL     1      46.464   7.832  13.255  0.00  0.00    +0.000 C 
BRANCH  13  16
ATOM     16  C   UNL     1      45.712   5.407  12.659  0.00  0.00    +0.000 A 
ATOM     17  C   UNL     1      46.011   4.141  12.120  0.00  0.00    +0.000 A 
ATOM     18  C   UNL     1      45.003   3.219  11.818  0.00  0.00    +0.000 A 
ATOM     19  C   UNL     1      43.677   3.559  12.045  0.00  0.00    +0.000 A 
ATOM     20  F   UNL     1      42.709   2.671  11.775  0.00  0.00    +0.000 F 
ATOM     21  C   UNL     1      43.339   4.806  12.551  0.00  0.00    +0.000 A 
ATOM     22  C   UNL     1      44.351   5.723  12.845  0.00  0.00    +0.000 A 
ENDBRANCH  13  16
ENDBRANCH  12  13
ENDBRANCH   4  12
TORSDOF 4
ENDMDL
