MODEL 1
REMARK VINA RESULT:    -8.504      0.000      0.000
REMARK INTER + INTRA:         -12.525
REMARK INTER:                 -11.736
REMARK INTRA:                  -0.790
REMARK UNBOUND:                -0.790
REMARK  Name = 
REMARK  7 active torsions:
REMARK  status: ('A' for Active; 'I' for Inactive)
REMARK    1  A    between atoms: C_2  and  C_20
REMARK    2  A    between atoms: N_3  and  C_4
REMARK    3  A    between atoms: C_4  and  C_5
REMARK    4  A    between atoms: C_8  and  C_9
REMARK    5  A    between atoms: C_9  and  O_10
REMARK    6  A    between atoms: C_9  and  C_11
REMARK    7  A    between atoms: C_11  and  C_12
REMARK                            x       y       z     vdW  Elec       q    Type
REMARK                         _______ _______ _______ _____ _____    ______ ____
ROOT
ATOM      1  C   UNL     1      48.042   6.766  13.395  0.00  0.00    +0.000 C 
ENDROOT
BRANCH   1   2
ATOM      2  C   UNL     1      46.914   6.023  12.740  0.00  0.00    +0.000 A 
ATOM      3  C   UNL     1      46.482   4.779  13.205  0.00  0.00    +0.000 A 
ATOM      4  C   UNL     1      45.456   4.105  12.543  0.00  0.00    +0.000 A 
ATOM      5  C   UNL     1      44.872   4.691  11.422  0.00  0.00    +0.000 A 
ATOM      6  N   UNL     1      45.258   5.914  10.966  0.00  0.00    +0.000 NA
ATOM      7  C   UNL     1      46.250   6.552  11.640  0.00  0.00    +0.000 A 
BRANCH   5   8
ATOM      8  C   UNL     1      43.858   3.929  10.577  0.00  0.00    +0.000 C 
BRANCH   8   9
ATOM      9  O   UNL     1      42.703   3.698  11.401  0.00  0.00    +0.000 OA
ATOM     10  H   UNL     1      42.021   4.310  11.060  0.00  0.00    +0.000 HD
ENDBRANCH   8   9
BRANCH   8  11
ATOM     11  C   UNL     1      44.410   2.580  10.083  0.00  0.00    +0.000 C 
BRANCH  11  12
ATOM     12  C   UNL     1      45.299   2.694   8.863  0.00  0.00    +0.000 A 
ATOM     13  C   UNL     1      46.039   1.601   8.399  0.00  0.00    +0.000 A 
ATOM     14  C   UNL     1      46.872   1.744   7.291  0.00  0.00    +0.000 A 
ATOM     15  C   UNL     1      46.935   2.981   6.673  0.00  0.00    +0.000 A 
ATOM     16  N   UNL     1      46.226   4.056   7.077  0.00  0.00    +0.000 NA
ATOM     17  C   UNL     1      45.426   3.887   8.155  0.00  0.00    +0.000 A 
ENDBRANCH  11  12
ENDBRANCH   8  11
ENDBRANCH   5   8
ENDBRANCH   1   2
BRANCH   1  20
ATOM     18  O   UNL     1      50.169   6.674  15.233  0.00  0.00    +0.000 OA
ATOM     19  C   UNL     1      49.019   6.756  15.659  0.00  0.00    +0.000 C 
ATOM     20  N   UNL     1      47.929   6.754  14.829  0.00  0.00    +0.000 N 
ATOM     21  H   UNL     1      47.020   6.996  15.209  0.00  0.00    +0.000 HD
BRANCH  19  22
ATOM     22  C   UNL     1      48.733   6.810  17.098  0.00  0.00    +0.000 A 
ATOM     23  C   UNL     1      48.296   7.994  17.679  0.00  0.00    +0.000 A 
ATOM     24  S   UNL     1      48.031   7.868  19.359  0.00  0.00    +0.000 S 
ATOM     25  C   UNL     1      48.451   6.219  19.361  0.00  0.00    +0.000 A 
ATOM     26  N   UNL     1      48.413   5.484  20.506  0.00  0.00    +0.000 NA
ATOM     27  C   UNL     1      48.711   4.238  20.352  0.00  0.00    +0.000 A 
ATOM     28  N   UNL     1      49.054   3.659  19.157  0.00  0.00    +0.000 N 
ATOM     29  C   UNL     1      49.180   4.372  17.993  0.00  0.00    +0.000 A 
ATOM     30  O   UNL     1      49.619   3.854  16.973  0.00  0.00    +0.000 OA
ATOM     31  C   UNL     1      48.810   5.774  18.101  0.00  0.00    +0.000 A 
ATOM     32  H   UNL     1      49.309   2.683  19.110  0.00  0.00    +0.000 HD
ENDBRANCH  19  22
ENDBRANCH   1  20
TORSDOF 7
ENDMDL
MODEL 2
REMARK VINA RESULT:    -8.314      1.408      2.082
REMARK INTER + INTRA:         -12.263
REMARK INTER:                 -11.590
REMARK INTRA:                  -0.674
REMARK UNBOUND:                -0.790
REMARK  Name = 
REMARK  7 active torsions:
REMARK  status: ('A' for Active; 'I' for Inactive)
REMARK    1  A    between atoms: C_2  and  C_20
REMARK    2  A    between atoms: N_3  and  C_4
REMARK    3  A    between atoms: C_4  and  C_5
REMARK    4  A    between atoms: C_8  and  C_9
REMARK    5  A    between atoms: C_9  and  O_10
REMARK    6  A    between atoms: C_9  and  C_11
REMARK    7  A    between atoms: C_11  and  C_12
REMARK                            x       y       z     vdW  Elec       q    Type
REMARK                         _______ _______ _______ _____ _____    ______ ____
ROOT
ATOM      1  C   UNL     1      47.740   6.595  13.644  0.00  0.00    +0.000 C 
ENDROOT
BRANCH   1   2
ATOM      2  C   UNL     1      46.806   5.866  12.722  0.00  0.00    +0.000 A 
ATOM      3  C   UNL     1      46.455   6.379  11.472  0.00  0.00    +0.000 A 
ATOM      4  C   UNL     1      45.553   5.688  10.662  0.00  0.00    +0.000 A 
ATOM      5  C   UNL     1      45.016   4.486  11.118  0.00  0.00    +0.000 A 
ATOM      6  N   UNL     1      45.363   3.954  12.322  0.00  0.00    +0.000 NA
ATOM      7  C   UNL     1      46.255   4.643  13.081  0.00  0.00    +0.000 A 
BRANCH   5   8
ATOM      8  C   UNL     1      43.914   3.775  10.342  0.00  0.00    +0.000 C 
BRANCH   8   9
ATOM      9  O   UNL     1      42.813   3.581  11.244  0.00  0.00    +0.000 OA
ATOM     10  H   UNL     1      43.224   3.419  12.117  0.00  0.00    +0.000 HD
ENDBRANCH   8   9
BRANCH   8  11
ATOM     11  C   UNL     1      44.375   2.410   9.799  0.00  0.00    +0.000 C 
BRANCH  11  12
ATOM     12  C   UNL     1      45.337   2.510   8.634  0.00  0.00    +0.000 A 
ATOM     13  C   UNL     1      46.190   1.451   8.304  0.00  0.00    +0.000 A 
ATOM     14  C   UNL     1      47.087   1.583   7.245  0.00  0.00    +0.000 A 
ATOM     15  C   UNL     1      47.097   2.773   6.540  0.00  0.00    +0.000 A 
ATOM     16  N   UNL     1      46.280   3.813   6.813  0.00  0.00    +0.000 NA
ATOM     17  C   UNL     1      45.422   3.656   7.847  0.00  0.00    +0.000 A 
ENDBRANCH  11  12
ENDBRANCH   8  11
ENDBRANCH   5   8
ENDBRANCH   1   2
BRANCH   1  20
ATOM     18  O   UNL     1      49.872   6.664  15.477  0.00  0.00    +0.000 OA
ATOM     19  C   UNL     1      48.817   6.134  15.815  0.00  0.00    +0.000 C 
ATOM     20  N   UNL     1      47.751   6.016  14.962  0.00  0.00    +0.000 N 
ATOM     21  H   UNL     1      46.851   5.732  15.333  0.00  0.00    +0.000 HD
BRANCH  19  22
ATOM     22  C   UNL     1      48.643   5.543  17.147  0.00  0.00    +0.000 A 
ATOM     23  C   UNL     1      48.819   4.178  17.333  0.00  0.00    +0.000 A 
ATOM     24  S   UNL     1      48.561   3.673  18.942  0.00  0.00    +0.000 S 
ATOM     25  C   UNL     1      48.245   5.265  19.453  0.00  0.00    +0.000 A 
ATOM     26  N   UNL     1      47.967   5.545  20.755  0.00  0.00    +0.000 NA
ATOM     27  C   UNL     1      47.795   6.799  21.008  0.00  0.00    +0.000 A 
ATOM     28  N   UNL     1      47.866   7.801  20.074  0.00  0.00    +0.000 N 
ATOM     29  C   UNL     1      48.068   7.562  18.740  0.00  0.00    +0.000 A 
ATOM     30  O   UNL     1      47.990   8.463  17.913  0.00  0.00    +0.000 OA
ATOM     31  C   UNL     1      48.315   6.168  18.407  0.00  0.00    +0.000 A 
ATOM     32  H   UNL     1      47.688   8.761  20.332  0.00  0.00    +0.000 HD
ENDBRANCH  19  22
ENDBRANCH   1  20
TORSDOF 7
ENDMDL
MODEL 3
REMARK VINA RESULT:    -8.060      2.104      3.516
REMARK INTER + INTRA:         -11.912
REMARK INTER:                 -10.751
REMARK INTRA:                  -1.162
REMARK UNBOUND:                -0.790
REMARK  Name = 
REMARK  7 active torsions:
REMARK  status: ('A' for Active; 'I' for Inactive)
REMARK    1  A    between atoms: C_2  and  C_20
REMARK    2  A    between atoms: N_3  and  C_4
REMARK    3  A    between atoms: C_4  and  C_5
REMARK    4  A    between atoms: C_8  and  C_9
REMARK    5  A    between atoms: C_9  and  O_10
REMARK    6  A    between atoms: C_9  and  C_11
REMARK    7  A    between atoms: C_11  and  C_12
REMARK                            x       y       z     vdW  Elec       q    Type
REMARK                         _______ _______ _______ _____ _____    ______ ____
ROOT
ATOM      1  C   UNL     1      46.831   4.323  15.031  0.00  0.00    +0.000 C 
ENDROOT
BRANCH   1   2
ATOM      2  C   UNL     1      46.345   4.395  13.612  0.00  0.00    +0.000 A 
ATOM      3  C   UNL     1      46.343   5.592  12.893  0.00  0.00    +0.000 A 
ATOM      4  C   UNL     1      45.846   5.623  11.590  0.00  0.00    +0.000 A 
ATOM      5  C   UNL     1      45.359   4.448  11.023  0.00  0.00    +0.000 A 
ATOM      6  N   UNL     1      45.375   3.264  11.694  0.00  0.00    +0.000 NA
ATOM      7  C   UNL     1      45.878   3.263  12.956  0.00  0.00    +0.000 A 
BRANCH   5   8
ATOM      8  C   UNL     1      44.667   4.461   9.665  0.00  0.00    +0.000 C 
BRANCH   8   9
ATOM      9  O   UNL     1      43.374   5.060   9.850  0.00  0.00    +0.000 OA
ATOM     10  H   UNL     1      43.241   5.085  10.819  0.00  0.00    +0.000 HD
ENDBRANCH   8   9
BRANCH   8  11
ATOM     11  C   UNL     1      44.494   3.044   9.087  0.00  0.00    +0.000 C 
BRANCH  11  12
ATOM     12  C   UNL     1      45.606   2.628   8.147  0.00  0.00    +0.000 A 
ATOM     13  C   UNL     1      46.118   3.512   7.192  0.00  0.00    +0.000 A 
ATOM     14  C   UNL     1      47.120   3.092   6.320  0.00  0.00    +0.000 A 
ATOM     15  C   UNL     1      47.588   1.794   6.436  0.00  0.00    +0.000 A 
ATOM     16  N   UNL     1      47.134   0.914   7.354  0.00  0.00    +0.000 NA
ATOM     17  C   UNL     1      46.161   1.351   8.186  0.00  0.00    +0.000 A 
ENDBRANCH  11  12
ENDBRANCH   8  11
ENDBRANCH   5   8
ENDBRANCH   1   2
BRANCH   1  20
ATOM     18  O   UNL     1      49.044   4.542  16.752  0.00  0.00    +0.000 OA
ATOM     19  C   UNL     1      48.584   5.562  16.245  0.00  0.00    +0.000 C 
ATOM     20  N   UNL     1      47.477   5.543  15.437  0.00  0.00    +0.000 N 
ATOM     21  H   UNL     1      47.239   6.374  14.907  0.00  0.00    +0.000 HD
BRANCH  19  22
ATOM     22  C   UNL     1      49.161   6.885  16.514  0.00  0.00    +0.000 A 
ATOM     23  C   UNL     1      49.215   7.372  17.813  0.00  0.00    +0.000 A 
ATOM     24  S   UNL     1      49.904   8.928  17.927  0.00  0.00    +0.000 S 
ATOM     25  C   UNL     1      50.191   8.987  16.251  0.00  0.00    +0.000 A 
ATOM     26  N   UNL     1      50.794  10.064  15.677  0.00  0.00    +0.000 NA
ATOM     27  C   UNL     1      50.991   9.953  14.407  0.00  0.00    +0.000 A 
ATOM     28  N   UNL     1      50.631   8.865  13.653  0.00  0.00    +0.000 N 
ATOM     29  C   UNL     1      49.955   7.791  14.171  0.00  0.00    +0.000 A 
ATOM     30  O   UNL     1      49.528   6.899  13.448  0.00  0.00    +0.000 OA
ATOM     31  C   UNL     1      49.748   7.845  15.609  0.00  0.00    +0.000 A 
ATOM     32  H   UNL     1      50.785   8.855  12.655  0.00  0.00    +0.000 HD
ENDBRANCH  19  22
ENDBRANCH   1  20
TORSDOF 7
ENDMDL
MODEL 4
REMARK VINA RESULT:    -7.620      2.516      3.267
REMARK INTER + INTRA:         -11.305
REMARK INTER:                 -10.324
REMARK INTRA:                  -0.982
REMARK UNBOUND:                -0.790
REMARK  Name = 
REMARK  7 active torsions:
REMARK  status: ('A' for Active; 'I' for Inactive)
REMARK    1  A    between atoms: C_2  and  C_20
REMARK    2  A    between atoms: N_3  and  C_4
REMARK    3  A    between atoms: C_4  and  C_5
REMARK    4  A    between atoms: C_8  and  C_9
REMARK    5  A    between atoms: C_9  and  O_10
REMARK    6  A    between atoms: C_9  and  C_11
REMARK    7  A    between atoms: C_11  and  C_12
REMARK                            x       y       z     vdW  Elec       q    Type
REMARK                         _______ _______ _______ _____ _____    ______ ____
ROOT
ATOM      1  C   UNL     1      46.670   4.076  15.691  0.00  0.00    +0.000 C 
ENDROOT
BRANCH   1   2
ATOM      2  C   UNL     1      46.495   4.450  14.248  0.00  0.00    +0.000 A 
ATOM      3  C   UNL     1      47.076   5.599  13.708  0.00  0.00    +0.000 A 
ATOM      4  C   UNL     1      46.855   5.930  12.371  0.00  0.00    +0.000 A 
ATOM      5  C   UNL     1      46.056   5.099  11.590  0.00  0.00    +0.000 A 
ATOM      6  N   UNL     1      45.501   3.960  12.087  0.00  0.00    +0.000 NA
ATOM      7  C   UNL     1      45.746   3.657  13.388  0.00  0.00    +0.000 A 
BRANCH   5   8
ATOM      8  C   UNL     1      45.661   5.497  10.172  0.00  0.00    +0.000 C 
BRANCH   8   9
ATOM      9  O   UNL     1      44.915   6.721  10.265  0.00  0.00    +0.000 OA
ATOM     10  H   UNL     1      43.985   6.444  10.386  0.00  0.00    +0.000 HD
ENDBRANCH   8   9
BRANCH   8  11
ATOM     11  C   UNL     1      44.797   4.423   9.487  0.00  0.00    +0.000 C 
BRANCH  11  12
ATOM     12  C   UNL     1      45.595   3.422   8.677  0.00  0.00    +0.000 A 
ATOM     13  C   UNL     1      46.407   3.831   7.615  0.00  0.00    +0.000 A 
ATOM     14  C   UNL     1      47.106   2.885   6.868  0.00  0.00    +0.000 A 
ATOM     15  C   UNL     1      46.976   1.551   7.214  0.00  0.00    +0.000 A 
ATOM     16  N   UNL     1      46.217   1.115   8.242  0.00  0.00    +0.000 NA
ATOM     17  C   UNL     1      45.550   2.057   8.948  0.00  0.00    +0.000 A 
ENDBRANCH  11  12
ENDBRANCH   8  11
ENDBRANCH   5   8
ENDBRANCH   1   2
BRANCH   1  20
ATOM     18  O   UNL     1      47.717   5.020  18.124  0.00  0.00    +0.000 OA
ATOM     19  C   UNL     1      48.482   4.514  17.307  0.00  0.00    +0.000 C 
ATOM     20  N   UNL     1      48.056   4.077  16.079  0.00  0.00    +0.000 N 
ATOM     21  H   UNL     1      48.680   3.513  15.513  0.00  0.00    +0.000 HD
BRANCH  19  22
ATOM     22  C   UNL     1      49.920   4.388  17.572  0.00  0.00    +0.000 A 
ATOM     23  C   UNL     1      50.650   5.490  17.999  0.00  0.00    +0.000 A 
ATOM     24  S   UNL     1      52.305   5.156  18.239  0.00  0.00    +0.000 S 
ATOM     25  C   UNL     1      52.096   3.520  17.820  0.00  0.00    +0.000 A 
ATOM     26  N   UNL     1      53.141   2.648  17.841  0.00  0.00    +0.000 NA
ATOM     27  C   UNL     1      52.829   1.432  17.546  0.00  0.00    +0.000 A 
ATOM     28  N   UNL     1      51.566   1.006  17.221  0.00  0.00    +0.000 N 
ATOM     29  C   UNL     1      50.498   1.858  17.113  0.00  0.00    +0.000 A 
ATOM     30  O   UNL     1      49.415   1.472  16.688  0.00  0.00    +0.000 OA
ATOM     31  C   UNL     1      50.785   3.236  17.480  0.00  0.00    +0.000 A 
ATOM     32  H   UNL     1      51.394   0.043  16.968  0.00  0.00    +0.000 HD
ENDBRANCH  19  22
ENDBRANCH   1  20
TORSDOF 7
ENDMDL
MODEL 5
REMARK VINA RESULT:    -7.394      2.974      4.752
REMARK INTER + INTRA:         -10.993
REMARK INTER:                  -9.809
REMARK INTRA:                  -1.184
REMARK UNBOUND:                -0.790
REMARK  Name = 
REMARK  7 active torsions:
REMARK  status: ('A' for Active; 'I' for Inactive)
REMARK    1  A    between atoms: C_2  and  C_20
REMARK    2  A    between atoms: N_3  and  C_4
REMARK    3  A    between atoms: C_4  and  C_5
REMARK    4  A    between atoms: C_8  and  C_9
REMARK    5  A    between atoms: C_9  and  O_10
REMARK    6  A    between atoms: C_9  and  C_11
REMARK    7  A    between atoms: C_11  and  C_12
REMARK                            x       y       z     vdW  Elec       q    Type
REMARK                         _______ _______ _______ _____ _____    ______ ____
ROOT
ATOM      1  C   UNL     1      47.928   5.836  14.576  0.00  0.00    +0.000 C 
ENDROOT
BRANCH   1   2
ATOM      2  C   UNL     1      46.966   5.570  13.455  0.00  0.00    +0.000 A 
ATOM      3  C   UNL     1      46.202   4.402  13.400  0.00  0.00    +0.000 A 
ATOM      4  C   UNL     1      45.349   4.177  12.319  0.00  0.00    +0.000 A 
ATOM      5  C   UNL     1      45.270   5.131  11.308  0.00  0.00    +0.000 A 
ATOM      6  N   UNL     1      45.985   6.288  11.352  0.00  0.00    +0.000 NA
ATOM      7  C   UNL     1      46.796   6.485  12.424  0.00  0.00    +0.000 A 
BRANCH   5   8
ATOM      8  C   UNL     1      44.473   4.861  10.037  0.00  0.00    +0.000 C 
BRANCH   8   9
ATOM      9  O   UNL     1      43.156   5.403  10.236  0.00  0.00    +0.000 OA
ATOM     10  H   UNL     1      42.978   5.938   9.437  0.00  0.00    +0.000 HD
ENDBRANCH   8   9
BRANCH   8  11
ATOM     11  C   UNL     1      44.364   3.357   9.728  0.00  0.00    +0.000 C 
BRANCH  11  12
ATOM     12  C   UNL     1      45.369   2.870   8.705  0.00  0.00    +0.000 A 
ATOM     13  C   UNL     1      45.953   3.747   7.785  0.00  0.00    +0.000 A 
ATOM     14  C   UNL     1      46.851   3.265   6.836  0.00  0.00    +0.000 A 
ATOM     15  C   UNL     1      47.147   1.912   6.841  0.00  0.00    +0.000 A 
ATOM     16  N   UNL     1      46.620   1.035   7.721  0.00  0.00    +0.000 NA
ATOM     17  C   UNL     1      45.750   1.532   8.630  0.00  0.00    +0.000 A 
ENDBRANCH  11  12
ENDBRANCH   8  11
ENDBRANCH   5   8
ENDBRANCH   1   2
BRANCH   1  20
ATOM     18  O   UNL     1      50.396   6.482  15.759  0.00  0.00    +0.000 OA
ATOM     19  C   UNL     1      49.915   7.253  14.933  0.00  0.00    +0.000 C 
ATOM     20  N   UNL     1      48.694   7.033  14.351  0.00  0.00    +0.000 N 
ATOM     21  H   UNL     1      48.418   7.598  13.555  0.00  0.00    +0.000 HD
BRANCH  19  22
ATOM     22  C   UNL     1      50.597   8.495  14.548  0.00  0.00    +0.000 A 
ATOM     23  C   UNL     1      51.017   9.390  15.523  0.00  0.00    +0.000 A 
ATOM     24  S   UNL     1      51.774  10.780  14.887  0.00  0.00    +0.000 S 
ATOM     25  C   UNL     1      51.604  10.214  13.292  0.00  0.00    +0.000 A 
ATOM     26  N   UNL     1      52.074  10.932  12.236  0.00  0.00    +0.000 NA
ATOM     27  C   UNL     1      51.918  10.362  11.089  0.00  0.00    +0.000 A 
ATOM     28  N   UNL     1      51.326   9.140  10.898  0.00  0.00    +0.000 N 
ATOM     29  C   UNL     1      50.770   8.415  11.920  0.00  0.00    +0.000 A 
ATOM     30  O   UNL     1      50.128   7.394  11.701  0.00  0.00    +0.000 OA
ATOM     31  C   UNL     1      50.959   8.992  13.242  0.00  0.00    +0.000 A 
ATOM     32  H   UNL     1      51.205   8.763   9.969  0.00  0.00    +0.000 HD
ENDBRANCH  19  22
ENDBRANCH   1  20
TORSDOF 7
ENDMDL
MODEL 6
REMARK VINA RESULT:    -7.254      1.866      2.529
REMARK INTER + INTRA:         -10.800
REMARK INTER:                  -9.676
REMARK INTRA:                  -1.125
REMARK UNBOUND:                -0.790
REMARK  Name = 
REMARK  7 active torsions:
REMARK  status: ('A' for Active; 'I' for Inactive)
REMARK    1  A    between atoms: C_2  and  C_20
REMARK    2  A    between atoms: N_3  and  C_4
REMARK    3  A    between atoms: C_4  and  C_5
REMARK    4  A    between atoms: C_8  and  C_9
REMARK    5  A    between atoms: C_9  and  O_10
REMARK    6  A    between atoms: C_9  and  C_11
REMARK    7  A    between atoms: C_11  and  C_12
REMARK                            x       y       z     vdW  Elec       q    Type
REMARK                         _______ _______ _______ _____ _____    ______ ____
ROOT
ATOM      1  C   UNL     1      48.240   8.535  14.441  0.00  0.00    +0.000 C 
ENDROOT
BRANCH   1   2
ATOM      2  C   UNL     1      47.245   8.074  13.417  0.00  0.00    +0.000 A 
ATOM      3  C   UNL     1      46.164   8.868  13.029  0.00  0.00    +0.000 A 
ATOM      4  C   UNL     1      45.240   8.384  12.101  0.00  0.00    +0.000 A 
ATOM      5  C   UNL     1      45.416   7.108  11.571  0.00  0.00    +0.000 A 
ATOM      6  N   UNL     1      46.476   6.326  11.915  0.00  0.00    +0.000 NA
ATOM      7  C   UNL     1      47.366   6.830  12.809  0.00  0.00    +0.000 A 
BRANCH   5   8
ATOM      8  C   UNL     1      44.356   6.478  10.676  0.00  0.00    +0.000 C 
BRANCH   8   9
ATOM      9  O   UNL     1      43.108   7.125  10.971  0.00  0.00    +0.000 OA
ATOM     10  H   UNL     1      42.666   6.543  11.622  0.00  0.00    +0.000 HD
ENDBRANCH   8   9
BRANCH   8  11
ATOM     11  C   UNL     1      44.215   4.964  10.920  0.00  0.00    +0.000 C 
BRANCH  11  12
ATOM     12  C   UNL     1      44.839   4.110   9.836  0.00  0.00    +0.000 A 
ATOM     13  C   UNL     1      45.544   4.686   8.774  0.00  0.00    +0.000 A 
ATOM     14  C   UNL     1      46.081   3.877   7.775  0.00  0.00    +0.000 A 
ATOM     15  C   UNL     1      45.903   2.508   7.874  0.00  0.00    +0.000 A 
ATOM     16  N   UNL     1      45.246   1.910   8.890  0.00  0.00    +0.000 NA
ATOM     17  C   UNL     1      44.735   2.721   9.844  0.00  0.00    +0.000 A 
ENDBRANCH  11  12
ENDBRANCH   8  11
ENDBRANCH   5   8
ENDBRANCH   1   2
BRANCH   1  20
ATOM     18  O   UNL     1      50.575   7.066  14.986  0.00  0.00    +0.000 OA
ATOM     19  C   UNL     1      49.602   6.926  15.722  0.00  0.00    +0.000 C 
ATOM     20  N   UNL     1      48.413   7.568  15.493  0.00  0.00    +0.000 N 
ATOM     21  H   UNL     1      47.701   7.559  16.215  0.00  0.00    +0.000 HD
BRANCH  19  22
ATOM     22  C   UNL     1      49.631   6.017  16.874  0.00  0.00    +0.000 A 
ATOM     23  C   UNL     1      50.484   6.270  17.941  0.00  0.00    +0.000 A 
ATOM     24  S   UNL     1      50.390   5.099  19.178  0.00  0.00    +0.000 S 
ATOM     25  C   UNL     1      49.179   4.237  18.350  0.00  0.00    +0.000 A 
ATOM     26  N   UNL     1      48.627   3.113  18.881  0.00  0.00    +0.000 NA
ATOM     27  C   UNL     1      47.688   2.589  18.168  0.00  0.00    +0.000 A 
ATOM     28  N   UNL     1      47.256   3.082  16.962  0.00  0.00    +0.000 N 
ATOM     29  C   UNL     1      47.831   4.165  16.352  0.00  0.00    +0.000 A 
ATOM     30  O   UNL     1      47.516   4.498  15.215  0.00  0.00    +0.000 OA
ATOM     31  C   UNL     1      48.865   4.822  17.136  0.00  0.00    +0.000 A 
ATOM     32  H   UNL     1      46.537   2.604  16.437  0.00  0.00    +0.000 HD
ENDBRANCH  19  22
ENDBRANCH   1  20
TORSDOF 7
ENDMDL
MODEL 7
REMARK VINA RESULT:    -7.234      2.090      2.498
REMARK INTER + INTRA:         -10.773
REMARK INTER:                  -9.918
REMARK INTRA:                  -0.854
REMARK UNBOUND:                -0.790
REMARK  Name = 
REMARK  7 active torsions:
REMARK  status: ('A' for Active; 'I' for Inactive)
REMARK    1  A    between atoms: C_2  and  C_20
REMARK    2  A    between atoms: N_3  and  C_4
REMARK    3  A    between atoms: C_4  and  C_5
REMARK    4  A    between atoms: C_8  and  C_9
REMARK    5  A    between atoms: C_9  and  O_10
REMARK    6  A    between atoms: C_9  and  C_11
REMARK    7  A    between atoms: C_11  and  C_12
REMARK                            x       y       z     vdW  Elec       q    Type
REMARK                         _______ _______ _______ _____ _____    ______ ____
ROOT
ATOM      1  C   UNL     1      47.987   7.838  13.308  0.00  0.00    +0.000 C 
ENDROOT
BRANCH   1   2
ATOM      2  C   UNL     1      46.951   6.757  13.190  0.00  0.00    +0.000 A 
ATOM      3  C   UNL     1      47.250   5.418  13.447  0.00  0.00    +0.000 A 
ATOM      4  C   UNL     1      46.268   4.440  13.288  0.00  0.00    +0.000 A 
ATOM      5  C   UNL     1      44.993   4.822  12.874  0.00  0.00    +0.000 A 
ATOM      6  N   UNL     1      44.671   6.124  12.642  0.00  0.00    +0.000 NA
ATOM      7  C   UNL     1      45.645   7.054  12.821  0.00  0.00    +0.000 A 
BRANCH   5   8
ATOM      8  C   UNL     1      43.934   3.779  12.538  0.00  0.00    +0.000 C 
BRANCH   8   9
ATOM      9  O   UNL     1      44.574   2.493  12.571  0.00  0.00    +0.000 OA
ATOM     10  H   UNL     1      45.526   2.680  12.450  0.00  0.00    +0.000 HD
ENDBRANCH   8   9
BRANCH   8  11
ATOM     11  C   UNL     1      43.317   4.006  11.146  0.00  0.00    +0.000 C 
BRANCH  11  12
ATOM     12  C   UNL     1      44.267   3.719  10.003  0.00  0.00    +0.000 A 
ATOM     13  C   UNL     1      44.520   2.410   9.580  0.00  0.00    +0.000 A 
ATOM     14  C   UNL     1      45.423   2.174   8.545  0.00  0.00    +0.000 A 
ATOM     15  C   UNL     1      46.043   3.262   7.956  0.00  0.00    +0.000 A 
ATOM     16  N   UNL     1      45.815   4.541   8.320  0.00  0.00    +0.000 NA
ATOM     17  C   UNL     1      44.935   4.739   9.328  0.00  0.00    +0.000 A 
ENDBRANCH  11  12
ENDBRANCH   8  11
ENDBRANCH   5   8
ENDBRANCH   1   2
BRANCH   1  20
ATOM     18  O   UNL     1      48.698   8.470  15.955  0.00  0.00    +0.000 OA
ATOM     19  C   UNL     1      49.410   7.698  15.318  0.00  0.00    +0.000 C 
ATOM     20  N   UNL     1      49.158   7.381  14.008  0.00  0.00    +0.000 N 
ATOM     21  H   UNL     1      49.665   6.614  13.580  0.00  0.00    +0.000 HD
BRANCH  19  22
ATOM     22  C   UNL     1      50.615   7.099  15.905  0.00  0.00    +0.000 A 
ATOM     23  C   UNL     1      51.843   7.734  15.778  0.00  0.00    +0.000 A 
ATOM     24  S   UNL     1      53.127   6.882  16.509  0.00  0.00    +0.000 S 
ATOM     25  C   UNL     1      52.081   5.657  17.055  0.00  0.00    +0.000 A 
ATOM     26  N   UNL     1      52.546   4.608  17.786  0.00  0.00    +0.000 NA
ATOM     27  C   UNL     1      51.635   3.779  18.172  0.00  0.00    +0.000 A 
ATOM     28  N   UNL     1      50.299   3.898  17.886  0.00  0.00    +0.000 N 
ATOM     29  C   UNL     1      49.794   4.894  17.091  0.00  0.00    +0.000 A 
ATOM     30  O   UNL     1      48.619   4.896  16.742  0.00  0.00    +0.000 OA
ATOM     31  C   UNL     1      50.772   5.882  16.667  0.00  0.00    +0.000 A 
ATOM     32  H   UNL     1      49.641   3.196  18.192  0.00  0.00    +0.000 HD
ENDBRANCH  19  22
ENDBRANCH   1  20
TORSDOF 7
ENDMDL
MODEL 8
REMARK VINA RESULT:    -7.121      3.718      8.967
REMARK INTER + INTRA:         -10.617
REMARK INTER:                  -9.662
REMARK INTRA:                  -0.955
REMARK UNBOUND:                -0.790
REMARK  Name = 
REMARK  7 active torsions:
REMARK  status: ('A' for Active; 'I' for Inactive)
REMARK    1  A    between atoms: C_2  and  C_20
REMARK    2  A    between atoms: N_3  and  C_4
REMARK    3  A    between atoms: C_4  and  C_5
REMARK    4  A    between atoms: C_8  and  C_9
REMARK    5  A    between atoms: C_9  and  O_10
REMARK    6  A    between atoms: C_9  and  C_11
REMARK    7  A    between atoms: C_11  and  C_12
REMARK                            x       y       z     vdW  Elec       q    Type
REMARK                         _______ _______ _______ _____ _____    ______ ____
ROOT
ATOM      1  C   UNL     1      47.139   3.436  16.813  0.00  0.00    +0.000 C 
ENDROOT
BRANCH   1   2
ATOM      2  C   UNL     1      48.615   3.451  17.091  0.00  0.00    +0.000 A 
ATOM      3  C   UNL     1      49.381   2.285  17.068  0.00  0.00    +0.000 A 
ATOM      4  C   UNL     1      50.742   2.338  17.371  0.00  0.00    +0.000 A 
ATOM      5  C   UNL     1      51.318   3.566  17.689  0.00  0.00    +0.000 A 
ATOM      6  N   UNL     1      50.597   4.720  17.692  0.00  0.00    +0.000 NA
ATOM      7  C   UNL     1      49.278   4.638  17.379  0.00  0.00    +0.000 A 
BRANCH   5   8
ATOM      8  C   UNL     1      52.760   3.653  18.175  0.00  0.00    +0.000 C 
BRANCH   8   9
ATOM      9  O   UNL     1      52.793   3.130  19.513  0.00  0.00    +0.000 OA
ATOM     10  H   UNL     1      53.647   3.430  19.883  0.00  0.00    +0.000 HD
ENDBRANCH   8   9
BRANCH   8  11
ATOM     11  C   UNL     1      53.285   5.100  18.180  0.00  0.00    +0.000 C 
BRANCH  11  12
ATOM     12  C   UNL     1      53.989   5.498  16.900  0.00  0.00    +0.000 A 
ATOM     13  C   UNL     1      55.130   4.820  16.457  0.00  0.00    +0.000 A 
ATOM     14  C   UNL     1      55.775   5.229  15.292  0.00  0.00    +0.000 A 
ATOM     15  C   UNL     1      55.252   6.305  14.596  0.00  0.00    +0.000 A 
ATOM     16  N   UNL     1      54.145   6.977  14.978  0.00  0.00    +0.000 NA
ATOM     17  C   UNL     1      53.541   6.558  16.114  0.00  0.00    +0.000 A 
ENDBRANCH  11  12
ENDBRANCH   8  11
ENDBRANCH   5   8
ENDBRANCH   1   2
BRANCH   1  20
ATOM     18  O   UNL     1      47.166   3.039  14.029  0.00  0.00    +0.000 OA
ATOM     19  C   UNL     1      46.769   4.114  14.471  0.00  0.00    +0.000 C 
ATOM     20  N   UNL     1      46.774   4.402  15.811  0.00  0.00    +0.000 N 
ATOM     21  H   UNL     1      46.282   5.225  16.140  0.00  0.00    +0.000 HD
BRANCH  19  22
ATOM     22  C   UNL     1      46.309   5.189  13.583  0.00  0.00    +0.000 A 
ATOM     23  C   UNL     1      47.155   6.244  13.267  0.00  0.00    +0.000 A 
ATOM     24  S   UNL     1      46.441   7.403  12.239  0.00  0.00    +0.000 S 
ATOM     25  C   UNL     1      44.993   6.515  12.147  0.00  0.00    +0.000 A 
ATOM     26  N   UNL     1      43.948   6.948  11.391  0.00  0.00    +0.000 NA
ATOM     27  C   UNL     1      42.932   6.153  11.377  0.00  0.00    +0.000 A 
ATOM     28  N   UNL     1      42.860   4.964  12.058  0.00  0.00    +0.000 N 
ATOM     29  C   UNL     1      43.855   4.523  12.891  0.00  0.00    +0.000 A 
ATOM     30  O   UNL     1      43.705   3.528  13.591  0.00  0.00    +0.000 OA
ATOM     31  C   UNL     1      45.044   5.360  12.908  0.00  0.00    +0.000 A 
ATOM     32  H   UNL     1      42.021   4.403  12.031  0.00  0.00    +0.000 HD
ENDBRANCH  19  22
ENDBRANCH   1  20
TORSDOF 7
ENDMDL
MODEL 9
REMARK VINA RESULT:    -7.048      3.973      9.566
REMARK INTER + INTRA:         -10.516
REMARK INTER:                  -9.568
REMARK INTRA:                  -0.948
REMARK UNBOUND:                -0.790
REMARK  Name = 
REMARK  7 active torsions:
REMARK  status: ('A' for Active; 'I' for Inactive)
REMARK    1  A    between atoms: C_2  and  C_20
REMARK    2  A    between atoms: N_3  and  C_4
REMARK    3  A    between atoms: C_4  and  C_5
REMARK    4  A    between atoms: C_8  and  C_9
REMARK    5  A    between atoms: C_9  and  O_10
REMARK    6  A    between atoms: C_9  and  C_11
REMARK    7  A    between atoms: C_11  and  C_12
REMARK                            x       y       z     vdW  Elec       q    Type
REMARK                         _______ _______ _______ _____ _____    ______ ____
ROOT
ATOM      1  C   UNL     1      47.206   3.461  16.813  0.00  0.00    +0.000 C 
ENDROOT
BRANCH   1   2
ATOM      2  C   UNL     1      48.664   3.556  17.159  0.00  0.00    +0.000 A 
ATOM      3  C   UNL     1      49.517   2.454  17.067  0.00  0.00    +0.000 A 
ATOM      4  C   UNL     1      50.857   2.576  17.435  0.00  0.00    +0.000 A 
ATOM      5  C   UNL     1      51.326   3.807  17.889  0.00  0.00    +0.000 A 
ATOM      6  N   UNL     1      50.520   4.902  17.962  0.00  0.00    +0.000 NA
ATOM      7  C   UNL     1      49.224   4.754  17.583  0.00  0.00    +0.000 A 
BRANCH   5   8
ATOM      8  C   UNL     1      52.737   3.952  18.446  0.00  0.00    +0.000 C 
BRANCH   8   9
ATOM      9  O   UNL     1      53.027   5.357  18.515  0.00  0.00    +0.000 OA
ATOM     10  H   UNL     1      52.385   5.718  19.159  0.00  0.00    +0.000 HD
ENDBRANCH   8   9
BRANCH   8  11
ATOM     11  C   UNL     1      53.786   3.258  17.558  0.00  0.00    +0.000 C 
BRANCH  11  12
ATOM     12  C   UNL     1      54.281   1.939  18.114  0.00  0.00    +0.000 A 
ATOM     13  C   UNL     1      54.449   0.821  17.290  0.00  0.00    +0.000 A 
ATOM     14  C   UNL     1      54.877  -0.387  17.835  0.00  0.00    +0.000 A 
ATOM     15  C   UNL     1      55.133  -0.439  19.194  0.00  0.00    +0.000 A 
ATOM     16  N   UNL     1      55.001   0.619  20.022  0.00  0.00    +0.000 NA
ATOM     17  C   UNL     1      54.583   1.779  19.464  0.00  0.00    +0.000 A 
ENDBRANCH  11  12
ENDBRANCH   8  11
ENDBRANCH   5   8
ENDBRANCH   1   2
BRANCH   1  20
ATOM     18  O   UNL     1      47.224   3.095  14.025  0.00  0.00    +0.000 OA
ATOM     19  C   UNL     1      46.819   4.161  14.481  0.00  0.00    +0.000 C 
ATOM     20  N   UNL     1      46.827   4.434  15.824  0.00  0.00    +0.000 N 
ATOM     21  H   UNL     1      46.328   5.248  16.164  0.00  0.00    +0.000 HD
BRANCH  19  22
ATOM     22  C   UNL     1      46.344   5.241  13.607  0.00  0.00    +0.000 A 
ATOM     23  C   UNL     1      47.155   6.338  13.349  0.00  0.00    +0.000 A 
ATOM     24  S   UNL     1      46.429   7.495  12.328  0.00  0.00    +0.000 S 
ATOM     25  C   UNL     1      45.022   6.552  12.163  0.00  0.00    +0.000 A 
ATOM     26  N   UNL     1      43.986   6.964  11.384  0.00  0.00    +0.000 NA
ATOM     27  C   UNL     1      43.004   6.129  11.313  0.00  0.00    +0.000 A 
ATOM     28  N   UNL     1      42.959   4.920  11.960  0.00  0.00    +0.000 N 
ATOM     29  C   UNL     1      43.944   4.496  12.814  0.00  0.00    +0.000 A 
ATOM     30  O   UNL     1      43.812   3.477  13.482  0.00  0.00    +0.000 OA
ATOM     31  C   UNL     1      45.096   5.380  12.894  0.00  0.00    +0.000 A 
ATOM     32  H   UNL     1      42.146   4.326  11.889  0.00  0.00    +0.000 HD
ENDBRANCH  19  22
ENDBRANCH   1  20
TORSDOF 7
ENDMDL
