MODEL 1
REMARK VINA RESULT:    -7.129      0.000      0.000
REMARK INTER + INTRA:         -11.033
REMARK INTER:                  -9.629
REMARK INTRA:                  -1.404
REMARK UNBOUND:                -1.404
REMARK  Name = 
REMARK  7 active torsions:
REMARK  status: ('A' for Active; 'I' for Inactive)
REMARK    1  A    between atoms: C_1  and  C_2
REMARK    2  A    between atoms: C_2  and  N_3
REMARK    3  A    between atoms: C_2  and  C_16
REMARK    4  A    between atoms: C_4  and  C_6
REMARK    5  A    between atoms: C_19  and  O_20
REMARK    6  A    between atoms: O_20  and  C_21
REMARK    7  A    between atoms: C_25  and  C_26
REMARK                            x       y       z     vdW  Elec       q    Type
REMARK                         _______ _______ _______ _____ _____    ______ ____
ROOT
ATOM      1  C   UNL     1      49.113   9.055  13.381  0.00  0.00    +0.000 C 
ATOM      2  C   UNL     1      48.178   8.229  14.263  0.00  0.00    +0.000 C 
ENDROOT
BRANCH   2   3
ATOM      3  C   UNL     1      47.071   7.532  13.491  0.00  0.00    +0.000 A 
ATOM      4  C   UNL     1      47.139   6.146  13.273  0.00  0.00    +0.000 A 
ATOM      5  C   UNL     1      46.223   5.510  12.429  0.00  0.00    +0.000 A 
ATOM      6  C   UNL     1      45.202   6.248  11.826  0.00  0.00    +0.000 A 
ATOM      7  C   UNL     1      45.108   7.616  12.063  0.00  0.00    +0.000 A 
ATOM      8  C   UNL     1      46.032   8.253  12.886  0.00  0.00    +0.000 A 
BRANCH   6   9
ATOM      9  O   UNL     1      44.296   5.765  10.915  0.00  0.00    +0.000 OA
BRANCH   9  10
ATOM     10  C   UNL     1      44.520   4.577  10.269  0.00  0.00    +0.000 A 
ATOM     11  C   UNL     1      44.016   3.346  10.686  0.00  0.00    +0.000 A 
ATOM     12  C   UNL     1      44.308   2.188   9.966  0.00  0.00    +0.000 A 
ATOM     13  C   UNL     1      45.046   2.273   8.788  0.00  0.00    +0.000 A 
ATOM     14  C   UNL     1      45.494   3.517   8.331  0.00  0.00    +0.000 A 
ATOM     15  C   UNL     1      45.237   4.670   9.075  0.00  0.00    +0.000 A 
BRANCH  14  16
ATOM     16  C   UNL     1      46.202   3.611   7.095  0.00  0.00    +0.000 C 
ATOM     17  N   UNL     1      46.775   3.685   6.090  0.00  0.00    +0.000 NA
ENDBRANCH  14  16
ENDBRANCH   9  10
ENDBRANCH   6   9
ENDBRANCH   2   3
BRANCH   2  18
ATOM     18  N   UNL     1      48.941   7.220  14.986  0.00  0.00    +0.000 N 
ATOM     19  C   UNL     1      49.119   7.289  16.345  0.00  0.00    +0.000 C 
ATOM     20  O   UNL     1      48.628   8.178  17.033  0.00  0.00    +0.000 OA
ATOM     21  H   UNL     1      49.484   6.565  14.445  0.00  0.00    +0.000 HD
BRANCH  19  22
ATOM     22  C   UNL     1      49.885   6.189  16.934  0.00  0.00    +0.000 A 
ATOM     23  C   UNL     1      51.165   6.316  17.454  0.00  0.00    +0.000 A 
ATOM     24  S   UNL     1      51.873   4.812  17.864  0.00  0.00    +0.000 S 
ATOM     25  C   UNL     1      50.490   3.957  17.358  0.00  0.00    +0.000 A 
ATOM     26  N   UNL     1      50.452   2.596  17.359  0.00  0.00    +0.000 NA
ATOM     27  C   UNL     1      49.346   2.101  16.917  0.00  0.00    +0.000 A 
ATOM     28  N   UNL     1      48.257   2.836  16.512  0.00  0.00    +0.000 N 
ATOM     29  C   UNL     1      48.205   4.207  16.620  0.00  0.00    +0.000 A 
ATOM     30  O   UNL     1      47.144   4.810  16.513  0.00  0.00    +0.000 OA
ATOM     31  C   UNL     1      49.477   4.812  16.969  0.00  0.00    +0.000 A 
ATOM     32  H   UNL     1      47.389   2.385  16.269  0.00  0.00    +0.000 HD
ENDBRANCH  19  22
ENDBRANCH   2  18
TORSDOF 6
ENDMDL
MODEL 2
REMARK VINA RESULT:    -7.068      2.679      4.303
REMARK INTER + INTRA:         -10.951
REMARK INTER:                  -9.741
REMARK INTRA:                  -1.210
REMARK UNBOUND:                -1.404
REMARK  Name = 
REMARK  7 active torsions:
REMARK  status: ('A' for Active; 'I' for Inactive)
REMARK    1  A    between atoms: C_1  and  C_2
REMARK    2  A    between atoms: C_2  and  N_3
REMARK    3  A    between atoms: C_2  and  C_16
REMARK    4  A    between atoms: C_4  and  C_6
REMARK    5  A    between atoms: C_19  and  O_20
REMARK    6  A    between atoms: O_20  and  C_21
REMARK    7  A    between atoms: C_25  and  C_26
REMARK                            x       y       z     vdW  Elec       q    Type
REMARK                         _______ _______ _______ _____ _____    ______ ____
ROOT
ATOM      1  C   UNL     1      47.257   4.214  16.455  0.00  0.00    +0.000 C 
ATOM      2  C   UNL     1      47.693   4.901  15.162  0.00  0.00    +0.000 C 
ENDROOT
BRANCH   2   3
ATOM      3  C   UNL     1      46.742   4.670  14.000  0.00  0.00    +0.000 A 
ATOM      4  C   UNL     1      46.380   3.361  13.645  0.00  0.00    +0.000 A 
ATOM      5  C   UNL     1      45.640   3.115  12.484  0.00  0.00    +0.000 A 
ATOM      6  C   UNL     1      45.219   4.181  11.687  0.00  0.00    +0.000 A 
ATOM      7  C   UNL     1      45.546   5.483  12.049  0.00  0.00    +0.000 A 
ATOM      8  C   UNL     1      46.299   5.729  13.193  0.00  0.00    +0.000 A 
BRANCH   6   9
ATOM      9  O   UNL     1      44.567   4.071  10.484  0.00  0.00    +0.000 OA
BRANCH   9  10
ATOM     10  C   UNL     1      45.255   3.760   9.340  0.00  0.00    +0.000 A 
ATOM     11  C   UNL     1      45.766   4.700   8.446  0.00  0.00    +0.000 A 
ATOM     12  C   UNL     1      46.444   4.284   7.302  0.00  0.00    +0.000 A 
ATOM     13  C   UNL     1      46.674   2.927   7.088  0.00  0.00    +0.000 A 
ATOM     14  C   UNL     1      46.223   1.986   8.020  0.00  0.00    +0.000 A 
ATOM     15  C   UNL     1      45.506   2.401   9.144  0.00  0.00    +0.000 A 
BRANCH  14  16
ATOM     16  C   UNL     1      46.507   0.600   7.830  0.00  0.00    +0.000 C 
ATOM     17  N   UNL     1      46.734  -0.527   7.677  0.00  0.00    +0.000 NA
ENDBRANCH  14  16
ENDBRANCH   9  10
ENDBRANCH   6   9
ENDBRANCH   2   3
BRANCH   2  18
ATOM     18  N   UNL     1      47.815   6.337  15.379  0.00  0.00    +0.000 N 
ATOM     19  C   UNL     1      49.017   6.918  15.695  0.00  0.00    +0.000 C 
ATOM     20  O   UNL     1      50.059   6.277  15.785  0.00  0.00    +0.000 OA
ATOM     21  H   UNL     1      46.964   6.872  15.467  0.00  0.00    +0.000 HD
BRANCH  19  22
ATOM     22  C   UNL     1      48.987   8.373  15.856  0.00  0.00    +0.000 A 
ATOM     23  C   UNL     1      49.356   9.277  14.871  0.00  0.00    +0.000 A 
ATOM     24  S   UNL     1      49.422  10.892  15.437  0.00  0.00    +0.000 S 
ATOM     25  C   UNL     1      48.961  10.423  17.008  0.00  0.00    +0.000 A 
ATOM     26  N   UNL     1      48.902  11.317  18.032  0.00  0.00    +0.000 NA
ATOM     27  C   UNL     1      48.568  10.798  19.164  0.00  0.00    +0.000 A 
ATOM     28  N   UNL     1      48.245   9.477  19.364  0.00  0.00    +0.000 N 
ATOM     29  C   UNL     1      48.164   8.569  18.333  0.00  0.00    +0.000 A 
ATOM     30  O   UNL     1      47.619   7.483  18.489  0.00  0.00    +0.000 OA
ATOM     31  C   UNL     1      48.676   9.072  17.072  0.00  0.00    +0.000 A 
ATOM     32  H   UNL     1      47.900   9.157  20.255  0.00  0.00    +0.000 HD
ENDBRANCH  19  22
ENDBRANCH   2  18
TORSDOF 6
ENDMDL
MODEL 3
REMARK VINA RESULT:    -6.839      2.433      4.126
REMARK INTER + INTRA:         -10.642
REMARK INTER:                 -10.459
REMARK INTRA:                  -0.183
REMARK UNBOUND:                -1.404
REMARK  Name = 
REMARK  7 active torsions:
REMARK  status: ('A' for Active; 'I' for Inactive)
REMARK    1  A    between atoms: C_1  and  C_2
REMARK    2  A    between atoms: C_2  and  N_3
REMARK    3  A    between atoms: C_2  and  C_16
REMARK    4  A    between atoms: C_4  and  C_6
REMARK    5  A    between atoms: C_19  and  O_20
REMARK    6  A    between atoms: O_20  and  C_21
REMARK    7  A    between atoms: C_25  and  C_26
REMARK                            x       y       z     vdW  Elec       q    Type
REMARK                         _______ _______ _______ _____ _____    ______ ____
ROOT
ATOM      1  C   UNL     1      43.030   4.355  13.628  0.00  0.00    +0.000 C 
ATOM      2  C   UNL     1      44.442   4.004  13.163  0.00  0.00    +0.000 C 
ENDROOT
BRANCH   2   3
ATOM      3  C   UNL     1      44.682   4.273  11.688  0.00  0.00    +0.000 A 
ATOM      4  C   UNL     1      44.214   3.361  10.728  0.00  0.00    +0.000 A 
ATOM      5  C   UNL     1      44.563   3.502   9.381  0.00  0.00    +0.000 A 
ATOM      6  C   UNL     1      45.349   4.582   8.973  0.00  0.00    +0.000 A 
ATOM      7  C   UNL     1      45.789   5.508   9.913  0.00  0.00    +0.000 A 
ATOM      8  C   UNL     1      45.460   5.358  11.258  0.00  0.00    +0.000 A 
BRANCH   6   9
ATOM      9  O   UNL     1      45.831   4.787   7.704  0.00  0.00    +0.000 OA
BRANCH   9  10
ATOM     10  C   UNL     1      46.431   3.769   7.010  0.00  0.00    +0.000 A 
ATOM     11  C   UNL     1      47.208   3.945   5.866  0.00  0.00    +0.000 A 
ATOM     12  C   UNL     1      47.770   2.843   5.223  0.00  0.00    +0.000 A 
ATOM     13  C   UNL     1      47.613   1.571   5.766  0.00  0.00    +0.000 A 
ATOM     14  C   UNL     1      46.892   1.400   6.953  0.00  0.00    +0.000 A 
ATOM     15  C   UNL     1      46.294   2.499   7.573  0.00  0.00    +0.000 A 
BRANCH  14  16
ATOM     16  C   UNL     1      46.778   0.104   7.540  0.00  0.00    +0.000 C 
ATOM     17  N   UNL     1      46.685  -0.950   8.013  0.00  0.00    +0.000 NA
ENDBRANCH  14  16
ENDBRANCH   9  10
ENDBRANCH   6   9
ENDBRANCH   2   3
BRANCH   2  18
ATOM     18  N   UNL     1      45.421   4.759  13.935  0.00  0.00    +0.000 N 
ATOM     19  C   UNL     1      46.663   4.249  14.220  0.00  0.00    +0.000 C 
ATOM     20  O   UNL     1      47.033   3.149  13.822  0.00  0.00    +0.000 OA
ATOM     21  H   UNL     1      45.104   5.593  14.406  0.00  0.00    +0.000 HD
BRANCH  19  22
ATOM     22  C   UNL     1      47.546   5.135  14.979  0.00  0.00    +0.000 A 
ATOM     23  C   UNL     1      48.147   6.273  14.460  0.00  0.00    +0.000 A 
ATOM     24  S   UNL     1      49.292   6.970  15.527  0.00  0.00    +0.000 S 
ATOM     25  C   UNL     1      49.012   5.771  16.704  0.00  0.00    +0.000 A 
ATOM     26  N   UNL     1      49.733   5.721  17.857  0.00  0.00    +0.000 NA
ATOM     27  C   UNL     1      49.422   4.735  18.629  0.00  0.00    +0.000 A 
ATOM     28  N   UNL     1      48.430   3.818  18.378  0.00  0.00    +0.000 N 
ATOM     29  C   UNL     1      47.591   3.910  17.290  0.00  0.00    +0.000 A 
ATOM     30  O   UNL     1      46.558   3.254  17.232  0.00  0.00    +0.000 OA
ATOM     31  C   UNL     1      48.000   4.911  16.324  0.00  0.00    +0.000 A 
ATOM     32  H   UNL     1      48.174   3.130  19.069  0.00  0.00    +0.000 HD
ENDBRANCH  19  22
ENDBRANCH   2  18
TORSDOF 6
ENDMDL
MODEL 4
REMARK VINA RESULT:    -6.806      1.554      2.129
REMARK INTER + INTRA:         -10.597
REMARK INTER:                  -8.953
REMARK INTRA:                  -1.644
REMARK UNBOUND:                -1.404
REMARK  Name = 
REMARK  7 active torsions:
REMARK  status: ('A' for Active; 'I' for Inactive)
REMARK    1  A    between atoms: C_1  and  C_2
REMARK    2  A    between atoms: C_2  and  N_3
REMARK    3  A    between atoms: C_2  and  C_16
REMARK    4  A    between atoms: C_4  and  C_6
REMARK    5  A    between atoms: C_19  and  O_20
REMARK    6  A    between atoms: O_20  and  C_21
REMARK    7  A    between atoms: C_25  and  C_26
REMARK                            x       y       z     vdW  Elec       q    Type
REMARK                         _______ _______ _______ _____ _____    ______ ____
ROOT
ATOM      1  C   UNL     1      50.788   8.632  13.697  0.00  0.00    +0.000 C 
ATOM      2  C   UNL     1      49.442   8.533  14.414  0.00  0.00    +0.000 C 
ENDROOT
BRANCH   2   3
ATOM      3  C   UNL     1      48.281   8.223  13.486  0.00  0.00    +0.000 A 
ATOM      4  C   UNL     1      47.055   8.887  13.658  0.00  0.00    +0.000 A 
ATOM      5  C   UNL     1      45.927   8.503  12.926  0.00  0.00    +0.000 A 
ATOM      6  C   UNL     1      46.023   7.477  11.983  0.00  0.00    +0.000 A 
ATOM      7  C   UNL     1      47.242   6.837  11.784  0.00  0.00    +0.000 A 
ATOM      8  C   UNL     1      48.360   7.204  12.526  0.00  0.00    +0.000 A 
BRANCH   6   9
ATOM      9  O   UNL     1      44.978   6.949  11.265  0.00  0.00    +0.000 OA
BRANCH   9  10
ATOM     10  C   UNL     1      44.512   5.689  11.533  0.00  0.00    +0.000 A 
ATOM     11  C   UNL     1      43.763   5.348  12.659  0.00  0.00    +0.000 A 
ATOM     12  C   UNL     1      43.341   4.033  12.849  0.00  0.00    +0.000 A 
ATOM     13  C   UNL     1      43.609   3.073  11.877  0.00  0.00    +0.000 A 
ATOM     14  C   UNL     1      44.300   3.429  10.713  0.00  0.00    +0.000 A 
ATOM     15  C   UNL     1      44.758   4.736  10.543  0.00  0.00    +0.000 A 
BRANCH  14  16
ATOM     16  C   UNL     1      44.525   2.458   9.691  0.00  0.00    +0.000 C 
ATOM     17  N   UNL     1      44.709   1.673   8.859  0.00  0.00    +0.000 NA
ENDBRANCH  14  16
ENDBRANCH   9  10
ENDBRANCH   6   9
ENDBRANCH   2   3
BRANCH   2  18
ATOM     18  N   UNL     1      49.501   7.500  15.440  0.00  0.00    +0.000 N 
ATOM     19  C   UNL     1      48.924   7.675  16.672  0.00  0.00    +0.000 C 
ATOM     20  O   UNL     1      48.304   8.689  16.974  0.00  0.00    +0.000 OA
ATOM     21  H   UNL     1      50.127   6.723  15.288  0.00  0.00    +0.000 HD
BRANCH  19  22
ATOM     22  C   UNL     1      49.042   6.538  17.587  0.00  0.00    +0.000 A 
ATOM     23  C   UNL     1      49.652   6.595  18.832  0.00  0.00    +0.000 A 
ATOM     24  S   UNL     1      49.825   5.056  19.563  0.00  0.00    +0.000 S 
ATOM     25  C   UNL     1      49.091   4.279  18.237  0.00  0.00    +0.000 A 
ATOM     26  N   UNL     1      48.990   2.923  18.170  0.00  0.00    +0.000 NA
ATOM     27  C   UNL     1      48.438   2.490  17.089  0.00  0.00    +0.000 A 
ATOM     28  N   UNL     1      47.937   3.283  16.084  0.00  0.00    +0.000 N 
ATOM     29  C   UNL     1      47.900   4.657  16.172  0.00  0.00    +0.000 A 
ATOM     30  O   UNL     1      47.214   5.320  15.403  0.00  0.00    +0.000 OA
ATOM     31  C   UNL     1      48.643   5.188  17.298  0.00  0.00    +0.000 A 
ATOM     32  H   UNL     1      47.432   2.882  15.310  0.00  0.00    +0.000 HD
ENDBRANCH  19  22
ENDBRANCH   2  18
TORSDOF 6
ENDMDL
MODEL 5
REMARK VINA RESULT:    -6.803      2.411      4.415
REMARK INTER + INTRA:         -10.593
REMARK INTER:                  -9.476
REMARK INTRA:                  -1.117
REMARK UNBOUND:                -1.404
REMARK  Name = 
REMARK  7 active torsions:
REMARK  status: ('A' for Active; 'I' for Inactive)
REMARK    1  A    between atoms: C_1  and  C_2
REMARK    2  A    between atoms: C_2  and  N_3
REMARK    3  A    between atoms: C_2  and  C_16
REMARK    4  A    between atoms: C_4  and  C_6
REMARK    5  A    between atoms: C_19  and  O_20
REMARK    6  A    between atoms: O_20  and  C_21
REMARK    7  A    between atoms: C_25  and  C_26
REMARK                            x       y       z     vdW  Elec       q    Type
REMARK                         _______ _______ _______ _____ _____    ______ ____
ROOT
ATOM      1  C   UNL     1      47.128   3.843  16.462  0.00  0.00    +0.000 C 
ATOM      2  C   UNL     1      47.661   4.546  15.214  0.00  0.00    +0.000 C 
ENDROOT
BRANCH   2   3
ATOM      3  C   UNL     1      46.733   4.444  14.016  0.00  0.00    +0.000 A 
ATOM      4  C   UNL     1      46.303   3.183  13.573  0.00  0.00    +0.000 A 
ATOM      5  C   UNL     1      45.585   3.053  12.380  0.00  0.00    +0.000 A 
ATOM      6  C   UNL     1      45.254   4.188  11.637  0.00  0.00    +0.000 A 
ATOM      7  C   UNL     1      45.649   5.444  12.086  0.00  0.00    +0.000 A 
ATOM      8  C   UNL     1      46.380   5.574  13.263  0.00  0.00    +0.000 A 
BRANCH   6   9
ATOM      9  O   UNL     1      44.632   4.191  10.413  0.00  0.00    +0.000 OA
BRANCH   9  10
ATOM     10  C   UNL     1      45.321   3.852   9.278  0.00  0.00    +0.000 A 
ATOM     11  C   UNL     1      45.865   4.771   8.381  0.00  0.00    +0.000 A 
ATOM     12  C   UNL     1      46.541   4.327   7.246  0.00  0.00    +0.000 A 
ATOM     13  C   UNL     1      46.736   2.963   7.045  0.00  0.00    +0.000 A 
ATOM     14  C   UNL     1      46.252   2.042   7.980  0.00  0.00    +0.000 A 
ATOM     15  C   UNL     1      45.538   2.485   9.094  0.00  0.00    +0.000 A 
BRANCH  14  16
ATOM     16  C   UNL     1      46.500   0.648   7.803  0.00  0.00    +0.000 C 
ATOM     17  N   UNL     1      46.700  -0.485   7.656  0.00  0.00    +0.000 NA
ENDBRANCH  14  16
ENDBRANCH   9  10
ENDBRANCH   6   9
ENDBRANCH   2   3
BRANCH   2  18
ATOM     18  N   UNL     1      47.892   5.956  15.500  0.00  0.00    +0.000 N 
ATOM     19  C   UNL     1      49.029   6.386  16.135  0.00  0.00    +0.000 C 
ATOM     20  O   UNL     1      49.927   5.621  16.474  0.00  0.00    +0.000 OA
ATOM     21  H   UNL     1      47.118   6.592  15.378  0.00  0.00    +0.000 HD
BRANCH  19  22
ATOM     22  C   UNL     1      49.132   7.833  16.328  0.00  0.00    +0.000 A 
ATOM     23  C   UNL     1      49.047   8.468  17.559  0.00  0.00    +0.000 A 
ATOM     24  S   UNL     1      48.982  10.174  17.429  0.00  0.00    +0.000 S 
ATOM     25  C   UNL     1      49.066  10.106  15.729  0.00  0.00    +0.000 A 
ATOM     26  N   UNL     1      48.974  11.229  14.964  0.00  0.00    +0.000 NA
ATOM     27  C   UNL     1      49.023  11.005  13.695  0.00  0.00    +0.000 A 
ATOM     28  N   UNL     1      49.197   9.771  13.116  0.00  0.00    +0.000 N 
ATOM     29  C   UNL     1      49.427   8.631  13.853  0.00  0.00    +0.000 A 
ATOM     30  O   UNL     1      49.845   7.609  13.322  0.00  0.00    +0.000 OA
ATOM     31  C   UNL     1      49.230   8.811  15.279  0.00  0.00    +0.000 A 
ATOM     32  H   UNL     1      49.323   9.679  12.121  0.00  0.00    +0.000 HD
ENDBRANCH  19  22
ENDBRANCH   2  18
TORSDOF 6
ENDMDL
MODEL 6
REMARK VINA RESULT:    -6.611      1.543      2.341
REMARK INTER + INTRA:         -10.334
REMARK INTER:                  -9.019
REMARK INTRA:                  -1.314
REMARK UNBOUND:                -1.404
REMARK  Name = 
REMARK  7 active torsions:
REMARK  status: ('A' for Active; 'I' for Inactive)
REMARK    1  A    between atoms: C_1  and  C_2
REMARK    2  A    between atoms: C_2  and  N_3
REMARK    3  A    between atoms: C_2  and  C_16
REMARK    4  A    between atoms: C_4  and  C_6
REMARK    5  A    between atoms: C_19  and  O_20
REMARK    6  A    between atoms: O_20  and  C_21
REMARK    7  A    between atoms: C_25  and  C_26
REMARK                            x       y       z     vdW  Elec       q    Type
REMARK                         _______ _______ _______ _____ _____    ______ ____
ROOT
ATOM      1  C   UNL     1      48.716   9.202  13.203  0.00  0.00    +0.000 C 
ATOM      2  C   UNL     1      47.833   8.259  14.018  0.00  0.00    +0.000 C 
ENDROOT
BRANCH   2   3
ATOM      3  C   UNL     1      46.806   7.513  13.184  0.00  0.00    +0.000 A 
ATOM      4  C   UNL     1      46.922   6.124  13.013  0.00  0.00    +0.000 A 
ATOM      5  C   UNL     1      46.090   5.443  12.120  0.00  0.00    +0.000 A 
ATOM      6  C   UNL     1      45.103   6.138  11.418  0.00  0.00    +0.000 A 
ATOM      7  C   UNL     1      44.960   7.508  11.606  0.00  0.00    +0.000 A 
ATOM      8  C   UNL     1      45.801   8.192  12.479  0.00  0.00    +0.000 A 
BRANCH   6   9
ATOM      9  O   UNL     1      44.282   5.607  10.454  0.00  0.00    +0.000 OA
BRANCH   9  10
ATOM     10  C   UNL     1      44.557   4.385   9.897  0.00  0.00    +0.000 A 
ATOM     11  C   UNL     1      44.084   3.169  10.389  0.00  0.00    +0.000 A 
ATOM     12  C   UNL     1      44.428   1.975   9.757  0.00  0.00    +0.000 A 
ATOM     13  C   UNL     1      45.187   2.003   8.590  0.00  0.00    +0.000 A 
ATOM     14  C   UNL     1      45.604   3.227   8.056  0.00  0.00    +0.000 A 
ATOM     15  C   UNL     1      45.295   4.419   8.712  0.00  0.00    +0.000 A 
BRANCH  14  16
ATOM     16  C   UNL     1      46.334   3.259   6.830  0.00  0.00    +0.000 C 
ATOM     17  N   UNL     1      46.931   3.284   5.836  0.00  0.00    +0.000 NA
ENDBRANCH  14  16
ENDBRANCH   9  10
ENDBRANCH   6   9
ENDBRANCH   2   3
BRANCH   2  18
ATOM     18  N   UNL     1      48.660   7.281  14.713  0.00  0.00    +0.000 N 
ATOM     19  C   UNL     1      48.866   7.345  16.068  0.00  0.00    +0.000 C 
ATOM     20  O   UNL     1      48.349   8.204  16.776  0.00  0.00    +0.000 OA
ATOM     21  H   UNL     1      49.221   6.658  14.152  0.00  0.00    +0.000 HD
BRANCH  19  22
ATOM     22  C   UNL     1      49.697   6.278  16.628  0.00  0.00    +0.000 A 
ATOM     23  C   UNL     1      49.209   5.220  17.380  0.00  0.00    +0.000 A 
ATOM     24  S   UNL     1      50.450   4.264  18.073  0.00  0.00    +0.000 S 
ATOM     25  C   UNL     1      51.665   5.240  17.386  0.00  0.00    +0.000 A 
ATOM     26  N   UNL     1      52.984   5.028  17.648  0.00  0.00    +0.000 NA
ATOM     27  C   UNL     1      53.775   5.872  17.077  0.00  0.00    +0.000 A 
ATOM     28  N   UNL     1      53.379   6.882  16.235  0.00  0.00    +0.000 N 
ATOM     29  C   UNL     1      52.070   7.048  15.839  0.00  0.00    +0.000 A 
ATOM     30  O   UNL     1      51.784   7.770  14.891  0.00  0.00    +0.000 OA
ATOM     31  C   UNL     1      51.132   6.220  16.572  0.00  0.00    +0.000 A 
ATOM     32  H   UNL     1      54.056   7.445  15.746  0.00  0.00    +0.000 HD
ENDBRANCH  19  22
ENDBRANCH   2  18
TORSDOF 6
ENDMDL
MODEL 7
REMARK VINA RESULT:    -6.425      4.979      7.510
REMARK INTER + INTRA:         -10.083
REMARK INTER:                  -9.088
REMARK INTRA:                  -0.995
REMARK UNBOUND:                -1.404
REMARK  Name = 
REMARK  7 active torsions:
REMARK  status: ('A' for Active; 'I' for Inactive)
REMARK    1  A    between atoms: C_1  and  C_2
REMARK    2  A    between atoms: C_2  and  N_3
REMARK    3  A    between atoms: C_2  and  C_16
REMARK    4  A    between atoms: C_4  and  C_6
REMARK    5  A    between atoms: C_19  and  O_20
REMARK    6  A    between atoms: O_20  and  C_21
REMARK    7  A    between atoms: C_25  and  C_26
REMARK                            x       y       z     vdW  Elec       q    Type
REMARK                         _______ _______ _______ _____ _____    ______ ____
ROOT
ATOM      1  C   UNL     1      47.672   7.967  14.155  0.00  0.00    +0.000 C 
ATOM      2  C   UNL     1      47.714   8.183  12.643  0.00  0.00    +0.000 C 
ENDROOT
BRANCH   2   3
ATOM      3  C   UNL     1      49.102   8.493  12.111  0.00  0.00    +0.000 A 
ATOM      4  C   UNL     1      49.447   9.816  11.789  0.00  0.00    +0.000 A 
ATOM      5  C   UNL     1      50.655  10.103  11.147  0.00  0.00    +0.000 A 
ATOM      6  C   UNL     1      51.552   9.072  10.857  0.00  0.00    +0.000 A 
ATOM      7  C   UNL     1      51.233   7.763  11.202  0.00  0.00    +0.000 A 
ATOM      8  C   UNL     1      50.022   7.474  11.823  0.00  0.00    +0.000 A 
BRANCH   6   9
ATOM      9  O   UNL     1      52.726   9.206  10.157  0.00  0.00    +0.000 OA
BRANCH   9  10
ATOM     10  C   UNL     1      52.777   8.924   8.817  0.00  0.00    +0.000 A 
ATOM     11  C   UNL     1      52.808   9.887   7.808  0.00  0.00    +0.000 A 
ATOM     12  C   UNL     1      52.850   9.499   6.470  0.00  0.00    +0.000 A 
ATOM     13  C   UNL     1      52.932   8.148   6.142  0.00  0.00    +0.000 A 
ATOM     14  C   UNL     1      52.971   7.184   7.155  0.00  0.00    +0.000 A 
ATOM     15  C   UNL     1      52.887   7.570   8.493  0.00  0.00    +0.000 A 
BRANCH  14  16
ATOM     16  C   UNL     1      53.112   5.803   6.821  0.00  0.00    +0.000 C 
ATOM     17  N   UNL     1      53.230   4.682   6.550  0.00  0.00    +0.000 NA
ENDBRANCH  14  16
ENDBRANCH   9  10
ENDBRANCH   6   9
ENDBRANCH   2   3
BRANCH   2  18
ATOM     18  N   UNL     1      47.212   6.999  11.958  0.00  0.00    +0.000 N 
ATOM     19  C   UNL     1      45.963   6.971  11.389  0.00  0.00    +0.000 C 
ATOM     20  O   UNL     1      45.212   7.941  11.395  0.00  0.00    +0.000 OA
ATOM     21  H   UNL     1      47.731   6.141  12.064  0.00  0.00    +0.000 HD
BRANCH  19  22
ATOM     22  C   UNL     1      45.610   5.722  10.713  0.00  0.00    +0.000 A 
ATOM     23  C   UNL     1      45.788   5.488   9.357  0.00  0.00    +0.000 A 
ATOM     24  S   UNL     1      45.076   4.022   8.832  0.00  0.00    +0.000 S 
ATOM     25  C   UNL     1      44.514   3.665  10.400  0.00  0.00    +0.000 A 
ATOM     26  N   UNL     1      43.741   2.573  10.651  0.00  0.00    +0.000 NA
ATOM     27  C   UNL     1      43.372   2.462  11.881  0.00  0.00    +0.000 A 
ATOM     28  N   UNL     1      43.736   3.315  12.896  0.00  0.00    +0.000 N 
ATOM     29  C   UNL     1      44.621   4.353  12.712  0.00  0.00    +0.000 A 
ATOM     30  O   UNL     1      45.135   4.922  13.667  0.00  0.00    +0.000 OA
ATOM     31  C   UNL     1      44.941   4.604  11.320  0.00  0.00    +0.000 A 
ATOM     32  H   UNL     1      43.491   3.116  13.853  0.00  0.00    +0.000 HD
ENDBRANCH  19  22
ENDBRANCH   2  18
TORSDOF 6
ENDMDL
MODEL 8
REMARK VINA RESULT:    -6.342      2.697      7.793
REMARK INTER + INTRA:          -9.971
REMARK INTER:                  -9.245
REMARK INTRA:                  -0.726
REMARK UNBOUND:                -1.404
REMARK  Name = 
REMARK  7 active torsions:
REMARK  status: ('A' for Active; 'I' for Inactive)
REMARK    1  A    between atoms: C_1  and  C_2
REMARK    2  A    between atoms: C_2  and  N_3
REMARK    3  A    between atoms: C_2  and  C_16
REMARK    4  A    between atoms: C_4  and  C_6
REMARK    5  A    between atoms: C_19  and  O_20
REMARK    6  A    between atoms: O_20  and  C_21
REMARK    7  A    between atoms: C_25  and  C_26
REMARK                            x       y       z     vdW  Elec       q    Type
REMARK                         _______ _______ _______ _____ _____    ______ ____
ROOT
ATOM      1  C   UNL     1      47.041  10.592  12.235  0.00  0.00    +0.000 C 
ATOM      2  C   UNL     1      47.566   9.157  12.230  0.00  0.00    +0.000 C 
ENDROOT
BRANCH   2   3
ATOM      3  C   UNL     1      48.437   8.824  13.429  0.00  0.00    +0.000 A 
ATOM      4  C   UNL     1      49.705   8.254  13.233  0.00  0.00    +0.000 A 
ATOM      5  C   UNL     1      50.454   7.789  14.318  0.00  0.00    +0.000 A 
ATOM      6  C   UNL     1      49.961   7.929  15.617  0.00  0.00    +0.000 A 
ATOM      7  C   UNL     1      48.720   8.522  15.823  0.00  0.00    +0.000 A 
ATOM      8  C   UNL     1      47.963   8.967  14.742  0.00  0.00    +0.000 A 
BRANCH   6   9
ATOM      9  O   UNL     1      50.553   7.440  16.755  0.00  0.00    +0.000 OA
BRANCH   9  10
ATOM     10  C   UNL     1      50.519   6.101  17.042  0.00  0.00    +0.000 A 
ATOM     11  C   UNL     1      51.631   5.344  17.408  0.00  0.00    +0.000 A 
ATOM     12  C   UNL     1      51.497   3.981  17.671  0.00  0.00    +0.000 A 
ATOM     13  C   UNL     1      50.237   3.390  17.637  0.00  0.00    +0.000 A 
ATOM     14  C   UNL     1      49.109   4.164  17.338  0.00  0.00    +0.000 A 
ATOM     15  C   UNL     1      49.250   5.518  17.034  0.00  0.00    +0.000 A 
BRANCH  14  16
ATOM     16  C   UNL     1      47.811   3.571  17.358  0.00  0.00    +0.000 C 
ATOM     17  N   UNL     1      46.757   3.087  17.371  0.00  0.00    +0.000 NA
ENDBRANCH  14  16
ENDBRANCH   9  10
ENDBRANCH   6   9
ENDBRANCH   2   3
BRANCH   2  18
ATOM     18  N   UNL     1      46.451   8.221  12.197  0.00  0.00    +0.000 N 
ATOM     19  C   UNL     1      46.595   6.944  11.714  0.00  0.00    +0.000 C 
ATOM     20  O   UNL     1      47.669   6.507  11.312  0.00  0.00    +0.000 OA
ATOM     21  H   UNL     1      45.526   8.585  12.372  0.00  0.00    +0.000 HD
BRANCH  19  22
ATOM     22  C   UNL     1      45.393   6.112  11.771  0.00  0.00    +0.000 A 
ATOM     23  C   UNL     1      44.500   6.097  12.832  0.00  0.00    +0.000 A 
ATOM     24  S   UNL     1      43.320   4.863  12.697  0.00  0.00    +0.000 S 
ATOM     25  C   UNL     1      43.973   4.320  11.221  0.00  0.00    +0.000 A 
ATOM     26  N   UNL     1      43.484   3.220  10.586  0.00  0.00    +0.000 NA
ATOM     27  C   UNL     1      44.107   2.921   9.497  0.00  0.00    +0.000 A 
ATOM     28  N   UNL     1      45.147   3.641   8.958  0.00  0.00    +0.000 N 
ATOM     29  C   UNL     1      45.583   4.830   9.497  0.00  0.00    +0.000 A 
ATOM     30  O   UNL     1      46.313   5.582   8.861  0.00  0.00    +0.000 OA
ATOM     31  C   UNL     1      45.014   5.123  10.799  0.00  0.00    +0.000 A 
ATOM     32  H   UNL     1      45.525   3.407   8.055  0.00  0.00    +0.000 HD
ENDBRANCH  19  22
ENDBRANCH   2  18
TORSDOF 6
ENDMDL
MODEL 9
REMARK VINA RESULT:    -6.304      4.931      7.468
REMARK INTER + INTRA:          -9.920
REMARK INTER:                  -8.875
REMARK INTRA:                  -1.045
REMARK UNBOUND:                -1.404
REMARK  Name = 
REMARK  7 active torsions:
REMARK  status: ('A' for Active; 'I' for Inactive)
REMARK    1  A    between atoms: C_1  and  C_2
REMARK    2  A    between atoms: C_2  and  N_3
REMARK    3  A    between atoms: C_2  and  C_16
REMARK    4  A    between atoms: C_4  and  C_6
REMARK    5  A    between atoms: C_19  and  O_20
REMARK    6  A    between atoms: O_20  and  C_21
REMARK    7  A    between atoms: C_25  and  C_26
REMARK                            x       y       z     vdW  Elec       q    Type
REMARK                         _______ _______ _______ _____ _____    ______ ____
ROOT
ATOM      1  C   UNL     1      48.197   6.792  14.835  0.00  0.00    +0.000 C 
ATOM      2  C   UNL     1      48.049   7.356  13.422  0.00  0.00    +0.000 C 
ENDROOT
BRANCH   2   3
ATOM      3  C   UNL     1      49.368   7.758  12.786  0.00  0.00    +0.000 A 
ATOM      4  C   UNL     1      49.500   7.748  11.388  0.00  0.00    +0.000 A 
ATOM      5  C   UNL     1      50.745   7.954  10.787  0.00  0.00    +0.000 A 
ATOM      6  C   UNL     1      51.867   8.214  11.578  0.00  0.00    +0.000 A 
ATOM      7  C   UNL     1      51.738   8.258  12.962  0.00  0.00    +0.000 A 
ATOM      8  C   UNL     1      50.503   8.033  13.563  0.00  0.00    +0.000 A 
BRANCH   6   9
ATOM      9  O   UNL     1      53.155   8.347  11.121  0.00  0.00    +0.000 OA
BRANCH   9  10
ATOM     10  C   UNL     1      53.830   7.271  10.609  0.00  0.00    +0.000 A 
ATOM     11  C   UNL     1      54.852   6.592  11.272  0.00  0.00    +0.000 A 
ATOM     12  C   UNL     1      55.487   5.512  10.661  0.00  0.00    +0.000 A 
ATOM     13  C   UNL     1      55.052   5.066   9.416  0.00  0.00    +0.000 A 
ATOM     14  C   UNL     1      53.981   5.702   8.780  0.00  0.00    +0.000 A 
ATOM     15  C   UNL     1      53.373   6.810   9.372  0.00  0.00    +0.000 A 
BRANCH  14  16
ATOM     16  C   UNL     1      53.499   5.211   7.530  0.00  0.00    +0.000 C 
ATOM     17  N   UNL     1      53.107   4.815   6.513  0.00  0.00    +0.000 NA
ENDBRANCH  14  16
ENDBRANCH   9  10
ENDBRANCH   6   9
ENDBRANCH   2   3
BRANCH   2  18
ATOM     18  N   UNL     1      47.402   6.375  12.562  0.00  0.00    +0.000 N 
ATOM     19  C   UNL     1      46.289   6.687  11.822  0.00  0.00    +0.000 C 
ATOM     20  O   UNL     1      45.791   7.809  11.818  0.00  0.00    +0.000 OA
ATOM     21  H   UNL     1      47.684   5.411  12.655  0.00  0.00    +0.000 HD
BRANCH  19  22
ATOM     22  C   UNL     1      45.769   5.606  10.984  0.00  0.00    +0.000 A 
ATOM     23  C   UNL     1      45.830   5.591   9.598  0.00  0.00    +0.000 A 
ATOM     24  S   UNL     1      44.942   4.301   8.904  0.00  0.00    +0.000 S 
ATOM     25  C   UNL     1      44.456   3.734  10.434  0.00  0.00    +0.000 A 
ATOM     26  N   UNL     1      43.598   2.686  10.567  0.00  0.00    +0.000 NA
ATOM     27  C   UNL     1      43.304   2.400  11.790  0.00  0.00    +0.000 A 
ATOM     28  N   UNL     1      43.818   3.034  12.896  0.00  0.00    +0.000 N 
ATOM     29  C   UNL     1      44.788   4.008  12.809  0.00  0.00    +0.000 A 
ATOM     30  O   UNL     1      45.419   4.360  13.799  0.00  0.00    +0.000 OA
ATOM     31  C   UNL     1      45.036   4.463  11.455  0.00  0.00    +0.000 A 
ATOM     32  H   UNL     1      43.621   2.697  13.825  0.00  0.00    +0.000 HD
ENDBRANCH  19  22
ENDBRANCH   2  18
TORSDOF 6
ENDMDL
