MODEL 1
REMARK VINA RESULT:    -7.983      0.000      0.000
REMARK INTER + INTRA:         -11.091
REMARK INTER:                 -10.317
REMARK INTRA:                  -0.774
REMARK UNBOUND:                -0.774
REMARK  Name = 
REMARK  6 active torsions:
REMARK  status: ('A' for Active; 'I' for Inactive)
REMARK    1  A    between atoms: C_1  and  C_2
REMARK    2  A    between atoms: C_2  and  C_3
REMARK    3  A    between atoms: C_2  and  C_14
REMARK    4  A    between atoms: C_3  and  N_4
REMARK    5  A    between atoms: C_8  and  C_9
REMARK    6  A    between atoms: C_18  and  C_19
REMARK                            x       y       z     vdW  Elec       q    Type
REMARK                         _______ _______ _______ _____ _____    ______ ____
ROOT
ATOM      1  C   UNL     1      43.648   4.721  10.530  0.00  0.00    +0.000 C 
ENDROOT
BRANCH   1   2
ATOM      2  N   UNL     1      43.980   3.310  10.351  0.00  0.00    +0.000 N 
ATOM      3  C   UNL     1      44.875   3.085   9.292  0.00  0.00    +0.000 A 
ATOM      4  C   UNL     1      45.293   1.781   8.985  0.00  0.00    +0.000 A 
ATOM      5  N   UNL     1      46.173   1.473   7.992  0.00  0.00    +0.000 NA
ATOM      6  C   UNL     1      46.634   2.552   7.301  0.00  0.00    +0.000 A 
ATOM      7  C   UNL     1      46.238   3.846   7.592  0.00  0.00    +0.000 A 
ATOM      8  N   UNL     1      45.363   4.130   8.589  0.00  0.00    +0.000 NA
ATOM      9  H   UNL     1      43.142   2.751  10.211  0.00  0.00    +0.000 HD
BRANCH   6  10
ATOM     10  C   UNL     1      47.609   2.324   6.202  0.00  0.00    +0.000 C 
ATOM     11  N   UNL     1      47.550   3.201   5.155  0.00  0.00    +0.000 N 
ATOM     12  O   UNL     1      48.416   1.404   6.227  0.00  0.00    +0.000 OA
ATOM     13  H   UNL     1      46.863   3.945   5.149  0.00  0.00    +0.000 HD
ATOM     14  H   UNL     1      48.179   3.077   4.374  0.00  0.00    +0.000 HD
ENDBRANCH   6  10
ENDBRANCH   1   2
BRANCH   1  16
ATOM     15  C   UNL     1      42.619   5.376  12.797  0.00  0.00    +0.000 C 
ATOM     16  C   UNL     1      43.827   5.042  11.982  0.00  0.00    +0.000 C 
BRANCH  16  17
ATOM     17  C   UNL     1      45.172   5.308  12.511  0.00  0.00    +0.000 A 
ATOM     18  C   UNL     1      46.027   6.186  11.837  0.00  0.00    +0.000 A 
ATOM     19  C   UNL     1      47.320   6.421  12.306  0.00  0.00    +0.000 A 
ATOM     20  C   UNL     1      47.763   5.800  13.471  0.00  0.00    +0.000 A 
ATOM     21  C   UNL     1      46.917   4.939  14.182  0.00  0.00    +0.000 A 
ATOM     22  C   UNL     1      45.626   4.690  13.684  0.00  0.00    +0.000 A 
BRANCH  21  23
ATOM     23  C   UNL     1      47.365   4.298  15.473  0.00  0.00    +0.000 C 
ATOM     24  F   UNL     1      46.396   4.265  16.429  0.00  0.00    +0.000 F 
ATOM     25  F   UNL     1      47.763   3.007  15.303  0.00  0.00    +0.000 F 
ATOM     26  F   UNL     1      48.423   4.944  16.039  0.00  0.00    +0.000 F 
ENDBRANCH  21  23
ENDBRANCH  16  17
ENDBRANCH   1  16
TORSDOF 5
ENDMDL
MODEL 2
REMARK VINA RESULT:    -7.775      1.981      2.607
REMARK INTER + INTRA:         -10.821
REMARK INTER:                 -10.047
REMARK INTRA:                  -0.775
REMARK UNBOUND:                -0.774
REMARK  Name = 
REMARK  6 active torsions:
REMARK  status: ('A' for Active; 'I' for Inactive)
REMARK    1  A    between atoms: C_1  and  C_2
REMARK    2  A    between atoms: C_2  and  C_3
REMARK    3  A    between atoms: C_2  and  C_14
REMARK    4  A    between atoms: C_3  and  N_4
REMARK    5  A    between atoms: C_8  and  C_9
REMARK    6  A    between atoms: C_18  and  C_19
REMARK                            x       y       z     vdW  Elec       q    Type
REMARK                         _______ _______ _______ _____ _____    ______ ____
ROOT
ATOM      1  C   UNL     1      43.673   4.747  10.240  0.00  0.00    +0.000 C 
ENDROOT
BRANCH   1   2
ATOM      2  N   UNL     1      44.061   3.344  10.127  0.00  0.00    +0.000 N 
ATOM      3  C   UNL     1      44.964   3.104   9.077  0.00  0.00    +0.000 A 
ATOM      4  C   UNL     1      45.434   1.806   8.830  0.00  0.00    +0.000 A 
ATOM      5  N   UNL     1      46.325   1.486   7.851  0.00  0.00    +0.000 NA
ATOM      6  C   UNL     1      46.743   2.550   7.110  0.00  0.00    +0.000 A 
ATOM      7  C   UNL     1      46.297   3.839   7.341  0.00  0.00    +0.000 A 
ATOM      8  N   UNL     1      45.410   4.134   8.325  0.00  0.00    +0.000 NA
ATOM      9  H   UNL     1      43.246   2.746  10.013  0.00  0.00    +0.000 HD
BRANCH   6  10
ATOM     10  C   UNL     1      47.726   2.309   6.021  0.00  0.00    +0.000 C 
ATOM     11  N   UNL     1      47.675   3.174   4.963  0.00  0.00    +0.000 N 
ATOM     12  O   UNL     1      48.533   1.390   6.062  0.00  0.00    +0.000 OA
ATOM     13  H   UNL     1      46.987   3.918   4.944  0.00  0.00    +0.000 HD
ATOM     14  H   UNL     1      48.309   3.041   4.189  0.00  0.00    +0.000 HD
ENDBRANCH   6  10
ENDBRANCH   1   2
BRANCH   1  16
ATOM     15  C   UNL     1      42.519   5.558  12.393  0.00  0.00    +0.000 C 
ATOM     16  C   UNL     1      43.762   5.120  11.688  0.00  0.00    +0.000 C 
BRANCH  16  17
ATOM     17  C   UNL     1      45.077   5.330  12.310  0.00  0.00    +0.000 A 
ATOM     18  C   UNL     1      45.524   4.461  13.311  0.00  0.00    +0.000 A 
ATOM     19  C   UNL     1      46.753   4.668  13.937  0.00  0.00    +0.000 A 
ATOM     20  C   UNL     1      47.563   5.732  13.549  0.00  0.00    +0.000 A 
ATOM     21  C   UNL     1      47.154   6.600  12.527  0.00  0.00    +0.000 A 
ATOM     22  C   UNL     1      45.901   6.396  11.924  0.00  0.00    +0.000 A 
BRANCH  21  23
ATOM     23  C   UNL     1      48.043   7.727  12.061  0.00  0.00    +0.000 C 
ATOM     24  F   UNL     1      47.381   8.903  11.880  0.00  0.00    +0.000 F 
ATOM     25  F   UNL     1      49.046   7.997  12.942  0.00  0.00    +0.000 F 
ATOM     26  F   UNL     1      48.652   7.456  10.873  0.00  0.00    +0.000 F 
ENDBRANCH  21  23
ENDBRANCH  16  17
ENDBRANCH   1  16
TORSDOF 5
ENDMDL
MODEL 3
REMARK VINA RESULT:    -7.574      4.643      6.737
REMARK INTER + INTRA:         -10.562
REMARK INTER:                  -9.799
REMARK INTRA:                  -0.763
REMARK UNBOUND:                -0.774
REMARK  Name = 
REMARK  6 active torsions:
REMARK  status: ('A' for Active; 'I' for Inactive)
REMARK    1  A    between atoms: C_1  and  C_2
REMARK    2  A    between atoms: C_2  and  C_3
REMARK    3  A    between atoms: C_2  and  C_14
REMARK    4  A    between atoms: C_3  and  N_4
REMARK    5  A    between atoms: C_8  and  C_9
REMARK    6  A    between atoms: C_18  and  C_19
REMARK                            x       y       z     vdW  Elec       q    Type
REMARK                         _______ _______ _______ _____ _____    ______ ____
ROOT
ATOM      1  C   UNL     1      43.940   4.552  11.860  0.00  0.00    +0.000 C 
ENDROOT
BRANCH   1   2
ATOM      2  N   UNL     1      44.713   4.200  13.048  0.00  0.00    +0.000 N 
ATOM      3  C   UNL     1      45.885   4.962  13.188  0.00  0.00    +0.000 A 
ATOM      4  C   UNL     1      46.743   4.745  14.277  0.00  0.00    +0.000 A 
ATOM      5  N   UNL     1      47.887   5.450  14.503  0.00  0.00    +0.000 NA
ATOM      6  C   UNL     1      48.142   6.411  13.572  0.00  0.00    +0.000 A 
ATOM      7  C   UNL     1      47.305   6.645  12.495  0.00  0.00    +0.000 A 
ATOM      8  N   UNL     1      46.169   5.932  12.292  0.00  0.00    +0.000 NA
ATOM      9  H   UNL     1      44.951   3.212  13.051  0.00  0.00    +0.000 HD
BRANCH   6  10
ATOM     10  C   UNL     1      49.362   7.245  13.734  0.00  0.00    +0.000 C 
ATOM     11  N   UNL     1      50.131   7.408  12.616  0.00  0.00    +0.000 N 
ATOM     12  O   UNL     1      49.666   7.754  14.805  0.00  0.00    +0.000 OA
ATOM     13  H   UNL     1      49.868   6.964  11.744  0.00  0.00    +0.000 HD
ATOM     14  H   UNL     1      50.981   7.950  12.679  0.00  0.00    +0.000 HD
ENDBRANCH   6  10
ENDBRANCH   1   2
BRANCH   1  16
ATOM     15  C   UNL     1      43.430   2.083  11.340  0.00  0.00    +0.000 C 
ATOM     16  C   UNL     1      44.017   3.391  10.916  0.00  0.00    +0.000 C 
BRANCH  16  17
ATOM     17  C   UNL     1      44.899   3.460   9.743  0.00  0.00    +0.000 A 
ATOM     18  C   UNL     1      45.251   4.702   9.205  0.00  0.00    +0.000 A 
ATOM     19  C   UNL     1      46.057   4.785   8.070  0.00  0.00    +0.000 A 
ATOM     20  C   UNL     1      46.542   3.623   7.474  0.00  0.00    +0.000 A 
ATOM     21  C   UNL     1      46.229   2.366   8.009  0.00  0.00    +0.000 A 
ATOM     22  C   UNL     1      45.393   2.297   9.137  0.00  0.00    +0.000 A 
BRANCH  21  23
ATOM     23  C   UNL     1      46.788   1.102   7.404  0.00  0.00    +0.000 C 
ATOM     24  F   UNL     1      46.553   0.987   6.067  0.00  0.00    +0.000 F 
ATOM     25  F   UNL     1      48.139   1.007   7.552  0.00  0.00    +0.000 F 
ATOM     26  F   UNL     1      46.270  -0.024   7.970  0.00  0.00    +0.000 F 
ENDBRANCH  21  23
ENDBRANCH  16  17
ENDBRANCH   1  16
TORSDOF 5
ENDMDL
MODEL 4
REMARK VINA RESULT:    -7.308      3.836      4.442
REMARK INTER + INTRA:         -10.218
REMARK INTER:                  -9.605
REMARK INTRA:                  -0.614
REMARK UNBOUND:                -0.774
REMARK  Name = 
REMARK  6 active torsions:
REMARK  status: ('A' for Active; 'I' for Inactive)
REMARK    1  A    between atoms: C_1  and  C_2
REMARK    2  A    between atoms: C_2  and  C_3
REMARK    3  A    between atoms: C_2  and  C_14
REMARK    4  A    between atoms: C_3  and  N_4
REMARK    5  A    between atoms: C_8  and  C_9
REMARK    6  A    between atoms: C_18  and  C_19
REMARK                            x       y       z     vdW  Elec       q    Type
REMARK                         _______ _______ _______ _____ _____    ______ ____
ROOT
ATOM      1  C   UNL     1      43.732   5.163  10.571  0.00  0.00    +0.000 C 
ENDROOT
BRANCH   1   2
ATOM      2  N   UNL     1      43.965   3.727  10.444  0.00  0.00    +0.000 N 
ATOM      3  C   UNL     1      44.838   3.401   9.392  0.00  0.00    +0.000 A 
ATOM      4  C   UNL     1      45.165   2.061   9.133  0.00  0.00    +0.000 A 
ATOM      5  N   UNL     1      46.018   1.657   8.151  0.00  0.00    +0.000 NA
ATOM      6  C   UNL     1      46.550   2.676   7.421  0.00  0.00    +0.000 A 
ATOM      7  C   UNL     1      46.246   4.003   7.665  0.00  0.00    +0.000 A 
ATOM      8  N   UNL     1      45.395   4.383   8.651  0.00  0.00    +0.000 NA
ATOM      9  H   UNL     1      43.090   3.222  10.324  0.00  0.00    +0.000 HD
BRANCH   6  10
ATOM     10  C   UNL     1      47.503   2.340   6.330  0.00  0.00    +0.000 C 
ATOM     11  N   UNL     1      47.454   3.140   5.223  0.00  0.00    +0.000 N 
ATOM     12  O   UNL     1      48.284   1.401   6.413  0.00  0.00    +0.000 OA
ATOM     13  H   UNL     1      46.787   3.902   5.171  0.00  0.00    +0.000 HD
ATOM     14  H   UNL     1      48.068   2.942   4.446  0.00  0.00    +0.000 HD
ENDBRANCH   6  10
ENDBRANCH   1   2
BRANCH   1  16
ATOM     15  C   UNL     1      44.445   4.715  13.004  0.00  0.00    +0.000 C 
ATOM     16  C   UNL     1      44.431   5.621  11.814  0.00  0.00    +0.000 C 
BRANCH  16  17
ATOM     17  C   UNL     1      44.830   7.028  11.952  0.00  0.00    +0.000 A 
ATOM     18  C   UNL     1      45.890   7.375  12.797  0.00  0.00    +0.000 A 
ATOM     19  C   UNL     1      46.258   8.709  12.968  0.00  0.00    +0.000 A 
ATOM     20  C   UNL     1      45.585   9.712  12.274  0.00  0.00    +0.000 A 
ATOM     21  C   UNL     1      44.539   9.391  11.398  0.00  0.00    +0.000 A 
ATOM     22  C   UNL     1      44.161   8.044  11.256  0.00  0.00    +0.000 A 
BRANCH  21  23
ATOM     23  C   UNL     1      43.835  10.462  10.601  0.00  0.00    +0.000 C 
ATOM     24  F   UNL     1      44.665  11.164   9.781  0.00  0.00    +0.000 F 
ATOM     25  F   UNL     1      42.860   9.954   9.797  0.00  0.00    +0.000 F 
ATOM     26  F   UNL     1      43.223  11.387  11.392  0.00  0.00    +0.000 F 
ENDBRANCH  21  23
ENDBRANCH  16  17
ENDBRANCH   1  16
TORSDOF 5
ENDMDL
MODEL 5
REMARK VINA RESULT:    -7.159      2.502      3.241
REMARK INTER + INTRA:         -10.026
REMARK INTER:                  -9.352
REMARK INTRA:                  -0.674
REMARK UNBOUND:                -0.774
REMARK  Name = 
REMARK  6 active torsions:
REMARK  status: ('A' for Active; 'I' for Inactive)
REMARK    1  A    between atoms: C_1  and  C_2
REMARK    2  A    between atoms: C_2  and  C_3
REMARK    3  A    between atoms: C_2  and  C_14
REMARK    4  A    between atoms: C_3  and  N_4
REMARK    5  A    between atoms: C_8  and  C_9
REMARK    6  A    between atoms: C_18  and  C_19
REMARK                            x       y       z     vdW  Elec       q    Type
REMARK                         _______ _______ _______ _____ _____    ______ ____
ROOT
ATOM      1  C   UNL     1      44.135   5.363  10.681  0.00  0.00    +0.000 C 
ENDROOT
BRANCH   1   2
ATOM      2  N   UNL     1      44.236   3.916  10.515  0.00  0.00    +0.000 N 
ATOM      3  C   UNL     1      45.036   3.541   9.423  0.00  0.00    +0.000 A 
ATOM      4  C   UNL     1      45.234   2.185   9.123  0.00  0.00    +0.000 A 
ATOM      5  N   UNL     1      46.010   1.732   8.099  0.00  0.00    +0.000 NA
ATOM      6  C   UNL     1      46.601   2.718   7.369  0.00  0.00    +0.000 A 
ATOM      7  C   UNL     1      46.424   4.061   7.653  0.00  0.00    +0.000 A 
ATOM      8  N   UNL     1      45.649   4.489   8.680  0.00  0.00    +0.000 NA
ATOM      9  H   UNL     1      43.316   3.492  10.420  0.00  0.00    +0.000 HD
BRANCH   6  10
ATOM     10  C   UNL     1      47.479   2.328   6.235  0.00  0.00    +0.000 C 
ATOM     11  N   UNL     1      47.351   3.070   5.094  0.00  0.00    +0.000 N 
ATOM     12  O   UNL     1      48.267   1.395   6.311  0.00  0.00    +0.000 OA
ATOM     13  H   UNL     1      46.679   3.828   5.048  0.00  0.00    +0.000 HD
ATOM     14  H   UNL     1      47.911   2.833   4.288  0.00  0.00    +0.000 HD
ENDBRANCH   6  10
ENDBRANCH   1   2
BRANCH   1  16
ATOM     15  C   UNL     1      44.616   4.907  13.169  0.00  0.00    +0.000 C 
ATOM     16  C   UNL     1      44.865   5.721  11.939  0.00  0.00    +0.000 C 
BRANCH  16  17
ATOM     17  C   UNL     1      45.574   7.005  12.034  0.00  0.00    +0.000 A 
ATOM     18  C   UNL     1      44.862   8.176  12.313  0.00  0.00    +0.000 A 
ATOM     19  C   UNL     1      45.513   9.408  12.369  0.00  0.00    +0.000 A 
ATOM     20  C   UNL     1      46.891   9.479  12.174  0.00  0.00    +0.000 A 
ATOM     21  C   UNL     1      47.632   8.317  11.922  0.00  0.00    +0.000 A 
ATOM     22  C   UNL     1      46.960   7.085  11.840  0.00  0.00    +0.000 A 
BRANCH  21  23
ATOM     23  C   UNL     1      49.132   8.371  11.758  0.00  0.00    +0.000 C 
ATOM     24  F   UNL     1      49.630   7.373  10.977  0.00  0.00    +0.000 F 
ATOM     25  F   UNL     1      49.551   9.535  11.187  0.00  0.00    +0.000 F 
ATOM     26  F   UNL     1      49.792   8.278  12.946  0.00  0.00    +0.000 F 
ENDBRANCH  21  23
ENDBRANCH  16  17
ENDBRANCH   1  16
TORSDOF 5
ENDMDL
MODEL 6
REMARK VINA RESULT:    -6.978      5.135      7.800
REMARK INTER + INTRA:          -9.792
REMARK INTER:                  -9.254
REMARK INTRA:                  -0.538
REMARK UNBOUND:                -0.774
REMARK  Name = 
REMARK  6 active torsions:
REMARK  status: ('A' for Active; 'I' for Inactive)
REMARK    1  A    between atoms: C_1  and  C_2
REMARK    2  A    between atoms: C_2  and  C_3
REMARK    3  A    between atoms: C_2  and  C_14
REMARK    4  A    between atoms: C_3  and  N_4
REMARK    5  A    between atoms: C_8  and  C_9
REMARK    6  A    between atoms: C_18  and  C_19
REMARK                            x       y       z     vdW  Elec       q    Type
REMARK                         _______ _______ _______ _____ _____    ______ ____
ROOT
ATOM      1  C   UNL     1      45.257   5.121  13.252  0.00  0.00    +0.000 C 
ENDROOT
BRANCH   1   2
ATOM      2  N   UNL     1      46.421   5.885  13.693  0.00  0.00    +0.000 N 
ATOM      3  C   UNL     1      47.101   5.284  14.766  0.00  0.00    +0.000 A 
ATOM      4  C   UNL     1      48.241   5.894  15.311  0.00  0.00    +0.000 A 
ATOM      5  N   UNL     1      48.973   5.372  16.334  0.00  0.00    +0.000 NA
ATOM      6  C   UNL     1      48.508   4.180  16.802  0.00  0.00    +0.000 A 
ATOM      7  C   UNL     1      47.389   3.560  16.273  0.00  0.00    +0.000 A 
ATOM      8  N   UNL     1      46.677   4.097  15.251  0.00  0.00    +0.000 NA
ATOM      9  H   UNL     1      46.161   6.834  13.947  0.00  0.00    +0.000 HD
BRANCH   6  10
ATOM     10  C   UNL     1      49.244   3.521  17.912  0.00  0.00    +0.000 C 
ATOM     11  N   UNL     1      48.514   3.244  19.035  0.00  0.00    +0.000 N 
ATOM     12  O   UNL     1      50.433   3.245  17.833  0.00  0.00    +0.000 OA
ATOM     13  H   UNL     1      47.534   3.497  19.084  0.00  0.00    +0.000 HD
ATOM     14  H   UNL     1      48.973   2.815  19.825  0.00  0.00    +0.000 HD
ENDBRANCH   6  10
ENDBRANCH   1   2
BRANCH   1  16
ATOM     15  C   UNL     1      44.610   6.836  11.445  0.00  0.00    +0.000 C 
ATOM     16  C   UNL     1      45.029   5.448  11.808  0.00  0.00    +0.000 C 
BRANCH  16  17
ATOM     17  C   UNL     1      44.933   4.364  10.819  0.00  0.00    +0.000 A 
ATOM     18  C   UNL     1      44.059   3.294  11.038  0.00  0.00    +0.000 A 
ATOM     19  C   UNL     1      43.983   2.240  10.128  0.00  0.00    +0.000 A 
ATOM     20  C   UNL     1      44.762   2.258   8.974  0.00  0.00    +0.000 A 
ATOM     21  C   UNL     1      45.624   3.332   8.715  0.00  0.00    +0.000 A 
ATOM     22  C   UNL     1      45.711   4.375   9.654  0.00  0.00    +0.000 A 
BRANCH  21  23
ATOM     23  C   UNL     1      46.436   3.390   7.444  0.00  0.00    +0.000 C 
ATOM     24  F   UNL     1      45.691   3.231   6.315  0.00  0.00    +0.000 F 
ATOM     25  F   UNL     1      47.086   4.577   7.296  0.00  0.00    +0.000 F 
ATOM     26  F   UNL     1      47.398   2.427   7.393  0.00  0.00    +0.000 F 
ENDBRANCH  21  23
ENDBRANCH  16  17
ENDBRANCH   1  16
TORSDOF 5
ENDMDL
MODEL 7
REMARK VINA RESULT:    -6.921      4.885      7.408
REMARK INTER + INTRA:          -9.718
REMARK INTER:                  -9.378
REMARK INTRA:                  -0.341
REMARK UNBOUND:                -0.774
REMARK  Name = 
REMARK  6 active torsions:
REMARK  status: ('A' for Active; 'I' for Inactive)
REMARK    1  A    between atoms: C_1  and  C_2
REMARK    2  A    between atoms: C_2  and  C_3
REMARK    3  A    between atoms: C_2  and  C_14
REMARK    4  A    between atoms: C_3  and  N_4
REMARK    5  A    between atoms: C_8  and  C_9
REMARK    6  A    between atoms: C_18  and  C_19
REMARK                            x       y       z     vdW  Elec       q    Type
REMARK                         _______ _______ _______ _____ _____    ______ ____
ROOT
ATOM      1  C   UNL     1      47.768   7.037  11.976  0.00  0.00    +0.000 C 
ENDROOT
BRANCH   1   2
ATOM      2  N   UNL     1      48.253   7.413  13.301  0.00  0.00    +0.000 N 
ATOM      3  C   UNL     1      48.039   6.417  14.269  0.00  0.00    +0.000 A 
ATOM      4  C   UNL     1      48.445   6.622  15.597  0.00  0.00    +0.000 A 
ATOM      5  N   UNL     1      48.298   5.705  16.593  0.00  0.00    +0.000 NA
ATOM      6  C   UNL     1      47.716   4.539  16.196  0.00  0.00    +0.000 A 
ATOM      7  C   UNL     1      47.315   4.315  14.890  0.00  0.00    +0.000 A 
ATOM      8  N   UNL     1      47.474   5.243  13.913  0.00  0.00    +0.000 NA
ATOM      9  H   UNL     1      47.829   8.283  13.614  0.00  0.00    +0.000 HD
BRANCH   6  10
ATOM     10  C   UNL     1      47.520   3.467  17.207  0.00  0.00    +0.000 C 
ATOM     11  N   UNL     1      48.638   3.069  17.884  0.00  0.00    +0.000 N 
ATOM     12  O   UNL     1      46.424   2.965  17.420  0.00  0.00    +0.000 OA
ATOM     13  H   UNL     1      49.538   3.488  17.678  0.00  0.00    +0.000 HD
ATOM     14  H   UNL     1      48.562   2.330  18.568  0.00  0.00    +0.000 HD
ENDBRANCH   6  10
ENDBRANCH   1   2
BRANCH   1  16
ATOM     15  C   UNL     1      45.771   8.452  12.777  0.00  0.00    +0.000 C 
ATOM     16  C   UNL     1      46.300   7.333  11.937  0.00  0.00    +0.000 C 
BRANCH  16  17
ATOM     17  C   UNL     1      45.375   6.368  11.325  0.00  0.00    +0.000 A 
ATOM     18  C   UNL     1      44.065   6.256  11.802  0.00  0.00    +0.000 A 
ATOM     19  C   UNL     1      43.187   5.321  11.257  0.00  0.00    +0.000 A 
ATOM     20  C   UNL     1      43.601   4.502  10.208  0.00  0.00    +0.000 A 
ATOM     21  C   UNL     1      44.899   4.614   9.692  0.00  0.00    +0.000 A 
ATOM     22  C   UNL     1      45.783   5.542  10.269  0.00  0.00    +0.000 A 
BRANCH  21  23
ATOM     23  C   UNL     1      45.347   3.770   8.523  0.00  0.00    +0.000 C 
ATOM     24  F   UNL     1      46.403   4.298   7.844  0.00  0.00    +0.000 F 
ATOM     25  F   UNL     1      45.736   2.521   8.902  0.00  0.00    +0.000 F 
ATOM     26  F   UNL     1      44.362   3.590   7.599  0.00  0.00    +0.000 F 
ENDBRANCH  21  23
ENDBRANCH  16  17
ENDBRANCH   1  16
TORSDOF 5
ENDMDL
MODEL 8
REMARK VINA RESULT:    -6.876      5.406      8.065
REMARK INTER + INTRA:          -9.661
REMARK INTER:                  -9.087
REMARK INTRA:                  -0.573
REMARK UNBOUND:                -0.774
REMARK  Name = 
REMARK  6 active torsions:
REMARK  status: ('A' for Active; 'I' for Inactive)
REMARK    1  A    between atoms: C_1  and  C_2
REMARK    2  A    between atoms: C_2  and  C_3
REMARK    3  A    between atoms: C_2  and  C_14
REMARK    4  A    between atoms: C_3  and  N_4
REMARK    5  A    between atoms: C_8  and  C_9
REMARK    6  A    between atoms: C_18  and  C_19
REMARK                            x       y       z     vdW  Elec       q    Type
REMARK                         _______ _______ _______ _____ _____    ______ ____
ROOT
ATOM      1  C   UNL     1      47.413   6.315  13.467  0.00  0.00    +0.000 C 
ENDROOT
BRANCH   1   2
ATOM      2  N   UNL     1      46.842   5.209  14.230  0.00  0.00    +0.000 N 
ATOM      3  C   UNL     1      47.494   4.989  15.455  0.00  0.00    +0.000 A 
ATOM      4  C   UNL     1      47.069   3.960  16.308  0.00  0.00    +0.000 A 
ATOM      5  N   UNL     1      47.627   3.690  17.521  0.00  0.00    +0.000 NA
ATOM      6  C   UNL     1      48.654   4.519  17.858  0.00  0.00    +0.000 A 
ATOM      7  C   UNL     1      49.084   5.544  17.034  0.00  0.00    +0.000 A 
ATOM      8  N   UNL     1      48.510   5.796  15.831  0.00  0.00    +0.000 NA
ATOM      9  H   UNL     1      46.845   4.349  13.688  0.00  0.00    +0.000 HD
BRANCH   6  10
ATOM     10  C   UNL     1      49.325   4.315  19.169  0.00  0.00    +0.000 C 
ATOM     11  N   UNL     1      48.610   3.626  20.109  0.00  0.00    +0.000 N 
ATOM     12  O   UNL     1      50.449   4.742  19.400  0.00  0.00    +0.000 OA
ATOM     13  H   UNL     1      47.674   3.297  19.900  0.00  0.00    +0.000 HD
ATOM     14  H   UNL     1      49.014   3.478  21.023  0.00  0.00    +0.000 HD
ENDBRANCH   6  10
ENDBRANCH   1   2
BRANCH   1  16
ATOM     15  C   UNL     1      45.958   8.399  13.058  0.00  0.00    +0.000 C 
ATOM     16  C   UNL     1      46.289   6.978  12.731  0.00  0.00    +0.000 C 
BRANCH  16  17
ATOM     17  C   UNL     1      45.359   6.167  11.933  0.00  0.00    +0.000 A 
ATOM     18  C   UNL     1      44.027   6.030  12.338  0.00  0.00    +0.000 A 
ATOM     19  C   UNL     1      43.141   5.235  11.613  0.00  0.00    +0.000 A 
ATOM     20  C   UNL     1      43.571   4.587  10.457  0.00  0.00    +0.000 A 
ATOM     21  C   UNL     1      44.892   4.730  10.012  0.00  0.00    +0.000 A 
ATOM     22  C   UNL     1      45.782   5.513  10.768  0.00  0.00    +0.000 A 
BRANCH  21  23
ATOM     23  C   UNL     1      45.359   4.076   8.735  0.00  0.00    +0.000 C 
ATOM     24  F   UNL     1      46.419   4.705   8.157  0.00  0.00    +0.000 F 
ATOM     25  F   UNL     1      45.753   2.785   8.925  0.00  0.00    +0.000 F 
ATOM     26  F   UNL     1      44.386   4.033   7.782  0.00  0.00    +0.000 F 
ENDBRANCH  21  23
ENDBRANCH  16  17
ENDBRANCH   1  16
TORSDOF 5
ENDMDL
MODEL 9
REMARK VINA RESULT:    -6.860      5.099      7.307
REMARK INTER + INTRA:          -9.639
REMARK INTER:                  -9.035
REMARK INTRA:                  -0.604
REMARK UNBOUND:                -0.774
REMARK  Name = 
REMARK  6 active torsions:
REMARK  status: ('A' for Active; 'I' for Inactive)
REMARK    1  A    between atoms: C_1  and  C_2
REMARK    2  A    between atoms: C_2  and  C_3
REMARK    3  A    between atoms: C_2  and  C_14
REMARK    4  A    between atoms: C_3  and  N_4
REMARK    5  A    between atoms: C_8  and  C_9
REMARK    6  A    between atoms: C_18  and  C_19
REMARK                            x       y       z     vdW  Elec       q    Type
REMARK                         _______ _______ _______ _____ _____    ______ ____
ROOT
ATOM      1  C   UNL     1      45.579   6.267  10.999  0.00  0.00    +0.000 C 
ENDROOT
BRANCH   1   2
ATOM      2  N   UNL     1      45.996   5.824  12.327  0.00  0.00    +0.000 N 
ATOM      3  C   UNL     1      47.214   6.390  12.740  0.00  0.00    +0.000 A 
ATOM      4  C   UNL     1      47.757   6.064  13.992  0.00  0.00    +0.000 A 
ATOM      5  N   UNL     1      48.918   6.581  14.481  0.00  0.00    +0.000 NA
ATOM      6  C   UNL     1      49.530   7.466  13.646  0.00  0.00    +0.000 A 
ATOM      7  C   UNL     1      49.007   7.805  12.410  0.00  0.00    +0.000 A 
ATOM      8  N   UNL     1      47.847   7.280  11.944  0.00  0.00    +0.000 NA
ATOM      9  H   UNL     1      46.063   4.810  12.370  0.00  0.00    +0.000 HD
BRANCH   6  10
ATOM     10  C   UNL     1      50.800   8.097  14.092  0.00  0.00    +0.000 C 
ATOM     11  N   UNL     1      51.831   8.069  13.195  0.00  0.00    +0.000 N 
ATOM     12  O   UNL     1      50.921   8.607  15.198  0.00  0.00    +0.000 OA
ATOM     13  H   UNL     1      51.712   7.626  12.292  0.00  0.00    +0.000 HD
ATOM     14  H   UNL     1      52.722   8.467  13.458  0.00  0.00    +0.000 HD
ENDBRANCH   6  10
ENDBRANCH   1   2
BRANCH   1  16
ATOM     15  C   UNL     1      43.111   5.550  11.148  0.00  0.00    +0.000 C 
ATOM     16  C   UNL     1      44.470   5.363  10.554  0.00  0.00    +0.000 C 
BRANCH  16  17
ATOM     17  C   UNL     1      44.780   4.150   9.785  0.00  0.00    +0.000 A 
ATOM     18  C   UNL     1      44.240   2.920  10.172  0.00  0.00    +0.000 A 
ATOM     19  C   UNL     1      44.553   1.753   9.476  0.00  0.00    +0.000 A 
ATOM     20  C   UNL     1      45.392   1.808   8.365  0.00  0.00    +0.000 A 
ATOM     21  C   UNL     1      45.923   3.032   7.936  0.00  0.00    +0.000 A 
ATOM     22  C   UNL     1      45.621   4.196   8.664  0.00  0.00    +0.000 A 
BRANCH  21  23
ATOM     23  C   UNL     1      46.792   3.115   6.705  0.00  0.00    +0.000 C 
ATOM     24  F   UNL     1      46.435   2.236   5.727  0.00  0.00    +0.000 F 
ATOM     25  F   UNL     1      46.758   4.348   6.126  0.00  0.00    +0.000 F 
ATOM     26  F   UNL     1      48.104   2.863   6.971  0.00  0.00    +0.000 F 
ENDBRANCH  21  23
ENDBRANCH  16  17
ENDBRANCH   1  16
TORSDOF 5
ENDMDL
