MODEL 1
REMARK VINA RESULT:    -9.084      0.000      0.000
REMARK INTER + INTRA:         -13.274
REMARK INTER:                 -12.271
REMARK INTRA:                  -1.003
REMARK UNBOUND:                -1.003
REMARK  Name = 
REMARK  6 active torsions:
REMARK  status: ('A' for Active; 'I' for Inactive)
REMARK    1  A    between atoms: C_2  and  C_4
REMARK    2  A    between atoms: N_8  and  C_9
REMARK    3  A    between atoms: C_9  and  C_10
REMARK    4  A    between atoms: C_10  and  C_13
REMARK    5  A    between atoms: C_17  and  O_18
REMARK    6  A    between atoms: O_18  and  C_19
REMARK                            x       y       z     vdW  Elec       q    Type
REMARK                         _______ _______ _______ _____ _____    ______ ____
ROOT
ATOM      1  C   UNL     1      43.250   4.367  11.082  0.00  0.00    +0.000 C 
ENDROOT
BRANCH   1   6
ATOM      2  C   UNL     1      46.505   2.665   7.468  0.00  0.00    +0.000 A 
ATOM      3  C   UNL     1      46.032   3.944   7.740  0.00  0.00    +0.000 A 
ATOM      4  C   UNL     1      45.122   4.124   8.785  0.00  0.00    +0.000 A 
ATOM      5  C   UNL     1      44.701   3.030   9.536  0.00  0.00    +0.000 A 
ATOM      6  N   UNL     1      43.808   3.122  10.566  0.00  0.00    +0.000 N 
ATOM      7  N   UNL     1      45.149   1.787   9.271  0.00  0.00    +0.000 NA
ATOM      8  C   UNL     1      46.027   1.625   8.246  0.00  0.00    +0.000 A 
ATOM      9  H   UNL     1      43.604   2.243  11.030  0.00  0.00    +0.000 HD
BRANCH   2  11
ATOM     10  N   UNL     1      47.460   3.213   5.301  0.00  0.00    +0.000 N 
ATOM     11  C   UNL     1      47.464   2.377   6.382  0.00  0.00    +0.000 C 
ATOM     12  O   UNL     1      48.249   1.441   6.455  0.00  0.00    +0.000 OA
ATOM     13  H   UNL     1      48.187   3.058   4.613  0.00  0.00    +0.000 HD
ATOM     14  H   UNL     1      47.015   4.120   5.313  0.00  0.00    +0.000 HD
ENDBRANCH   2  11
ENDBRANCH   1   6
BRANCH   1  15
ATOM     15  C   UNL     1      43.616   4.650  12.561  0.00  0.00    +0.000 C 
ATOM     16  F   UNL     1      42.694   5.514  13.083  0.00  0.00    +0.000 F 
ATOM     17  F   UNL     1      43.472   3.495  13.275  0.00  0.00    +0.000 F 
BRANCH  15  18
ATOM     18  C   UNL     1      45.027   5.201  12.646  0.00  0.00    +0.000 A 
ATOM     19  C   UNL     1      45.488   6.145  11.719  0.00  0.00    +0.000 A 
ATOM     20  C   UNL     1      46.770   6.688  11.844  0.00  0.00    +0.000 A 
ATOM     21  C   UNL     1      47.607   6.290  12.889  0.00  0.00    +0.000 A 
ATOM     22  C   UNL     1      47.164   5.340  13.805  0.00  0.00    +0.000 A 
ATOM     23  C   UNL     1      45.879   4.804  13.687  0.00  0.00    +0.000 A 
BRANCH  22  24
ATOM     24  O   UNL     1      47.882   4.890  14.884  0.00  0.00    +0.000 OA
BRANCH  24  25
ATOM     25  C   UNL     1      47.225   4.052  15.861  0.00  0.00    +0.000 C 
ATOM     26  C   UNL     1      47.228   4.505  17.329  0.00  0.00    +0.000 C 
ATOM     27  O   UNL     1      47.843   3.269  17.762  0.00  0.00    +0.000 OA
ATOM     28  C   UNL     1      48.075   2.886  16.388  0.00  0.00    +0.000 C 
ENDBRANCH  24  25
ENDBRANCH  22  24
ENDBRANCH  15  18
ENDBRANCH   1  15
TORSDOF 6
ENDMDL
MODEL 2
REMARK VINA RESULT:    -8.179      1.844      2.162
REMARK INTER + INTRA:         -12.050
REMARK INTER:                 -11.065
REMARK INTRA:                  -0.985
REMARK UNBOUND:                -1.003
REMARK  Name = 
REMARK  6 active torsions:
REMARK  status: ('A' for Active; 'I' for Inactive)
REMARK    1  A    between atoms: C_2  and  C_4
REMARK    2  A    between atoms: N_8  and  C_9
REMARK    3  A    between atoms: C_9  and  C_10
REMARK    4  A    between atoms: C_10  and  C_13
REMARK    5  A    between atoms: C_17  and  O_18
REMARK    6  A    between atoms: O_18  and  C_19
REMARK                            x       y       z     vdW  Elec       q    Type
REMARK                         _______ _______ _______ _____ _____    ______ ____
ROOT
ATOM      1  C   UNL     1      43.427   3.689  11.232  0.00  0.00    +0.000 C 
ENDROOT
BRANCH   1   6
ATOM      2  C   UNL     1      46.578   2.518   7.327  0.00  0.00    +0.000 A 
ATOM      3  C   UNL     1      46.101   3.743   7.778  0.00  0.00    +0.000 A 
ATOM      4  C   UNL     1      45.225   3.773   8.865  0.00  0.00    +0.000 A 
ATOM      5  C   UNL     1      44.840   2.585   9.481  0.00  0.00    +0.000 A 
ATOM      6  N   UNL     1      43.981   2.530  10.542  0.00  0.00    +0.000 N 
ATOM      7  N   UNL     1      45.291   1.394   9.043  0.00  0.00    +0.000 NA
ATOM      8  C   UNL     1      46.137   1.379   7.979  0.00  0.00    +0.000 A 
ATOM      9  H   UNL     1      43.801   1.595  10.894  0.00  0.00    +0.000 HD
BRANCH   2  11
ATOM     10  N   UNL     1      47.405   3.316   5.185  0.00  0.00    +0.000 N 
ATOM     11  C   UNL     1      47.504   2.386   6.183  0.00  0.00    +0.000 C 
ATOM     12  O   UNL     1      48.342   1.495   6.139  0.00  0.00    +0.000 OA
ATOM     13  H   UNL     1      48.109   3.267   4.459  0.00  0.00    +0.000 HD
ATOM     14  H   UNL     1      46.912   4.189   5.299  0.00  0.00    +0.000 HD
ENDBRANCH   2  11
ENDBRANCH   1   6
BRANCH   1  15
ATOM     15  C   UNL     1      44.143   4.023  12.566  0.00  0.00    +0.000 C 
ATOM     16  F   UNL     1      43.199   4.220  13.534  0.00  0.00    +0.000 F 
ATOM     17  F   UNL     1      44.848   2.925  12.970  0.00  0.00    +0.000 F 
BRANCH  15  18
ATOM     18  C   UNL     1      45.034   5.237  12.381  0.00  0.00    +0.000 A 
ATOM     19  C   UNL     1      44.552   6.396  11.758  0.00  0.00    +0.000 A 
ATOM     20  C   UNL     1      45.365   7.527  11.648  0.00  0.00    +0.000 A 
ATOM     21  C   UNL     1      46.669   7.513  12.151  0.00  0.00    +0.000 A 
ATOM     22  C   UNL     1      47.162   6.360  12.757  0.00  0.00    +0.000 A 
ATOM     23  C   UNL     1      46.347   5.232  12.877  0.00  0.00    +0.000 A 
BRANCH  22  24
ATOM     24  O   UNL     1      48.411   6.233  13.309  0.00  0.00    +0.000 OA
BRANCH  24  25
ATOM     25  C   UNL     1      48.897   7.272  14.187  0.00  0.00    +0.000 C 
ATOM     26  C   UNL     1      50.353   7.736  14.031  0.00  0.00    +0.000 C 
ATOM     27  O   UNL     1      50.649   7.443  15.417  0.00  0.00    +0.000 OA
ATOM     28  C   UNL     1      49.369   6.786  15.565  0.00  0.00    +0.000 C 
ENDBRANCH  24  25
ENDBRANCH  22  24
ENDBRANCH  15  18
ENDBRANCH   1  15
TORSDOF 6
ENDMDL
MODEL 3
REMARK VINA RESULT:    -7.977      2.983      4.609
REMARK INTER + INTRA:         -11.778
REMARK INTER:                 -10.795
REMARK INTRA:                  -0.983
REMARK UNBOUND:                -1.003
REMARK  Name = 
REMARK  6 active torsions:
REMARK  status: ('A' for Active; 'I' for Inactive)
REMARK    1  A    between atoms: C_2  and  C_4
REMARK    2  A    between atoms: N_8  and  C_9
REMARK    3  A    between atoms: C_9  and  C_10
REMARK    4  A    between atoms: C_10  and  C_13
REMARK    5  A    between atoms: C_17  and  O_18
REMARK    6  A    between atoms: O_18  and  C_19
REMARK                            x       y       z     vdW  Elec       q    Type
REMARK                         _______ _______ _______ _____ _____    ______ ____
ROOT
ATOM      1  C   UNL     1      43.361   4.601  11.087  0.00  0.00    +0.000 C 
ENDROOT
BRANCH   1   6
ATOM      2  C   UNL     1      46.575   2.758   7.506  0.00  0.00    +0.000 A 
ATOM      3  C   UNL     1      46.214   4.063   7.823  0.00  0.00    +0.000 A 
ATOM      4  C   UNL     1      45.287   4.282   8.845  0.00  0.00    +0.000 A 
ATOM      5  C   UNL     1      44.737   3.201   9.528  0.00  0.00    +0.000 A 
ATOM      6  N   UNL     1      43.819   3.333  10.531  0.00  0.00    +0.000 N 
ATOM      7  N   UNL     1      45.075   1.934   9.219  0.00  0.00    +0.000 NA
ATOM      8  C   UNL     1      45.972   1.735   8.217  0.00  0.00    +0.000 A 
ATOM      9  H   UNL     1      43.515   2.458  10.946  0.00  0.00    +0.000 HD
BRANCH   2  11
ATOM     10  N   UNL     1      47.430   3.105   5.257  0.00  0.00    +0.000 N 
ATOM     11  C   UNL     1      47.542   2.427   6.439  0.00  0.00    +0.000 C 
ATOM     12  O   UNL     1      48.425   1.597   6.613  0.00  0.00    +0.000 OA
ATOM     13  H   UNL     1      48.159   2.936   4.575  0.00  0.00    +0.000 HD
ATOM     14  H   UNL     1      46.890   3.953   5.163  0.00  0.00    +0.000 HD
ENDBRANCH   2  11
ENDBRANCH   1   6
BRANCH   1  15
ATOM     15  C   UNL     1      43.942   4.914  12.490  0.00  0.00    +0.000 C 
ATOM     16  F   UNL     1      42.910   5.200  13.339  0.00  0.00    +0.000 F 
ATOM     17  F   UNL     1      44.515   3.779  12.989  0.00  0.00    +0.000 F 
BRANCH  15  18
ATOM     18  C   UNL     1      44.935   6.058  12.392  0.00  0.00    +0.000 A 
ATOM     19  C   UNL     1      46.304   5.842  12.598  0.00  0.00    +0.000 A 
ATOM     20  C   UNL     1      47.213   6.893  12.445  0.00  0.00    +0.000 A 
ATOM     21  C   UNL     1      46.767   8.169  12.094  0.00  0.00    +0.000 A 
ATOM     22  C   UNL     1      45.406   8.396  11.904  0.00  0.00    +0.000 A 
ATOM     23  C   UNL     1      44.497   7.345  12.046  0.00  0.00    +0.000 A 
BRANCH  22  24
ATOM     24  O   UNL     1      44.852   9.595  11.534  0.00  0.00    +0.000 OA
BRANCH  24  25
ATOM     25  C   UNL     1      43.779   9.601  10.567  0.00  0.00    +0.000 C 
ATOM     26  C   UNL     1      43.807  10.658   9.453  0.00  0.00    +0.000 C 
ATOM     27  O   UNL     1      42.497  11.152   9.818  0.00  0.00    +0.000 OA
ATOM     28  C   UNL     1      42.510  10.340  11.014  0.00  0.00    +0.000 C 
ENDBRANCH  24  25
ENDBRANCH  22  24
ENDBRANCH  15  18
ENDBRANCH   1  15
TORSDOF 6
ENDMDL
MODEL 4
REMARK VINA RESULT:    -7.499      3.230      8.095
REMARK INTER + INTRA:         -11.132
REMARK INTER:                 -10.621
REMARK INTRA:                  -0.510
REMARK UNBOUND:                -1.003
REMARK  Name = 
REMARK  6 active torsions:
REMARK  status: ('A' for Active; 'I' for Inactive)
REMARK    1  A    between atoms: C_2  and  C_4
REMARK    2  A    between atoms: N_8  and  C_9
REMARK    3  A    between atoms: C_9  and  C_10
REMARK    4  A    between atoms: C_10  and  C_13
REMARK    5  A    between atoms: C_17  and  O_18
REMARK    6  A    between atoms: O_18  and  C_19
REMARK                            x       y       z     vdW  Elec       q    Type
REMARK                         _______ _______ _______ _____ _____    ______ ____
ROOT
ATOM      1  C   UNL     1      45.748   5.829  12.906  0.00  0.00    +0.000 C 
ENDROOT
BRANCH   1   6
ATOM      2  C   UNL     1      48.591   4.295  16.920  0.00  0.00    +0.000 A 
ATOM      3  C   UNL     1      47.457   3.738  16.340  0.00  0.00    +0.000 A 
ATOM      4  C   UNL     1      46.862   4.384  15.254  0.00  0.00    +0.000 A 
ATOM      5  C   UNL     1      47.405   5.571  14.769  0.00  0.00    +0.000 A 
ATOM      6  N   UNL     1      46.878   6.267  13.718  0.00  0.00    +0.000 N 
ATOM      7  N   UNL     1      48.498   6.121  15.332  0.00  0.00    +0.000 NA
ATOM      8  C   UNL     1      49.062   5.485  16.394  0.00  0.00    +0.000 A 
ATOM      9  H   UNL     1      47.387   7.108  13.467  0.00  0.00    +0.000 HD
BRANCH   2  11
ATOM     10  N   UNL     1      48.513   3.253  19.115  0.00  0.00    +0.000 N 
ATOM     11  C   UNL     1      49.285   3.686  18.074  0.00  0.00    +0.000 C 
ATOM     12  O   UNL     1      50.502   3.554  18.089  0.00  0.00    +0.000 OA
ATOM     13  H   UNL     1      48.996   2.752  19.851  0.00  0.00    +0.000 HD
ATOM     14  H   UNL     1      47.515   3.117  19.036  0.00  0.00    +0.000 HD
ENDBRANCH   2  11
ENDBRANCH   1   6
BRANCH   1  15
ATOM     15  C   UNL     1      45.861   6.228  11.412  0.00  0.00    +0.000 C 
ATOM     16  F   UNL     1      45.094   7.338  11.195  0.00  0.00    +0.000 F 
ATOM     17  F   UNL     1      47.144   6.622  11.161  0.00  0.00    +0.000 F 
BRANCH  15  18
ATOM     18  C   UNL     1      45.440   5.062  10.536  0.00  0.00    +0.000 A 
ATOM     19  C   UNL     1      44.530   4.104  11.001  0.00  0.00    +0.000 A 
ATOM     20  C   UNL     1      44.106   3.070  10.162  0.00  0.00    +0.000 A 
ATOM     21  C   UNL     1      44.591   2.976   8.855  0.00  0.00    +0.000 A 
ATOM     22  C   UNL     1      45.509   3.914   8.390  0.00  0.00    +0.000 A 
ATOM     23  C   UNL     1      45.925   4.954   9.224  0.00  0.00    +0.000 A 
BRANCH  22  24
ATOM     24  O   UNL     1      46.035   3.941   7.123  0.00  0.00    +0.000 OA
BRANCH  24  25
ATOM     25  C   UNL     1      46.352   2.692   6.470  0.00  0.00    +0.000 C 
ATOM     26  C   UNL     1      47.367   1.755   7.143  0.00  0.00    +0.000 C 
ATOM     27  O   UNL     1      48.209   1.739   5.966  0.00  0.00    +0.000 OA
ATOM     28  C   UNL     1      47.417   2.791   5.368  0.00  0.00    +0.000 C 
ENDBRANCH  24  25
ENDBRANCH  22  24
ENDBRANCH  15  18
ENDBRANCH   1  15
TORSDOF 6
ENDMDL
MODEL 5
REMARK VINA RESULT:    -6.609      3.491      8.157
REMARK INTER + INTRA:          -9.929
REMARK INTER:                  -9.260
REMARK INTRA:                  -0.670
REMARK UNBOUND:                -1.003
REMARK  Name = 
REMARK  6 active torsions:
REMARK  status: ('A' for Active; 'I' for Inactive)
REMARK    1  A    between atoms: C_2  and  C_4
REMARK    2  A    between atoms: N_8  and  C_9
REMARK    3  A    between atoms: C_9  and  C_10
REMARK    4  A    between atoms: C_10  and  C_13
REMARK    5  A    between atoms: C_17  and  O_18
REMARK    6  A    between atoms: O_18  and  C_19
REMARK                            x       y       z     vdW  Elec       q    Type
REMARK                         _______ _______ _______ _____ _____    ______ ____
ROOT
ATOM      1  C   UNL     1      46.328   6.702  11.365  0.00  0.00    +0.000 C 
ENDROOT
BRANCH   1   6
ATOM      2  C   UNL     1      48.749   8.197  15.660  0.00  0.00    +0.000 A 
ATOM      3  C   UNL     1      47.949   8.905  14.770  0.00  0.00    +0.000 A 
ATOM      4  C   UNL     1      47.428   8.248  13.654  0.00  0.00    +0.000 A 
ATOM      5  C   UNL     1      47.713   6.901  13.444  0.00  0.00    +0.000 A 
ATOM      6  N   UNL     1      47.249   6.191  12.373  0.00  0.00    +0.000 N 
ATOM      7  N   UNL     1      48.495   6.212  14.297  0.00  0.00    +0.000 NA
ATOM      8  C   UNL     1      49.003   6.867  15.375  0.00  0.00    +0.000 A 
ATOM      9  H   UNL     1      47.528   5.215  12.358  0.00  0.00    +0.000 HD
BRANCH   2  11
ATOM     10  N   UNL     1      48.563   9.653  17.598  0.00  0.00    +0.000 N 
ATOM     11  C   UNL     1      49.349   8.808  16.864  0.00  0.00    +0.000 C 
ATOM     12  O   UNL     1      50.495   8.551  17.207  0.00  0.00    +0.000 OA
ATOM     13  H   UNL     1      48.957   9.985  18.470  0.00  0.00    +0.000 HD
ATOM     14  H   UNL     1      47.559   9.694  17.494  0.00  0.00    +0.000 HD
ENDBRANCH   2  11
ENDBRANCH   1   6
BRANCH   1  15
ATOM     15  C   UNL     1      44.919   6.056  11.420  0.00  0.00    +0.000 C 
ATOM     16  F   UNL     1      44.615   5.779  12.724  0.00  0.00    +0.000 F 
ATOM     17  F   UNL     1      43.998   6.984  11.025  0.00  0.00    +0.000 F 
BRANCH  15  18
ATOM     18  C   UNL     1      44.888   4.814  10.549  0.00  0.00    +0.000 A 
ATOM     19  C   UNL     1      44.153   3.685  10.933  0.00  0.00    +0.000 A 
ATOM     20  C   UNL     1      44.085   2.570  10.093  0.00  0.00    +0.000 A 
ATOM     21  C   UNL     1      44.753   2.567   8.866  0.00  0.00    +0.000 A 
ATOM     22  C   UNL     1      45.499   3.679   8.484  0.00  0.00    +0.000 A 
ATOM     23  C   UNL     1      45.560   4.798   9.318  0.00  0.00    +0.000 A 
BRANCH  22  24
ATOM     24  O   UNL     1      46.175   3.804   7.297  0.00  0.00    +0.000 OA
BRANCH  24  25
ATOM     25  C   UNL     1      46.485   2.613   6.539  0.00  0.00    +0.000 C 
ATOM     26  C   UNL     1      47.666   1.745   6.996  0.00  0.00    +0.000 C 
ATOM     27  O   UNL     1      48.308   1.848   5.703  0.00  0.00    +0.000 OA
ATOM     28  C   UNL     1      47.348   2.848   5.292  0.00  0.00    +0.000 C 
ENDBRANCH  24  25
ENDBRANCH  22  24
ENDBRANCH  15  18
ENDBRANCH   1  15
TORSDOF 6
ENDMDL
MODEL 6
REMARK VINA RESULT:    -6.518      3.321      4.916
REMARK INTER + INTRA:          -9.806
REMARK INTER:                  -8.894
REMARK INTRA:                  -0.912
REMARK UNBOUND:                -1.003
REMARK  Name = 
REMARK  6 active torsions:
REMARK  status: ('A' for Active; 'I' for Inactive)
REMARK    1  A    between atoms: C_2  and  C_4
REMARK    2  A    between atoms: N_8  and  C_9
REMARK    3  A    between atoms: C_9  and  C_10
REMARK    4  A    between atoms: C_10  and  C_13
REMARK    5  A    between atoms: C_17  and  O_18
REMARK    6  A    between atoms: O_18  and  C_19
REMARK                            x       y       z     vdW  Elec       q    Type
REMARK                         _______ _______ _______ _____ _____    ______ ____
ROOT
ATOM      1  C   UNL     1      46.759   8.792  12.731  0.00  0.00    +0.000 C 
ENDROOT
BRANCH   1   6
ATOM      2  C   UNL     1      44.405   4.423  11.347  0.00  0.00    +0.000 A 
ATOM      3  C   UNL     1      45.212   5.293  10.622  0.00  0.00    +0.000 A 
ATOM      4  C   UNL     1      45.711   6.438  11.249  0.00  0.00    +0.000 A 
ATOM      5  C   UNL     1      45.395   6.694  12.580  0.00  0.00    +0.000 A 
ATOM      6  N   UNL     1      45.836   7.795  13.260  0.00  0.00    +0.000 N 
ATOM      7  N   UNL     1      44.607   5.860  13.285  0.00  0.00    +0.000 NA
ATOM      8  C   UNL     1      44.121   4.754  12.660  0.00  0.00    +0.000 A 
ATOM      9  H   UNL     1      45.536   7.844  14.228  0.00  0.00    +0.000 HD
BRANCH   2  11
ATOM     10  N   UNL     1      44.186   2.871   9.489  0.00  0.00    +0.000 N 
ATOM     11  C   UNL     1      43.828   3.191  10.769  0.00  0.00    +0.000 C 
ATOM     12  O   UNL     1      43.079   2.473  11.416  0.00  0.00    +0.000 OA
ATOM     13  H   UNL     1      43.859   1.976   9.145  0.00  0.00    +0.000 HD
ATOM     14  H   UNL     1      44.976   3.290   9.021  0.00  0.00    +0.000 HD
ENDBRANCH   2  11
ENDBRANCH   1   6
BRANCH   1  15
ATOM     15  C   UNL     1      48.253   8.438  12.948  0.00  0.00    +0.000 C 
ATOM     16  F   UNL     1      48.589   7.415  12.106  0.00  0.00    +0.000 F 
ATOM     17  F   UNL     1      49.015   9.499  12.548  0.00  0.00    +0.000 F 
BRANCH  15  18
ATOM     18  C   UNL     1      48.491   8.081  14.403  0.00  0.00    +0.000 A 
ATOM     19  C   UNL     1      48.395   9.054  15.408  0.00  0.00    +0.000 A 
ATOM     20  C   UNL     1      48.558   8.700  16.750  0.00  0.00    +0.000 A 
ATOM     21  C   UNL     1      48.825   7.375  17.104  0.00  0.00    +0.000 A 
ATOM     22  C   UNL     1      48.938   6.405  16.111  0.00  0.00    +0.000 A 
ATOM     23  C   UNL     1      48.766   6.756  14.770  0.00  0.00    +0.000 A 
BRANCH  22  24
ATOM     24  O   UNL     1      49.172   5.072  16.335  0.00  0.00    +0.000 OA
BRANCH  24  25
ATOM     25  C   UNL     1      48.435   4.397  17.379  0.00  0.00    +0.000 C 
ATOM     26  C   UNL     1      48.317   2.867  17.317  0.00  0.00    +0.000 C 
ATOM     27  O   UNL     1      46.871   2.927  17.345  0.00  0.00    +0.000 OA
ATOM     28  C   UNL     1      46.913   4.362  17.175  0.00  0.00    +0.000 C 
ENDBRANCH  24  25
ENDBRANCH  22  24
ENDBRANCH  15  18
ENDBRANCH   1  15
TORSDOF 6
ENDMDL
MODEL 7
REMARK VINA RESULT:    -6.486      3.731      8.359
REMARK INTER + INTRA:          -9.763
REMARK INTER:                  -9.094
REMARK INTRA:                  -0.669
REMARK UNBOUND:                -1.003
REMARK  Name = 
REMARK  6 active torsions:
REMARK  status: ('A' for Active; 'I' for Inactive)
REMARK    1  A    between atoms: C_2  and  C_4
REMARK    2  A    between atoms: N_8  and  C_9
REMARK    3  A    between atoms: C_9  and  C_10
REMARK    4  A    between atoms: C_10  and  C_13
REMARK    5  A    between atoms: C_17  and  O_18
REMARK    6  A    between atoms: O_18  and  C_19
REMARK                            x       y       z     vdW  Elec       q    Type
REMARK                         _______ _______ _______ _____ _____    ______ ____
ROOT
ATOM      1  C   UNL     1      47.413   5.837  13.322  0.00  0.00    +0.000 C 
ENDROOT
BRANCH   1   6
ATOM      2  C   UNL     1      48.713   4.977  18.233  0.00  0.00    +0.000 A 
ATOM      3  C   UNL     1      48.129   4.145  17.285  0.00  0.00    +0.000 A 
ATOM      4  C   UNL     1      47.860   4.649  16.011  0.00  0.00    +0.000 A 
ATOM      5  C   UNL     1      48.175   5.971  15.706  0.00  0.00    +0.000 A 
ATOM      6  N   UNL     1      47.935   6.541  14.488  0.00  0.00    +0.000 N 
ATOM      7  N   UNL     1      48.732   6.786  16.623  0.00  0.00    +0.000 NA
ATOM      8  C   UNL     1      48.981   6.283  17.862  0.00  0.00    +0.000 A 
ATOM      9  H   UNL     1      48.228   7.509  14.407  0.00  0.00    +0.000 HD
BRANCH   2  11
ATOM     10  N   UNL     1      48.377   3.429  20.077  0.00  0.00    +0.000 N 
ATOM     11  C   UNL     1      49.030   4.534  19.607  0.00  0.00    +0.000 C 
ATOM     12  O   UNL     1      49.861   5.118  20.289  0.00  0.00    +0.000 OA
ATOM     13  H   UNL     1      48.677   3.084  20.980  0.00  0.00    +0.000 HD
ATOM     14  H   UNL     1      47.884   2.788  19.473  0.00  0.00    +0.000 HD
ENDBRANCH   2  11
ENDBRANCH   1   6
BRANCH   1  15
ATOM     15  C   UNL     1      46.309   6.617  12.563  0.00  0.00    +0.000 C 
ATOM     16  F   UNL     1      45.894   7.660  13.342  0.00  0.00    +0.000 F 
ATOM     17  F   UNL     1      46.866   7.194  11.456  0.00  0.00    +0.000 F 
BRANCH  15  18
ATOM     18  C   UNL     1      45.170   5.681  12.206  0.00  0.00    +0.000 A 
ATOM     19  C   UNL     1      44.058   5.548  13.047  0.00  0.00    +0.000 A 
ATOM     20  C   UNL     1      42.988   4.727  12.677  0.00  0.00    +0.000 A 
ATOM     21  C   UNL     1      43.020   4.026  11.469  0.00  0.00    +0.000 A 
ATOM     22  C   UNL     1      44.129   4.140  10.635  0.00  0.00    +0.000 A 
ATOM     23  C   UNL     1      45.194   4.968  10.998  0.00  0.00    +0.000 A 
BRANCH  22  24
ATOM     24  O   UNL     1      44.265   3.523   9.417  0.00  0.00    +0.000 OA
BRANCH  24  25
ATOM     25  C   UNL     1      45.591   3.215   8.933  0.00  0.00    +0.000 C 
ATOM     26  C   UNL     1      45.918   3.515   7.462  0.00  0.00    +0.000 C 
ATOM     27  O   UNL     1      46.305   2.142   7.216  0.00  0.00    +0.000 OA
ATOM     28  C   UNL     1      45.802   1.753   8.514  0.00  0.00    +0.000 C 
ENDBRANCH  24  25
ENDBRANCH  22  24
ENDBRANCH  15  18
ENDBRANCH   1  15
TORSDOF 6
ENDMDL
MODEL 8
REMARK VINA RESULT:    -6.184      3.621      5.463
REMARK INTER + INTRA:          -9.356
REMARK INTER:                  -8.363
REMARK INTRA:                  -0.993
REMARK UNBOUND:                -1.003
REMARK  Name = 
REMARK  6 active torsions:
REMARK  status: ('A' for Active; 'I' for Inactive)
REMARK    1  A    between atoms: C_2  and  C_4
REMARK    2  A    between atoms: N_8  and  C_9
REMARK    3  A    between atoms: C_9  and  C_10
REMARK    4  A    between atoms: C_10  and  C_13
REMARK    5  A    between atoms: C_17  and  O_18
REMARK    6  A    between atoms: O_18  and  C_19
REMARK                            x       y       z     vdW  Elec       q    Type
REMARK                         _______ _______ _______ _____ _____    ______ ____
ROOT
ATOM      1  C   UNL     1      48.852   7.469  12.988  0.00  0.00    +0.000 C 
ENDROOT
BRANCH   1   6
ATOM      2  C   UNL     1      44.818   4.425  11.981  0.00  0.00    +0.000 A 
ATOM      3  C   UNL     1      45.781   4.362  12.982  0.00  0.00    +0.000 A 
ATOM      4  C   UNL     1      46.796   5.321  13.010  0.00  0.00    +0.000 A 
ATOM      5  C   UNL     1      46.834   6.322  12.042  0.00  0.00    +0.000 A 
ATOM      6  N   UNL     1      47.798   7.289  11.996  0.00  0.00    +0.000 N 
ATOM      7  N   UNL     1      45.909   6.383  11.065  0.00  0.00    +0.000 NA
ATOM      8  C   UNL     1      44.931   5.439  11.045  0.00  0.00    +0.000 A 
ATOM      9  H   UNL     1      47.691   7.959  11.242  0.00  0.00    +0.000 HD
BRANCH   2  11
ATOM     10  N   UNL     1      43.847   2.265  12.529  0.00  0.00    +0.000 N 
ATOM     11  C   UNL     1      43.710   3.454  11.868  0.00  0.00    +0.000 C 
ATOM     12  O   UNL     1      42.699   3.711  11.227  0.00  0.00    +0.000 OA
ATOM     13  H   UNL     1      43.040   1.654  12.520  0.00  0.00    +0.000 HD
ATOM     14  H   UNL     1      44.535   2.119  13.254  0.00  0.00    +0.000 HD
ENDBRANCH   2  11
ENDBRANCH   1   6
BRANCH   1  15
ATOM     15  C   UNL     1      48.519   8.529  14.069  0.00  0.00    +0.000 C 
ATOM     16  F   UNL     1      49.158   9.695  13.752  0.00  0.00    +0.000 F 
ATOM     17  F   UNL     1      47.186   8.820  13.999  0.00  0.00    +0.000 F 
BRANCH  15  18
ATOM     18  C   UNL     1      48.918   8.011  15.438  0.00  0.00    +0.000 A 
ATOM     19  C   UNL     1      49.077   8.887  16.520  0.00  0.00    +0.000 A 
ATOM     20  C   UNL     1      49.387   8.390  17.789  0.00  0.00    +0.000 A 
ATOM     21  C   UNL     1      49.549   7.017  17.990  0.00  0.00    +0.000 A 
ATOM     22  C   UNL     1      49.410   6.141  16.917  0.00  0.00    +0.000 A 
ATOM     23  C   UNL     1      49.090   6.636  15.650  0.00  0.00    +0.000 A 
BRANCH  22  24
ATOM     24  O   UNL     1      49.521   4.776  16.994  0.00  0.00    +0.000 OA
BRANCH  24  25
ATOM     25  C   UNL     1      48.579   4.043  17.809  0.00  0.00    +0.000 C 
ATOM     26  C   UNL     1      48.146   2.645  17.344  0.00  0.00    +0.000 C 
ATOM     27  O   UNL     1      46.748   3.017  17.359  0.00  0.00    +0.000 OA
ATOM     28  C   UNL     1      47.105   4.401  17.574  0.00  0.00    +0.000 C 
ENDBRANCH  24  25
ENDBRANCH  22  24
ENDBRANCH  15  18
ENDBRANCH   1  15
TORSDOF 6
ENDMDL
MODEL 9
REMARK VINA RESULT:    -6.119      4.912      7.488
REMARK INTER + INTRA:          -9.268
REMARK INTER:                  -8.168
REMARK INTRA:                  -1.099
REMARK UNBOUND:                -1.003
REMARK  Name = 
REMARK  6 active torsions:
REMARK  status: ('A' for Active; 'I' for Inactive)
REMARK    1  A    between atoms: C_2  and  C_4
REMARK    2  A    between atoms: N_8  and  C_9
REMARK    3  A    between atoms: C_9  and  C_10
REMARK    4  A    between atoms: C_10  and  C_13
REMARK    5  A    between atoms: C_17  and  O_18
REMARK    6  A    between atoms: O_18  and  C_19
REMARK                            x       y       z     vdW  Elec       q    Type
REMARK                         _______ _______ _______ _____ _____    ______ ____
ROOT
ATOM      1  C   UNL     1      49.058   7.948  12.964  0.00  0.00    +0.000 C 
ENDROOT
BRANCH   1   6
ATOM      2  C   UNL     1      47.814   4.625  16.700  0.00  0.00    +0.000 A 
ATOM      3  C   UNL     1      47.432   4.681  15.365  0.00  0.00    +0.000 A 
ATOM      4  C   UNL     1      47.909   5.721  14.564  0.00  0.00    +0.000 A 
ATOM      5  C   UNL     1      48.753   6.686  15.108  0.00  0.00    +0.000 A 
ATOM      6  N   UNL     1      49.253   7.738  14.394  0.00  0.00    +0.000 N 
ATOM      7  N   UNL     1      49.119   6.643  16.403  0.00  0.00    +0.000 NA
ATOM      8  C   UNL     1      48.641   5.629  17.173  0.00  0.00    +0.000 A 
ATOM      9  H   UNL     1      49.865   8.354  14.919  0.00  0.00    +0.000 HD
BRANCH   2  11
ATOM     10  N   UNL     1      48.095   3.359  18.756  0.00  0.00    +0.000 N 
ATOM     11  C   UNL     1      47.357   3.566  17.624  0.00  0.00    +0.000 C 
ATOM     12  O   UNL     1      46.346   2.915  17.399  0.00  0.00    +0.000 OA
ATOM     13  H   UNL     1      47.714   2.699  19.423  0.00  0.00    +0.000 HD
ATOM     14  H   UNL     1      48.774   4.026  19.096  0.00  0.00    +0.000 HD
ENDBRANCH   2  11
ENDBRANCH   1   6
BRANCH   1  15
ATOM     15  C   UNL     1      48.299   9.256  12.622  0.00  0.00    +0.000 C 
ATOM     16  F   UNL     1      48.352  10.090  13.704  0.00  0.00    +0.000 F 
ATOM     17  F   UNL     1      48.977   9.908  11.632  0.00  0.00    +0.000 F 
BRANCH  15  18
ATOM     18  C   UNL     1      46.872   8.932  12.220  0.00  0.00    +0.000 A 
ATOM     19  C   UNL     1      45.945   9.953  11.972  0.00  0.00    +0.000 A 
ATOM     20  C   UNL     1      44.651   9.641  11.544  0.00  0.00    +0.000 A 
ATOM     21  C   UNL     1      44.267   8.310  11.366  0.00  0.00    +0.000 A 
ATOM     22  C   UNL     1      45.177   7.288  11.625  0.00  0.00    +0.000 A 
ATOM     23  C   UNL     1      46.473   7.599  12.043  0.00  0.00    +0.000 A 
BRANCH  22  24
ATOM     24  O   UNL     1      44.926   5.950  11.463  0.00  0.00    +0.000 OA
BRANCH  24  25
ATOM     25  C   UNL     1      44.773   5.119  12.636  0.00  0.00    +0.000 C 
ATOM     26  C   UNL     1      45.048   3.614  12.504  0.00  0.00    +0.000 C 
ATOM     27  O   UNL     1      43.729   3.278  12.995  0.00  0.00    +0.000 OA
ATOM     28  C   UNL     1      43.335   4.667  12.925  0.00  0.00    +0.000 C 
ENDBRANCH  24  25
ENDBRANCH  22  24
ENDBRANCH  15  18
ENDBRANCH   1  15
TORSDOF 6
ENDMDL
