MODEL 1
REMARK VINA RESULT:    -7.491      0.000      0.000
REMARK INTER + INTRA:          -9.430
REMARK INTER:                  -8.805
REMARK INTRA:                  -0.625
REMARK UNBOUND:                -0.625
REMARK  Name = 
REMARK  3 active torsions:
REMARK  status: ('A' for Active; 'I' for Inactive)
REMARK    1  A    between atoms: C_2  and  C_3
REMARK    2  A    between atoms: C_7  and  C_8
REMARK    3  A    between atoms: C_8  and  N_9
REMARK                            x       y       z     vdW  Elec       q    Type
REMARK                         _______ _______ _______ _____ _____    ______ ____
ROOT
ATOM      1  N   UNL     1      44.247   4.159  10.585  0.00  0.00    +0.000 N 
ATOM      2  C   UNL     1      43.524   3.254  11.326  0.00  0.00    +0.000 A 
ATOM      3  C   UNL     1      43.935   3.351  12.634  0.00  0.00    +0.000 A 
ATOM      4  C   UNL     1      44.952   4.341  12.696  0.00  0.00    +0.000 A 
ATOM      5  C   UNL     1      45.759   4.838  13.738  0.00  0.00    +0.000 A 
ATOM      6  C   UNL     1      46.704   5.819  13.445  0.00  0.00    +0.000 A 
ATOM      7  F   UNL     1      47.502   6.268  14.424  0.00  0.00    +0.000 F 
ATOM      8  C   UNL     1      46.845   6.336  12.165  0.00  0.00    +0.000 A 
ATOM      9  C   UNL     1      46.044   5.871  11.120  0.00  0.00    +0.000 A 
ATOM     10  C   UNL     1      45.118   4.854  11.404  0.00  0.00    +0.000 A 
ENDROOT
BRANCH   1  11
ATOM     11  C   UNL     1      44.169   4.277   9.131  0.00  0.00    +0.000 C 
BRANCH  11  16
ATOM     12  C   UNL     1      46.535   1.687   7.641  0.00  0.00    +0.000 A 
ATOM     13  C   UNL     1      47.423   2.477   6.909  0.00  0.00    +0.000 A 
ATOM     14  C   UNL     1      47.301   3.864   6.936  0.00  0.00    +0.000 A 
ATOM     15  C   UNL     1      46.280   4.467   7.674  0.00  0.00    +0.000 A 
ATOM     16  C   UNL     1      45.345   3.693   8.378  0.00  0.00    +0.000 A 
ATOM     17  C   UNL     1      45.498   2.294   8.366  0.00  0.00    +0.000 A 
BRANCH  12  19
ATOM     18  N   UNL     1      46.803  -0.892   7.651  0.00  0.00    +0.000 NA
ATOM     19  C   UNL     1      46.687   0.264   7.653  0.00  0.00    +0.000 C 
ENDBRANCH  12  19
ENDBRANCH  11  16
ENDBRANCH   1  11
TORSDOF 3
ENDMDL
MODEL 2
REMARK VINA RESULT:    -7.072      1.464      1.828
REMARK INTER + INTRA:          -8.937
REMARK INTER:                  -8.355
REMARK INTRA:                  -0.582
REMARK UNBOUND:                -0.625
REMARK  Name = 
REMARK  3 active torsions:
REMARK  status: ('A' for Active; 'I' for Inactive)
REMARK    1  A    between atoms: C_2  and  C_3
REMARK    2  A    between atoms: C_7  and  C_8
REMARK    3  A    between atoms: C_8  and  N_9
REMARK                            x       y       z     vdW  Elec       q    Type
REMARK                         _______ _______ _______ _____ _____    ______ ____
ROOT
ATOM      1  N   UNL     1      44.924   4.348  11.569  0.00  0.00    +0.000 N 
ATOM      2  C   UNL     1      45.608   3.662  12.545  0.00  0.00    +0.000 A 
ATOM      3  C   UNL     1      46.196   4.584  13.379  0.00  0.00    +0.000 A 
ATOM      4  C   UNL     1      45.871   5.878  12.891  0.00  0.00    +0.000 A 
ATOM      5  C   UNL     1      46.214   7.181  13.299  0.00  0.00    +0.000 A 
ATOM      6  C   UNL     1      45.732   8.263  12.564  0.00  0.00    +0.000 A 
ATOM      7  F   UNL     1      46.087   9.505  12.923  0.00  0.00    +0.000 F 
ATOM      8  C   UNL     1      44.903   8.086  11.465  0.00  0.00    +0.000 A 
ATOM      9  C   UNL     1      44.536   6.803  11.053  0.00  0.00    +0.000 A 
ATOM     10  C   UNL     1      45.052   5.710  11.768  0.00  0.00    +0.000 A 
ENDROOT
BRANCH   1  11
ATOM     11  C   UNL     1      44.256   3.712  10.435  0.00  0.00    +0.000 C 
BRANCH  11  16
ATOM     12  C   UNL     1      46.251   1.650   7.926  0.00  0.00    +0.000 A 
ATOM     13  C   UNL     1      46.726   2.625   7.047  0.00  0.00    +0.000 A 
ATOM     14  C   UNL     1      46.454   3.968   7.289  0.00  0.00    +0.000 A 
ATOM     15  C   UNL     1      45.689   4.344   8.395  0.00  0.00    +0.000 A 
ATOM     16  C   UNL     1      45.159   3.381   9.266  0.00  0.00    +0.000 A 
ATOM     17  C   UNL     1      45.466   2.028   9.026  0.00  0.00    +0.000 A 
BRANCH  12  19
ATOM     18  N   UNL     1      46.823  -0.849   7.538  0.00  0.00    +0.000 NA
ATOM     19  C   UNL     1      46.568   0.272   7.705  0.00  0.00    +0.000 C 
ENDBRANCH  12  19
ENDBRANCH  11  16
ENDBRANCH   1  11
TORSDOF 3
ENDMDL
MODEL 3
REMARK VINA RESULT:    -6.912      2.739      5.761
REMARK INTER + INTRA:          -8.750
REMARK INTER:                  -8.249
REMARK INTRA:                  -0.500
REMARK UNBOUND:                -0.625
REMARK  Name = 
REMARK  3 active torsions:
REMARK  status: ('A' for Active; 'I' for Inactive)
REMARK    1  A    between atoms: C_2  and  C_3
REMARK    2  A    between atoms: C_7  and  C_8
REMARK    3  A    between atoms: C_8  and  N_9
REMARK                            x       y       z     vdW  Elec       q    Type
REMARK                         _______ _______ _______ _____ _____    ______ ____
ROOT
ATOM      1  N   UNL     1      44.643   3.563   9.517  0.00  0.00    +0.000 N 
ATOM      2  C   UNL     1      44.158   2.323   9.859  0.00  0.00    +0.000 A 
ATOM      3  C   UNL     1      44.791   1.388   9.075  0.00  0.00    +0.000 A 
ATOM      4  C   UNL     1      45.686   2.080   8.215  0.00  0.00    +0.000 A 
ATOM      5  C   UNL     1      46.557   1.667   7.188  0.00  0.00    +0.000 A 
ATOM      6  C   UNL     1      47.295   2.632   6.506  0.00  0.00    +0.000 A 
ATOM      7  F   UNL     1      48.096   2.250   5.501  0.00  0.00    +0.000 F 
ATOM      8  C   UNL     1      47.215   3.978   6.834  0.00  0.00    +0.000 A 
ATOM      9  C   UNL     1      46.371   4.408   7.860  0.00  0.00    +0.000 A 
ATOM     10  C   UNL     1      45.596   3.442   8.523  0.00  0.00    +0.000 A 
ENDROOT
BRANCH   1  11
ATOM     11  C   UNL     1      44.133   4.821  10.060  0.00  0.00    +0.000 C 
BRANCH  11  16
ATOM     12  C   UNL     1      46.375   4.975  13.137  0.00  0.00    +0.000 A 
ATOM     13  C   UNL     1      46.576   6.348  13.294  0.00  0.00    +0.000 A 
ATOM     14  C   UNL     1      45.940   7.243  12.439  0.00  0.00    +0.000 A 
ATOM     15  C   UNL     1      45.120   6.774  11.411  0.00  0.00    +0.000 A 
ATOM     16  C   UNL     1      44.941   5.399  11.201  0.00  0.00    +0.000 A 
ATOM     17  C   UNL     1      45.567   4.505  12.092  0.00  0.00    +0.000 A 
BRANCH  12  19
ATOM     18  N   UNL     1      47.498   3.302  14.770  0.00  0.00    +0.000 NA
ATOM     19  C   UNL     1      46.991   4.054  14.044  0.00  0.00    +0.000 C 
ENDBRANCH  12  19
ENDBRANCH  11  16
ENDBRANCH   1  11
TORSDOF 3
ENDMDL
MODEL 4
REMARK VINA RESULT:    -6.764      2.894      5.805
REMARK INTER + INTRA:          -8.575
REMARK INTER:                  -8.034
REMARK INTRA:                  -0.541
REMARK UNBOUND:                -0.625
REMARK  Name = 
REMARK  3 active torsions:
REMARK  status: ('A' for Active; 'I' for Inactive)
REMARK    1  A    between atoms: C_2  and  C_3
REMARK    2  A    between atoms: C_7  and  C_8
REMARK    3  A    between atoms: C_8  and  N_9
REMARK                            x       y       z     vdW  Elec       q    Type
REMARK                         _______ _______ _______ _____ _____    ______ ____
ROOT
ATOM      1  N   UNL     1      43.848   4.714  10.956  0.00  0.00    +0.000 N 
ATOM      2  C   UNL     1      43.283   3.695  11.687  0.00  0.00    +0.000 A 
ATOM      3  C   UNL     1      43.682   2.502  11.131  0.00  0.00    +0.000 A 
ATOM      4  C   UNL     1      44.510   2.800  10.015  0.00  0.00    +0.000 A 
ATOM      5  C   UNL     1      45.164   2.005   9.054  0.00  0.00    +0.000 A 
ATOM      6  C   UNL     1      45.895   2.634   8.049  0.00  0.00    +0.000 A 
ATOM      7  F   UNL     1      46.488   1.885   7.108  0.00  0.00    +0.000 F 
ATOM      8  C   UNL     1      46.017   4.015   7.991  0.00  0.00    +0.000 A 
ATOM      9  C   UNL     1      45.391   4.823   8.943  0.00  0.00    +0.000 A 
ATOM     10  C   UNL     1      44.621   4.193   9.935  0.00  0.00    +0.000 A 
ENDROOT
BRANCH   1  11
ATOM     11  C   UNL     1      43.570   6.131  11.176  0.00  0.00    +0.000 C 
BRANCH  11  16
ATOM     12  C   UNL     1      46.705   6.879  13.209  0.00  0.00    +0.000 A 
ATOM     13  C   UNL     1      46.924   8.231  12.939  0.00  0.00    +0.000 A 
ATOM     14  C   UNL     1      46.024   8.932  12.140  0.00  0.00    +0.000 A 
ATOM     15  C   UNL     1      44.917   8.283  11.590  0.00  0.00    +0.000 A 
ATOM     16  C   UNL     1      44.702   6.914  11.806  0.00  0.00    +0.000 A 
ATOM     17  C   UNL     1      45.603   6.224  12.640  0.00  0.00    +0.000 A 
BRANCH  12  19
ATOM     18  N   UNL     1      48.326   5.580  14.762  0.00  0.00    +0.000 NA
ATOM     19  C   UNL     1      47.603   6.168  14.068  0.00  0.00    +0.000 C 
ENDBRANCH  12  19
ENDBRANCH  11  16
ENDBRANCH   1  11
TORSDOF 3
ENDMDL
MODEL 5
REMARK VINA RESULT:    -6.379      3.025      6.291
REMARK INTER + INTRA:          -8.123
REMARK INTER:                  -7.666
REMARK INTRA:                  -0.457
REMARK UNBOUND:                -0.625
REMARK  Name = 
REMARK  3 active torsions:
REMARK  status: ('A' for Active; 'I' for Inactive)
REMARK    1  A    between atoms: C_2  and  C_3
REMARK    2  A    between atoms: C_7  and  C_8
REMARK    3  A    between atoms: C_8  and  N_9
REMARK                            x       y       z     vdW  Elec       q    Type
REMARK                         _______ _______ _______ _____ _____    ______ ____
ROOT
ATOM      1  N   UNL     1      44.129   4.570  12.005  0.00  0.00    +0.000 N 
ATOM      2  C   UNL     1      43.461   3.453  12.447  0.00  0.00    +0.000 A 
ATOM      3  C   UNL     1      43.522   2.501  11.456  0.00  0.00    +0.000 A 
ATOM      4  C   UNL     1      44.241   3.059  10.365  0.00  0.00    +0.000 A 
ATOM      5  C   UNL     1      44.580   2.584   9.084  0.00  0.00    +0.000 A 
ATOM      6  C   UNL     1      45.290   3.419   8.224  0.00  0.00    +0.000 A 
ATOM      7  F   UNL     1      45.583   2.987   6.989  0.00  0.00    +0.000 F 
ATOM      8  C   UNL     1      45.694   4.689   8.611  0.00  0.00    +0.000 A 
ATOM      9  C   UNL     1      45.384   5.175   9.882  0.00  0.00    +0.000 A 
ATOM     10  C   UNL     1      44.634   4.350  10.736  0.00  0.00    +0.000 A 
ENDROOT
BRANCH   1  11
ATOM     11  C   UNL     1      44.190   5.832  12.739  0.00  0.00    +0.000 C 
BRANCH  11  16
ATOM     12  C   UNL     1      47.035   8.367  12.761  0.00  0.00    +0.000 A 
ATOM     13  C   UNL     1      48.092   7.628  13.298  0.00  0.00    +0.000 A 
ATOM     14  C   UNL     1      47.910   6.283  13.605  0.00  0.00    +0.000 A 
ATOM     15  C   UNL     1      46.670   5.674  13.399  0.00  0.00    +0.000 A 
ATOM     16  C   UNL     1      45.580   6.407  12.908  0.00  0.00    +0.000 A 
ATOM     17  C   UNL     1      45.785   7.759  12.574  0.00  0.00    +0.000 A 
BRANCH  12  19
ATOM     18  N   UNL     1      47.390  10.848  12.097  0.00  0.00    +0.000 NA
ATOM     19  C   UNL     1      47.233   9.738  12.401  0.00  0.00    +0.000 C 
ENDBRANCH  12  19
ENDBRANCH  11  16
ENDBRANCH   1  11
TORSDOF 3
ENDMDL
MODEL 6
REMARK VINA RESULT:    -6.210      1.901      2.977
REMARK INTER + INTRA:          -7.924
REMARK INTER:                  -7.521
REMARK INTRA:                  -0.403
REMARK UNBOUND:                -0.625
REMARK  Name = 
REMARK  3 active torsions:
REMARK  status: ('A' for Active; 'I' for Inactive)
REMARK    1  A    between atoms: C_2  and  C_3
REMARK    2  A    between atoms: C_7  and  C_8
REMARK    3  A    between atoms: C_8  and  N_9
REMARK                            x       y       z     vdW  Elec       q    Type
REMARK                         _______ _______ _______ _____ _____    ______ ____
ROOT
ATOM      1  N   UNL     1      45.584   5.603  12.056  0.00  0.00    +0.000 N 
ATOM      2  C   UNL     1      45.343   4.804  13.148  0.00  0.00    +0.000 A 
ATOM      3  C   UNL     1      46.381   4.970  14.035  0.00  0.00    +0.000 A 
ATOM      4  C   UNL     1      47.296   5.893  13.461  0.00  0.00    +0.000 A 
ATOM      5  C   UNL     1      48.538   6.411  13.875  0.00  0.00    +0.000 A 
ATOM      6  C   UNL     1      49.205   7.304  13.040  0.00  0.00    +0.000 A 
ATOM      7  F   UNL     1      50.406   7.770  13.410  0.00  0.00    +0.000 F 
ATOM      8  C   UNL     1      48.662   7.715  11.831  0.00  0.00    +0.000 A 
ATOM      9  C   UNL     1      47.424   7.228  11.407  0.00  0.00    +0.000 A 
ATOM     10  C   UNL     1      46.768   6.297  12.229  0.00  0.00    +0.000 A 
ENDROOT
BRANCH   1  11
ATOM     11  C   UNL     1      44.756   5.619  10.853  0.00  0.00    +0.000 C 
BRANCH  11  16
ATOM     12  C   UNL     1      45.695   3.290   7.985  0.00  0.00    +0.000 A 
ATOM     13  C   UNL     1      45.159   2.070   8.401  0.00  0.00    +0.000 A 
ATOM     14  C   UNL     1      44.436   1.999   9.589  0.00  0.00    +0.000 A 
ATOM     15  C   UNL     1      44.264   3.139  10.377  0.00  0.00    +0.000 A 
ATOM     16  C   UNL     1      44.834   4.366  10.007  0.00  0.00    +0.000 A 
ATOM     17  C   UNL     1      45.538   4.430   8.789  0.00  0.00    +0.000 A 
BRANCH  12  19
ATOM     18  N   UNL     1      46.960   3.438   5.726  0.00  0.00    +0.000 NA
ATOM     19  C   UNL     1      46.398   3.375   6.741  0.00  0.00    +0.000 C 
ENDBRANCH  12  19
ENDBRANCH  11  16
ENDBRANCH   1  11
TORSDOF 3
ENDMDL
MODEL 7
REMARK VINA RESULT:    -5.906      2.639      4.500
REMARK INTER + INTRA:          -7.567
REMARK INTER:                  -7.093
REMARK INTRA:                  -0.474
REMARK UNBOUND:                -0.625
REMARK  Name = 
REMARK  3 active torsions:
REMARK  status: ('A' for Active; 'I' for Inactive)
REMARK    1  A    between atoms: C_2  and  C_3
REMARK    2  A    between atoms: C_7  and  C_8
REMARK    3  A    between atoms: C_8  and  N_9
REMARK                            x       y       z     vdW  Elec       q    Type
REMARK                         _______ _______ _______ _____ _____    ______ ____
ROOT
ATOM      1  N   UNL     1      45.770   6.637  12.914  0.00  0.00    +0.000 N 
ATOM      2  C   UNL     1      46.868   5.892  13.272  0.00  0.00    +0.000 A 
ATOM      3  C   UNL     1      47.975   6.704  13.197  0.00  0.00    +0.000 A 
ATOM      4  C   UNL     1      47.542   7.987  12.766  0.00  0.00    +0.000 A 
ATOM      5  C   UNL     1      48.215   9.189  12.475  0.00  0.00    +0.000 A 
ATOM      6  C   UNL     1      47.472  10.285  12.039  0.00  0.00    +0.000 A 
ATOM      7  F   UNL     1      48.110  11.421  11.723  0.00  0.00    +0.000 F 
ATOM      8  C   UNL     1      46.092  10.226  11.914  0.00  0.00    +0.000 A 
ATOM      9  C   UNL     1      45.402   9.049  12.213  0.00  0.00    +0.000 A 
ATOM     10  C   UNL     1      46.152   7.932  12.616  0.00  0.00    +0.000 A 
ENDROOT
BRANCH   1  11
ATOM     11  C   UNL     1      44.422   6.092  12.769  0.00  0.00    +0.000 C 
BRANCH  11  16
ATOM     12  C   UNL     1      44.930   3.961   9.651  0.00  0.00    +0.000 A 
ATOM     13  C   UNL     1      44.259   2.781   9.981  0.00  0.00    +0.000 A 
ATOM     14  C   UNL     1      43.585   2.684  11.195  0.00  0.00    +0.000 A 
ATOM     15  C   UNL     1      43.594   3.752  12.094  0.00  0.00    +0.000 A 
ATOM     16  C   UNL     1      44.302   4.929  11.808  0.00  0.00    +0.000 A 
ATOM     17  C   UNL     1      44.955   5.026  10.564  0.00  0.00    +0.000 A 
BRANCH  12  19
ATOM     18  N   UNL     1      46.113   4.190   7.355  0.00  0.00    +0.000 NA
ATOM     19  C   UNL     1      45.585   4.080   8.384  0.00  0.00    +0.000 C 
ENDBRANCH  12  19
ENDBRANCH  11  16
ENDBRANCH   1  11
TORSDOF 3
ENDMDL
MODEL 8
REMARK VINA RESULT:    -5.749      3.253      6.214
REMARK INTER + INTRA:          -7.383
REMARK INTER:                  -6.890
REMARK INTRA:                  -0.493
REMARK UNBOUND:                -0.625
REMARK  Name = 
REMARK  3 active torsions:
REMARK  status: ('A' for Active; 'I' for Inactive)
REMARK    1  A    between atoms: C_2  and  C_3
REMARK    2  A    between atoms: C_7  and  C_8
REMARK    3  A    between atoms: C_8  and  N_9
REMARK                            x       y       z     vdW  Elec       q    Type
REMARK                         _______ _______ _______ _____ _____    ______ ____
ROOT
ATOM      1  N   UNL     1      45.151   5.963  12.017  0.00  0.00    +0.000 N 
ATOM      2  C   UNL     1      44.531   5.429  13.122  0.00  0.00    +0.000 A 
ATOM      3  C   UNL     1      44.040   4.192  12.778  0.00  0.00    +0.000 A 
ATOM      4  C   UNL     1      44.359   3.964  11.413  0.00  0.00    +0.000 A 
ATOM      5  C   UNL     1      44.087   2.913  10.516  0.00  0.00    +0.000 A 
ATOM      6  C   UNL     1      44.535   3.019   9.201  0.00  0.00    +0.000 A 
ATOM      7  F   UNL     1      44.246   2.040   8.332  0.00  0.00    +0.000 F 
ATOM      8  C   UNL     1      45.265   4.117   8.767  0.00  0.00    +0.000 A 
ATOM      9  C   UNL     1      45.561   5.164   9.642  0.00  0.00    +0.000 A 
ATOM     10  C   UNL     1      45.077   5.077  10.958  0.00  0.00    +0.000 A 
ENDROOT
BRANCH   1  11
ATOM     11  C   UNL     1      45.704   7.314  11.960  0.00  0.00    +0.000 C 
BRANCH  11  16
ATOM     12  C   UNL     1      48.898   7.184  14.034  0.00  0.00    +0.000 A 
ATOM     13  C   UNL     1      49.884   7.463  13.085  0.00  0.00    +0.000 A 
ATOM     14  C   UNL     1      49.521   7.754  11.773  0.00  0.00    +0.000 A 
ATOM     15  C   UNL     1      48.176   7.746  11.397  0.00  0.00    +0.000 A 
ATOM     16  C   UNL     1      47.170   7.421  12.319  0.00  0.00    +0.000 A 
ATOM     17  C   UNL     1      47.549   7.157  13.649  0.00  0.00    +0.000 A 
BRANCH  12  19
ATOM     18  N   UNL     1      49.555   6.731  16.501  0.00  0.00    +0.000 NA
ATOM     19  C   UNL     1      49.266   6.930  15.393  0.00  0.00    +0.000 C 
ENDBRANCH  12  19
ENDBRANCH  11  16
ENDBRANCH   1  11
TORSDOF 3
ENDMDL
MODEL 9
REMARK VINA RESULT:    -5.701      3.355      6.084
REMARK INTER + INTRA:          -7.326
REMARK INTER:                  -6.788
REMARK INTRA:                  -0.538
REMARK UNBOUND:                -0.625
REMARK  Name = 
REMARK  3 active torsions:
REMARK  status: ('A' for Active; 'I' for Inactive)
REMARK    1  A    between atoms: C_2  and  C_3
REMARK    2  A    between atoms: C_7  and  C_8
REMARK    3  A    between atoms: C_8  and  N_9
REMARK                            x       y       z     vdW  Elec       q    Type
REMARK                         _______ _______ _______ _____ _____    ______ ____
ROOT
ATOM      1  N   UNL     1      45.486   6.008  12.075  0.00  0.00    +0.000 N 
ATOM      2  C   UNL     1      45.052   5.410  13.235  0.00  0.00    +0.000 A 
ATOM      3  C   UNL     1      44.576   4.160  12.916  0.00  0.00    +0.000 A 
ATOM      4  C   UNL     1      44.713   3.990  11.512  0.00  0.00    +0.000 A 
ATOM      5  C   UNL     1      44.369   2.954  10.623  0.00  0.00    +0.000 A 
ATOM      6  C   UNL     1      44.624   3.123   9.264  0.00  0.00    +0.000 A 
ATOM      7  F   UNL     1      44.264   2.157   8.407  0.00  0.00    +0.000 F 
ATOM      8  C   UNL     1      45.234   4.270   8.774  0.00  0.00    +0.000 A 
ATOM      9  C   UNL     1      45.600   5.303   9.639  0.00  0.00    +0.000 A 
ATOM     10  C   UNL     1      45.307   5.152  11.004  0.00  0.00    +0.000 A 
ENDROOT
BRANCH   1  11
ATOM     11  C   UNL     1      45.961   7.387  11.993  0.00  0.00    +0.000 C 
BRANCH  11  16
ATOM     12  C   UNL     1      49.761   7.679  11.984  0.00  0.00    +0.000 A 
ATOM     13  C   UNL     1      50.032   8.113  13.283  0.00  0.00    +0.000 A 
ATOM     14  C   UNL     1      48.992   8.261  14.195  0.00  0.00    +0.000 A 
ATOM     15  C   UNL     1      47.675   7.999  13.811  0.00  0.00    +0.000 A 
ATOM     16  C   UNL     1      47.371   7.609  12.498  0.00  0.00    +0.000 A 
ATOM     17  C   UNL     1      48.436   7.435  11.594  0.00  0.00    +0.000 A 
BRANCH  12  19
ATOM     18  N   UNL     1      51.697   7.319  10.297  0.00  0.00    +0.000 NA
ATOM     19  C   UNL     1      50.834   7.481  11.058  0.00  0.00    +0.000 C 
ENDBRANCH  12  19
ENDBRANCH  11  16
ENDBRANCH   1  11
TORSDOF 3
ENDMDL
