MODEL 1
REMARK VINA RESULT:    -8.170      0.000      0.000
REMARK INTER + INTRA:         -12.140
REMARK INTER:                 -11.991
REMARK INTRA:                  -0.149
REMARK UNBOUND:                -0.149
REMARK  Name = 
REMARK  11 active torsions:
REMARK  status: ('A' for Active; 'I' for Inactive)
REMARK    1  A    between atoms: C_1  and  C_2
REMARK    2  A    between atoms: C_2  and  C_3
REMARK    3  A    between atoms: C_2  and  C_4
REMARK    4  A    between atoms: C_2  and  C_23
REMARK    5  A    between atoms: C_4  and  N_5
REMARK    6  A    between atoms: N_5  and  C_6
REMARK    7  A    between atoms: C_10  and  C_11
REMARK    8  A    between atoms: C_14  and  O_15
REMARK    9  A    between atoms: O_15  and  C_16
REMARK   10  A    between atoms: C_26  and  S_27
REMARK   11  A    between atoms: S_27  and  C_28
REMARK                            x       y       z     vdW  Elec       q    Type
REMARK                         _______ _______ _______ _____ _____    ______ ____
ROOT
ATOM      1  C   UNL     1      44.599   6.431  12.632  0.00  0.00    +0.000 A 
ATOM      2  C   UNL     1      43.339   5.971  13.008  0.00  0.00    +0.000 A 
ATOM      3  N   UNL     1      42.626   5.028  12.350  0.00  0.00    +0.000 NA
ATOM      4  C   UNL     1      43.188   4.532  11.224  0.00  0.00    +0.000 A 
ATOM      5  C   UNL     1      44.425   4.916  10.707  0.00  0.00    +0.000 A 
ATOM      6  C   UNL     1      45.114   5.896  11.443  0.00  0.00    +0.000 A 
ENDROOT
BRANCH   5   7
ATOM      7  C   UNL     1      44.987   4.318   9.479  0.00  0.00    +0.000 A 
ATOM      8  C   UNL     1      44.561   3.064   9.005  0.00  0.00    +0.000 A 
ATOM      9  C   UNL     1      45.055   2.522   7.808  0.00  0.00    +0.000 A 
ATOM     10  C   UNL     1      45.970   3.237   7.043  0.00  0.00    +0.000 A 
ATOM     11  C   UNL     1      46.452   4.451   7.530  0.00  0.00    +0.000 A 
ATOM     12  C   UNL     1      45.962   4.988   8.724  0.00  0.00    +0.000 A 
BRANCH  10  13
ATOM     13  O   UNL     1      46.502   2.850   5.854  0.00  0.00    +0.000 OA
BRANCH  13  14
ATOM     14  C   UNL     1      47.745   2.162   5.832  0.00  0.00    +0.000 C 
ATOM     15  F   UNL     1      48.665   2.644   6.692  0.00  0.00    +0.000 F 
ATOM     16  F   UNL     1      47.523   0.867   6.150  0.00  0.00    +0.000 F 
ATOM     17  F   UNL     1      48.253   2.205   4.582  0.00  0.00    +0.000 F 
ENDBRANCH  13  14
ENDBRANCH  10  13
ENDBRANCH   5   7
BRANCH   1  18
ATOM     18  N   UNL     1      45.309   7.452  13.271  0.00  0.00    +0.000 N 
ATOM     19  H   UNL     1      44.693   8.042  13.832  0.00  0.00    +0.000 HD
BRANCH  18  20
ATOM     20  C   UNL     1      46.317   8.205  12.520  0.00  0.00    +0.000 C 
BRANCH  20  22
ATOM     21  C   UNL     1      48.539   7.370  11.653  0.00  0.00    +0.000 C 
ATOM     22  C   UNL     1      47.772   7.806  12.926  0.00  0.00    +0.000 C 
ATOM     23  C   UNL     1      48.484   9.075  13.455  0.00  0.00    +0.000 C 
BRANCH  22  24
ATOM     24  C   UNL     1      47.745   6.731  14.035  0.00  0.00    +0.000 A 
ATOM     25  C   UNL     1      48.306   6.949  15.306  0.00  0.00    +0.000 A 
ATOM     26  C   UNL     1      48.351   5.935  16.267  0.00  0.00    +0.000 A 
ATOM     27  C   UNL     1      47.822   4.679  15.972  0.00  0.00    +0.000 A 
ATOM     28  C   UNL     1      47.243   4.433  14.728  0.00  0.00    +0.000 A 
ATOM     29  C   UNL     1      47.199   5.455  13.775  0.00  0.00    +0.000 A 
BRANCH  27  30
ATOM     30  S   UNL     1      47.992   3.360  17.148  0.00  0.00    +0.000 S 
ATOM     31  C   UNL     1      48.629   4.160  18.594  0.00  0.00    +0.000 C 
ATOM     32  O   UNL     1      46.656   2.875  17.454  0.00  0.00    +0.000 OA
ATOM     33  O   UNL     1      49.009   2.460  16.645  0.00  0.00    +0.000 OA
ENDBRANCH  27  30
ENDBRANCH  22  24
ENDBRANCH  20  22
ENDBRANCH  18  20
ENDBRANCH   1  18
TORSDOF 8
ENDMDL
MODEL 2
REMARK VINA RESULT:    -7.959      3.896      5.452
REMARK INTER + INTRA:         -11.830
REMARK INTER:                  -9.681
REMARK INTRA:                  -2.148
REMARK UNBOUND:                -0.149
REMARK  Name = 
REMARK  11 active torsions:
REMARK  status: ('A' for Active; 'I' for Inactive)
REMARK    1  A    between atoms: C_1  and  C_2
REMARK    2  A    between atoms: C_2  and  C_3
REMARK    3  A    between atoms: C_2  and  C_4
REMARK    4  A    between atoms: C_2  and  C_23
REMARK    5  A    between atoms: C_4  and  N_5
REMARK    6  A    between atoms: N_5  and  C_6
REMARK    7  A    between atoms: C_10  and  C_11
REMARK    8  A    between atoms: C_14  and  O_15
REMARK    9  A    between atoms: O_15  and  C_16
REMARK   10  A    between atoms: C_26  and  S_27
REMARK   11  A    between atoms: S_27  and  C_28
REMARK                            x       y       z     vdW  Elec       q    Type
REMARK                         _______ _______ _______ _____ _____    ______ ____
ROOT
ATOM      1  C   UNL     1      48.632   9.878  14.461  0.00  0.00    +0.000 A 
ATOM      2  C   UNL     1      49.437  10.351  13.426  0.00  0.00    +0.000 A 
ATOM      3  N   UNL     1      49.472   9.845  12.173  0.00  0.00    +0.000 NA
ATOM      4  C   UNL     1      48.677   8.775  11.938  0.00  0.00    +0.000 A 
ATOM      5  C   UNL     1      47.842   8.174  12.879  0.00  0.00    +0.000 A 
ATOM      6  C   UNL     1      47.852   8.753  14.160  0.00  0.00    +0.000 A 
ENDROOT
BRANCH   5   7
ATOM      7  C   UNL     1      46.987   7.017  12.548  0.00  0.00    +0.000 A 
ATOM      8  C   UNL     1      46.202   6.986  11.381  0.00  0.00    +0.000 A 
ATOM      9  C   UNL     1      45.432   5.863  11.040  0.00  0.00    +0.000 A 
ATOM     10  C   UNL     1      45.450   4.732  11.848  0.00  0.00    +0.000 A 
ATOM     11  C   UNL     1      46.172   4.768  13.040  0.00  0.00    +0.000 A 
ATOM     12  C   UNL     1      46.934   5.888  13.382  0.00  0.00    +0.000 A 
BRANCH  10  13
ATOM     13  O   UNL     1      44.785   3.569  11.621  0.00  0.00    +0.000 OA
BRANCH  13  14
ATOM     14  C   UNL     1      43.407   3.472  11.956  0.00  0.00    +0.000 C 
ATOM     15  F   UNL     1      43.112   3.848  13.217  0.00  0.00    +0.000 F 
ATOM     16  F   UNL     1      42.706   4.267  11.115  0.00  0.00    +0.000 F 
ATOM     17  F   UNL     1      42.994   2.200  11.772  0.00  0.00    +0.000 F 
ENDBRANCH  13  14
ENDBRANCH  10  13
ENDBRANCH   5   7
BRANCH   1  18
ATOM     18  N   UNL     1      48.642  10.357  15.775  0.00  0.00    +0.000 N 
ATOM     19  H   UNL     1      48.543  11.372  15.804  0.00  0.00    +0.000 HD
BRANCH  18  20
ATOM     20  C   UNL     1      49.634   9.837  16.720  0.00  0.00    +0.000 C 
BRANCH  20  22
ATOM     21  C   UNL     1      49.793   9.472  19.216  0.00  0.00    +0.000 C 
ATOM     22  C   UNL     1      48.967   9.141  17.949  0.00  0.00    +0.000 C 
ATOM     23  C   UNL     1      47.571   9.777  18.156  0.00  0.00    +0.000 C 
BRANCH  22  24
ATOM     24  C   UNL     1      48.808   7.626  17.688  0.00  0.00    +0.000 A 
ATOM     25  C   UNL     1      49.479   6.972  16.639  0.00  0.00    +0.000 A 
ATOM     26  C   UNL     1      49.255   5.619  16.362  0.00  0.00    +0.000 A 
ATOM     27  C   UNL     1      48.358   4.894  17.144  0.00  0.00    +0.000 A 
ATOM     28  C   UNL     1      47.689   5.506  18.202  0.00  0.00    +0.000 A 
ATOM     29  C   UNL     1      47.923   6.858  18.474  0.00  0.00    +0.000 A 
BRANCH  27  30
ATOM     30  S   UNL     1      47.984   3.212  16.714  0.00  0.00    +0.000 S 
ATOM     31  C   UNL     1      49.349   2.293  17.369  0.00  0.00    +0.000 C 
ATOM     32  O   UNL     1      46.790   2.830  17.449  0.00  0.00    +0.000 OA
ATOM     33  O   UNL     1      48.027   3.115  15.269  0.00  0.00    +0.000 OA
ENDBRANCH  27  30
ENDBRANCH  22  24
ENDBRANCH  20  22
ENDBRANCH  18  20
ENDBRANCH   1  18
TORSDOF 8
ENDMDL
MODEL 3
REMARK VINA RESULT:    -7.767      4.631      7.719
REMARK INTER + INTRA:         -11.549
REMARK INTER:                 -10.248
REMARK INTRA:                  -1.302
REMARK UNBOUND:                -0.149
REMARK  Name = 
REMARK  11 active torsions:
REMARK  status: ('A' for Active; 'I' for Inactive)
REMARK    1  A    between atoms: C_1  and  C_2
REMARK    2  A    between atoms: C_2  and  C_3
REMARK    3  A    between atoms: C_2  and  C_4
REMARK    4  A    between atoms: C_2  and  C_23
REMARK    5  A    between atoms: C_4  and  N_5
REMARK    6  A    between atoms: N_5  and  C_6
REMARK    7  A    between atoms: C_10  and  C_11
REMARK    8  A    between atoms: C_14  and  O_15
REMARK    9  A    between atoms: O_15  and  C_16
REMARK   10  A    between atoms: C_26  and  S_27
REMARK   11  A    between atoms: S_27  and  C_28
REMARK                            x       y       z     vdW  Elec       q    Type
REMARK                         _______ _______ _______ _____ _____    ______ ____
ROOT
ATOM      1  C   UNL     1      45.404   8.102  12.525  0.00  0.00    +0.000 A 
ATOM      2  C   UNL     1      44.844   9.377  12.463  0.00  0.00    +0.000 A 
ATOM      3  N   UNL     1      45.508  10.502  12.111  0.00  0.00    +0.000 NA
ATOM      4  C   UNL     1      46.824  10.358  11.835  0.00  0.00    +0.000 A 
ATOM      5  C   UNL     1      47.528   9.155  11.885  0.00  0.00    +0.000 A 
ATOM      6  C   UNL     1      46.777   8.024  12.252  0.00  0.00    +0.000 A 
ENDROOT
BRANCH   5   7
ATOM      7  C   UNL     1      48.964   9.068  11.553  0.00  0.00    +0.000 A 
ATOM      8  C   UNL     1      49.726  10.212  11.255  0.00  0.00    +0.000 A 
ATOM      9  C   UNL     1      51.103  10.134  10.994  0.00  0.00    +0.000 A 
ATOM     10  C   UNL     1      51.756   8.908  11.050  0.00  0.00    +0.000 A 
ATOM     11  C   UNL     1      51.006   7.755  11.280  0.00  0.00    +0.000 A 
ATOM     12  C   UNL     1      49.634   7.834  11.535  0.00  0.00    +0.000 A 
BRANCH  10  13
ATOM     13  O   UNL     1      53.083   8.693  10.855  0.00  0.00    +0.000 OA
BRANCH  13  14
ATOM     14  C   UNL     1      53.626   8.802   9.546  0.00  0.00    +0.000 C 
ATOM     15  F   UNL     1      53.066   7.977   8.638  0.00  0.00    +0.000 F 
ATOM     16  F   UNL     1      53.447  10.071   9.114  0.00  0.00    +0.000 F 
ATOM     17  F   UNL     1      54.954   8.559   9.595  0.00  0.00    +0.000 F 
ENDBRANCH  13  14
ENDBRANCH  10  13
ENDBRANCH   5   7
BRANCH   1  18
ATOM     18  N   UNL     1      44.738   6.948  12.952  0.00  0.00    +0.000 N 
ATOM     19  H   UNL     1      44.528   6.985  13.949  0.00  0.00    +0.000 HD
BRANCH  18  20
ATOM     20  C   UNL     1      45.213   5.637  12.501  0.00  0.00    +0.000 C 
BRANCH  20  22
ATOM     21  C   UNL     1      43.454   3.829  12.652  0.00  0.00    +0.000 C 
ATOM     22  C   UNL     1      44.118   4.858  11.705  0.00  0.00    +0.000 C 
ATOM     23  C   UNL     1      43.013   5.865  11.305  0.00  0.00    +0.000 C 
BRANCH  22  24
ATOM     24  C   UNL     1      44.726   4.228  10.431  0.00  0.00    +0.000 A 
ATOM     25  C   UNL     1      44.660   2.848  10.171  0.00  0.00    +0.000 A 
ATOM     26  C   UNL     1      45.293   2.285   9.059  0.00  0.00    +0.000 A 
ATOM     27  C   UNL     1      45.997   3.103   8.177  0.00  0.00    +0.000 A 
ATOM     28  C   UNL     1      46.069   4.478   8.395  0.00  0.00    +0.000 A 
ATOM     29  C   UNL     1      45.429   5.032   9.507  0.00  0.00    +0.000 A 
BRANCH  27  30
ATOM     30  S   UNL     1      46.901   2.369   6.836  0.00  0.00    +0.000 S 
ATOM     31  C   UNL     1      46.978   0.652   7.265  0.00  0.00    +0.000 C 
ATOM     32  O   UNL     1      46.084   2.497   5.640  0.00  0.00    +0.000 OA
ATOM     33  O   UNL     1      48.245   2.905   6.875  0.00  0.00    +0.000 OA
ENDBRANCH  27  30
ENDBRANCH  22  24
ENDBRANCH  20  22
ENDBRANCH  18  20
ENDBRANCH   1  18
TORSDOF 8
ENDMDL
MODEL 4
REMARK VINA RESULT:    -7.760      1.636      1.979
REMARK INTER + INTRA:         -11.538
REMARK INTER:                 -10.384
REMARK INTRA:                  -1.154
REMARK UNBOUND:                -0.149
REMARK  Name = 
REMARK  11 active torsions:
REMARK  status: ('A' for Active; 'I' for Inactive)
REMARK    1  A    between atoms: C_1  and  C_2
REMARK    2  A    between atoms: C_2  and  C_3
REMARK    3  A    between atoms: C_2  and  C_4
REMARK    4  A    between atoms: C_2  and  C_23
REMARK    5  A    between atoms: C_4  and  N_5
REMARK    6  A    between atoms: N_5  and  C_6
REMARK    7  A    between atoms: C_10  and  C_11
REMARK    8  A    between atoms: C_14  and  O_15
REMARK    9  A    between atoms: O_15  and  C_16
REMARK   10  A    between atoms: C_26  and  S_27
REMARK   11  A    between atoms: S_27  and  C_28
REMARK                            x       y       z     vdW  Elec       q    Type
REMARK                         _______ _______ _______ _____ _____    ______ ____
ROOT
ATOM      1  C   UNL     1      44.726   6.481  12.732  0.00  0.00    +0.000 A 
ATOM      2  C   UNL     1      43.578   5.884  13.250  0.00  0.00    +0.000 A 
ATOM      3  N   UNL     1      42.931   4.832  12.699  0.00  0.00    +0.000 NA
ATOM      4  C   UNL     1      43.438   4.360  11.537  0.00  0.00    +0.000 A 
ATOM      5  C   UNL     1      44.559   4.873  10.883  0.00  0.00    +0.000 A 
ATOM      6  C   UNL     1      45.186   5.963  11.513  0.00  0.00    +0.000 A 
ENDROOT
BRANCH   5   7
ATOM      7  C   UNL     1      45.069   4.296   9.623  0.00  0.00    +0.000 A 
ATOM      8  C   UNL     1      44.653   3.033   9.166  0.00  0.00    +0.000 A 
ATOM      9  C   UNL     1      45.096   2.510   7.940  0.00  0.00    +0.000 A 
ATOM     10  C   UNL     1      45.947   3.254   7.130  0.00  0.00    +0.000 A 
ATOM     11  C   UNL     1      46.420   4.479   7.597  0.00  0.00    +0.000 A 
ATOM     12  C   UNL     1      45.983   4.997   8.820  0.00  0.00    +0.000 A 
BRANCH  10  13
ATOM     13  O   UNL     1      46.423   2.887   5.912  0.00  0.00    +0.000 OA
BRANCH  13  14
ATOM     14  C   UNL     1      47.643   2.164   5.824  0.00  0.00    +0.000 C 
ATOM     15  F   UNL     1      48.212   2.175   4.601  0.00  0.00    +0.000 F 
ATOM     16  F   UNL     1      48.526   2.708   6.693  0.00  0.00    +0.000 F 
ATOM     17  F   UNL     1      47.428   0.883   6.193  0.00  0.00    +0.000 F 
ENDBRANCH  13  14
ENDBRANCH  10  13
ENDBRANCH   5   7
BRANCH   1  18
ATOM     18  N   UNL     1      45.358   7.609  13.263  0.00  0.00    +0.000 N 
ATOM     19  H   UNL     1      44.757   8.097  13.927  0.00  0.00    +0.000 HD
BRANCH  18  20
ATOM     20  C   UNL     1      46.094   8.508  12.368  0.00  0.00    +0.000 C 
BRANCH  20  22
ATOM     21  C   UNL     1      48.204   7.412  11.513  0.00  0.00    +0.000 C 
ATOM     22  C   UNL     1      47.640   8.397  12.565  0.00  0.00    +0.000 C 
ATOM     23  C   UNL     1      48.259   9.780  12.250  0.00  0.00    +0.000 C 
BRANCH  22  24
ATOM     24  C   UNL     1      47.969   8.006  14.023  0.00  0.00    +0.000 A 
ATOM     25  C   UNL     1      48.039   8.956  15.058  0.00  0.00    +0.000 A 
ATOM     26  C   UNL     1      48.425   8.596  16.353  0.00  0.00    +0.000 A 
ATOM     27  C   UNL     1      48.740   7.268  16.636  0.00  0.00    +0.000 A 
ATOM     28  C   UNL     1      48.665   6.297  15.638  0.00  0.00    +0.000 A 
ATOM     29  C   UNL     1      48.273   6.666  14.348  0.00  0.00    +0.000 A 
BRANCH  27  30
ATOM     30  S   UNL     1      49.349   6.838  18.248  0.00  0.00    +0.000 S 
ATOM     31  C   UNL     1      47.879   6.639  19.217  0.00  0.00    +0.000 C 
ATOM     32  O   UNL     1      49.994   5.540  18.138  0.00  0.00    +0.000 OA
ATOM     33  O   UNL     1      50.073   7.984  18.757  0.00  0.00    +0.000 OA
ENDBRANCH  27  30
ENDBRANCH  22  24
ENDBRANCH  20  22
ENDBRANCH  18  20
ENDBRANCH   1  18
TORSDOF 8
ENDMDL
MODEL 5
REMARK VINA RESULT:    -7.733      4.793      9.296
REMARK INTER + INTRA:         -11.499
REMARK INTER:                 -10.334
REMARK INTRA:                  -1.165
REMARK UNBOUND:                -0.149
REMARK  Name = 
REMARK  11 active torsions:
REMARK  status: ('A' for Active; 'I' for Inactive)
REMARK    1  A    between atoms: C_1  and  C_2
REMARK    2  A    between atoms: C_2  and  C_3
REMARK    3  A    between atoms: C_2  and  C_4
REMARK    4  A    between atoms: C_2  and  C_23
REMARK    5  A    between atoms: C_4  and  N_5
REMARK    6  A    between atoms: N_5  and  C_6
REMARK    7  A    between atoms: C_10  and  C_11
REMARK    8  A    between atoms: C_14  and  O_15
REMARK    9  A    between atoms: O_15  and  C_16
REMARK   10  A    between atoms: C_26  and  S_27
REMARK   11  A    between atoms: S_27  and  C_28
REMARK                            x       y       z     vdW  Elec       q    Type
REMARK                         _______ _______ _______ _____ _____    ______ ____
ROOT
ATOM      1  C   UNL     1      46.712   6.573  12.594  0.00  0.00    +0.000 A 
ATOM      2  C   UNL     1      47.472   7.442  11.813  0.00  0.00    +0.000 A 
ATOM      3  N   UNL     1      48.685   7.935  12.153  0.00  0.00    +0.000 NA
ATOM      4  C   UNL     1      49.162   7.568  13.365  0.00  0.00    +0.000 A 
ATOM      5  C   UNL     1      48.503   6.732  14.267  0.00  0.00    +0.000 A 
ATOM      6  C   UNL     1      47.249   6.252  13.848  0.00  0.00    +0.000 A 
ENDROOT
BRANCH   5   7
ATOM      7  C   UNL     1      49.092   6.358  15.569  0.00  0.00    +0.000 A 
ATOM      8  C   UNL     1      48.440   5.476  16.449  0.00  0.00    +0.000 A 
ATOM      9  C   UNL     1      49.026   5.077  17.661  0.00  0.00    +0.000 A 
ATOM     10  C   UNL     1      50.292   5.535  18.008  0.00  0.00    +0.000 A 
ATOM     11  C   UNL     1      50.924   6.460  17.179  0.00  0.00    +0.000 A 
ATOM     12  C   UNL     1      50.338   6.860  15.975  0.00  0.00    +0.000 A 
BRANCH  10  13
ATOM     13  O   UNL     1      50.988   5.205  19.128  0.00  0.00    +0.000 OA
BRANCH  13  14
ATOM     14  C   UNL     1      52.030   4.242  19.047  0.00  0.00    +0.000 C 
ATOM     15  F   UNL     1      51.712   3.131  18.351  0.00  0.00    +0.000 F 
ATOM     16  F   UNL     1      53.096   4.815  18.441  0.00  0.00    +0.000 F 
ATOM     17  F   UNL     1      52.400   3.883  20.295  0.00  0.00    +0.000 F 
ENDBRANCH  13  14
ENDBRANCH  10  13
ENDBRANCH   5   7
BRANCH   1  18
ATOM     18  N   UNL     1      45.430   6.115  12.276  0.00  0.00    +0.000 N 
ATOM     19  H   UNL     1      44.710   6.651  12.760  0.00  0.00    +0.000 HD
BRANCH  18  20
ATOM     20  C   UNL     1      45.169   4.673  12.251  0.00  0.00    +0.000 C 
BRANCH  20  22
ATOM     21  C   UNL     1      43.069   3.351  11.774  0.00  0.00    +0.000 C 
ATOM     22  C   UNL     1      44.134   4.282  11.147  0.00  0.00    +0.000 C 
ATOM     23  C   UNL     1      43.393   5.570  10.713  0.00  0.00    +0.000 C 
BRANCH  22  24
ATOM     24  C   UNL     1      44.857   3.669   9.927  0.00  0.00    +0.000 A 
ATOM     25  C   UNL     1      44.979   2.279   9.748  0.00  0.00    +0.000 A 
ATOM     26  C   UNL     1      45.713   1.743   8.685  0.00  0.00    +0.000 A 
ATOM     27  C   UNL     1      46.331   2.596   7.772  0.00  0.00    +0.000 A 
ATOM     28  C   UNL     1      46.216   3.978   7.909  0.00  0.00    +0.000 A 
ATOM     29  C   UNL     1      45.477   4.505   8.973  0.00  0.00    +0.000 A 
BRANCH  27  30
ATOM     30  S   UNL     1      47.362   1.914   6.497  0.00  0.00    +0.000 S 
ATOM     31  C   UNL     1      46.868   2.788   5.038  0.00  0.00    +0.000 C 
ATOM     32  O   UNL     1      48.734   2.286   6.802  0.00  0.00    +0.000 OA
ATOM     33  O   UNL     1      46.990   0.523   6.338  0.00  0.00    +0.000 OA
ENDBRANCH  27  30
ENDBRANCH  22  24
ENDBRANCH  20  22
ENDBRANCH  18  20
ENDBRANCH   1  18
TORSDOF 8
ENDMDL
MODEL 6
REMARK VINA RESULT:    -7.493      3.302      4.452
REMARK INTER + INTRA:         -11.147
REMARK INTER:                  -9.887
REMARK INTRA:                  -1.260
REMARK UNBOUND:                -0.149
REMARK  Name = 
REMARK  11 active torsions:
REMARK  status: ('A' for Active; 'I' for Inactive)
REMARK    1  A    between atoms: C_1  and  C_2
REMARK    2  A    between atoms: C_2  and  C_3
REMARK    3  A    between atoms: C_2  and  C_4
REMARK    4  A    between atoms: C_2  and  C_23
REMARK    5  A    between atoms: C_4  and  N_5
REMARK    6  A    between atoms: N_5  and  C_6
REMARK    7  A    between atoms: C_10  and  C_11
REMARK    8  A    between atoms: C_14  and  O_15
REMARK    9  A    between atoms: O_15  and  C_16
REMARK   10  A    between atoms: C_26  and  S_27
REMARK   11  A    between atoms: S_27  and  C_28
REMARK                            x       y       z     vdW  Elec       q    Type
REMARK                         _______ _______ _______ _____ _____    ______ ____
ROOT
ATOM      1  C   UNL     1      44.928   6.527  12.739  0.00  0.00    +0.000 A 
ATOM      2  C   UNL     1      43.716   6.032  13.218  0.00  0.00    +0.000 A 
ATOM      3  N   UNL     1      43.000   5.038  12.645  0.00  0.00    +0.000 NA
ATOM      4  C   UNL     1      43.503   4.522  11.500  0.00  0.00    +0.000 A 
ATOM      5  C   UNL     1      44.685   4.934  10.885  0.00  0.00    +0.000 A 
ATOM      6  C   UNL     1      45.382   5.968  11.537  0.00  0.00    +0.000 A 
ENDROOT
BRANCH   5   7
ATOM      7  C   UNL     1      45.185   4.313   9.643  0.00  0.00    +0.000 A 
ATOM      8  C   UNL     1      44.858   2.990   9.293  0.00  0.00    +0.000 A 
ATOM      9  C   UNL     1      45.289   2.419   8.085  0.00  0.00    +0.000 A 
ATOM     10  C   UNL     1      46.037   3.170   7.185  0.00  0.00    +0.000 A 
ATOM     11  C   UNL     1      46.425   4.460   7.544  0.00  0.00    +0.000 A 
ATOM     12  C   UNL     1      46.000   5.026   8.749  0.00  0.00    +0.000 A 
BRANCH  10  13
ATOM     13  O   UNL     1      46.488   2.757   5.971  0.00  0.00    +0.000 OA
BRANCH  13  14
ATOM     14  C   UNL     1      47.762   2.137   5.871  0.00  0.00    +0.000 C 
ATOM     15  F   UNL     1      48.710   2.675   6.665  0.00  0.00    +0.000 F 
ATOM     16  F   UNL     1      47.632   0.834   6.211  0.00  0.00    +0.000 F 
ATOM     17  F   UNL     1      48.184   2.195   4.589  0.00  0.00    +0.000 F 
ENDBRANCH  13  14
ENDBRANCH  10  13
ENDBRANCH   5   7
BRANCH   1  18
ATOM     18  N   UNL     1      45.637   7.598  13.291  0.00  0.00    +0.000 N 
ATOM     19  H   UNL     1      45.018   8.372  13.532  0.00  0.00    +0.000 HD
BRANCH  18  20
ATOM     20  C   UNL     1      46.893   8.025  12.669  0.00  0.00    +0.000 C 
BRANCH  20  22
ATOM     21  C   UNL     1      47.916   8.840  14.831  0.00  0.00    +0.000 C 
ATOM     22  C   UNL     1      48.110   7.874  13.637  0.00  0.00    +0.000 C 
ATOM     23  C   UNL     1      48.079   6.441  14.221  0.00  0.00    +0.000 C 
BRANCH  22  24
ATOM     24  C   UNL     1      49.435   8.089  12.872  0.00  0.00    +0.000 A 
ATOM     25  C   UNL     1      49.645   7.581  11.577  0.00  0.00    +0.000 A 
ATOM     26  C   UNL     1      50.881   7.709  10.936  0.00  0.00    +0.000 A 
ATOM     27  C   UNL     1      51.930   8.361  11.581  0.00  0.00    +0.000 A 
ATOM     28  C   UNL     1      51.752   8.892  12.858  0.00  0.00    +0.000 A 
ATOM     29  C   UNL     1      50.511   8.763  13.489  0.00  0.00    +0.000 A 
BRANCH  27  30
ATOM     30  S   UNL     1      53.531   8.413  10.815  0.00  0.00    +0.000 S 
ATOM     31  C   UNL     1      54.285   9.860  11.503  0.00  0.00    +0.000 C 
ATOM     32  O   UNL     1      54.274   7.254  11.281  0.00  0.00    +0.000 OA
ATOM     33  O   UNL     1      53.326   8.640   9.399  0.00  0.00    +0.000 OA
ENDBRANCH  27  30
ENDBRANCH  22  24
ENDBRANCH  20  22
ENDBRANCH  18  20
ENDBRANCH   1  18
TORSDOF 8
ENDMDL
MODEL 7
REMARK VINA RESULT:    -7.481      5.029      8.749
REMARK INTER + INTRA:         -11.129
REMARK INTER:                  -9.993
REMARK INTRA:                  -1.136
REMARK UNBOUND:                -0.149
REMARK  Name = 
REMARK  11 active torsions:
REMARK  status: ('A' for Active; 'I' for Inactive)
REMARK    1  A    between atoms: C_1  and  C_2
REMARK    2  A    between atoms: C_2  and  C_3
REMARK    3  A    between atoms: C_2  and  C_4
REMARK    4  A    between atoms: C_2  and  C_23
REMARK    5  A    between atoms: C_4  and  N_5
REMARK    6  A    between atoms: N_5  and  C_6
REMARK    7  A    between atoms: C_10  and  C_11
REMARK    8  A    between atoms: C_14  and  O_15
REMARK    9  A    between atoms: O_15  and  C_16
REMARK   10  A    between atoms: C_26  and  S_27
REMARK   11  A    between atoms: S_27  and  C_28
REMARK                            x       y       z     vdW  Elec       q    Type
REMARK                         _______ _______ _______ _____ _____    ______ ____
ROOT
ATOM      1  C   UNL     1      48.813   6.311  16.986  0.00  0.00    +0.000 A 
ATOM      2  C   UNL     1      47.885   6.148  18.012  0.00  0.00    +0.000 A 
ATOM      3  N   UNL     1      47.937   5.187  18.963  0.00  0.00    +0.000 NA
ATOM      4  C   UNL     1      48.962   4.310  18.871  0.00  0.00    +0.000 A 
ATOM      5  C   UNL     1      49.948   4.328  17.885  0.00  0.00    +0.000 A 
ATOM      6  C   UNL     1      49.836   5.355  16.930  0.00  0.00    +0.000 A 
ENDROOT
BRANCH   5   7
ATOM      7  C   UNL     1      51.051   3.346  17.855  0.00  0.00    +0.000 A 
ATOM      8  C   UNL     1      52.342   3.670  18.310  0.00  0.00    +0.000 A 
ATOM      9  C   UNL     1      53.375   2.720  18.333  0.00  0.00    +0.000 A 
ATOM     10  C   UNL     1      53.132   1.414  17.924  0.00  0.00    +0.000 A 
ATOM     11  C   UNL     1      51.877   1.092  17.410  0.00  0.00    +0.000 A 
ATOM     12  C   UNL     1      50.850   2.040  17.383  0.00  0.00    +0.000 A 
BRANCH  10  13
ATOM     13  O   UNL     1      54.025   0.390  17.926  0.00  0.00    +0.000 OA
BRANCH  13  14
ATOM     14  C   UNL     1      54.764   0.100  16.747  0.00  0.00    +0.000 C 
ATOM     15  F   UNL     1      55.314   1.179  16.154  0.00  0.00    +0.000 F 
ATOM     16  F   UNL     1      55.767  -0.749  17.068  0.00  0.00    +0.000 F 
ATOM     17  F   UNL     1      53.957  -0.522  15.860  0.00  0.00    +0.000 F 
ENDBRANCH  13  14
ENDBRANCH  10  13
ENDBRANCH   5   7
BRANCH   1  18
ATOM     18  N   UNL     1      48.726   7.261  15.963  0.00  0.00    +0.000 N 
ATOM     19  H   UNL     1      47.782   7.639  15.883  0.00  0.00    +0.000 HD
BRANCH  18  20
ATOM     20  C   UNL     1      49.357   6.983  14.669  0.00  0.00    +0.000 C 
BRANCH  20  22
ATOM     21  C   UNL     1      47.967   8.954  13.914  0.00  0.00    +0.000 C 
ATOM     22  C   UNL     1      48.545   7.585  13.478  0.00  0.00    +0.000 C 
ATOM     23  C   UNL     1      49.537   7.874  12.325  0.00  0.00    +0.000 C 
BRANCH  22  24
ATOM     24  C   UNL     1      47.474   6.582  12.996  0.00  0.00    +0.000 A 
ATOM     25  C   UNL     1      46.794   6.739  11.775  0.00  0.00    +0.000 A 
ATOM     26  C   UNL     1      45.765   5.871  11.397  0.00  0.00    +0.000 A 
ATOM     27  C   UNL     1      45.405   4.818  12.237  0.00  0.00    +0.000 A 
ATOM     28  C   UNL     1      46.069   4.623  13.447  0.00  0.00    +0.000 A 
ATOM     29  C   UNL     1      47.100   5.494  13.814  0.00  0.00    +0.000 A 
BRANCH  27  30
ATOM     30  S   UNL     1      44.018   3.794  11.811  0.00  0.00    +0.000 S 
ATOM     31  C   UNL     1      42.652   4.921  11.779  0.00  0.00    +0.000 C 
ATOM     32  O   UNL     1      44.234   3.311  10.457  0.00  0.00    +0.000 OA
ATOM     33  O   UNL     1      43.813   2.867  12.905  0.00  0.00    +0.000 OA
ENDBRANCH  27  30
ENDBRANCH  22  24
ENDBRANCH  20  22
ENDBRANCH  18  20
ENDBRANCH   1  18
TORSDOF 8
ENDMDL
MODEL 8
REMARK VINA RESULT:    -7.318      1.454      2.036
REMARK INTER + INTRA:         -10.889
REMARK INTER:                  -9.660
REMARK INTRA:                  -1.230
REMARK UNBOUND:                -0.149
REMARK  Name = 
REMARK  11 active torsions:
REMARK  status: ('A' for Active; 'I' for Inactive)
REMARK    1  A    between atoms: C_1  and  C_2
REMARK    2  A    between atoms: C_2  and  C_3
REMARK    3  A    between atoms: C_2  and  C_4
REMARK    4  A    between atoms: C_2  and  C_23
REMARK    5  A    between atoms: C_4  and  N_5
REMARK    6  A    between atoms: N_5  and  C_6
REMARK    7  A    between atoms: C_10  and  C_11
REMARK    8  A    between atoms: C_14  and  O_15
REMARK    9  A    between atoms: O_15  and  C_16
REMARK   10  A    between atoms: C_26  and  S_27
REMARK   11  A    between atoms: S_27  and  C_28
REMARK                            x       y       z     vdW  Elec       q    Type
REMARK                         _______ _______ _______ _____ _____    ______ ____
ROOT
ATOM      1  C   UNL     1      46.619   8.153  12.176  0.00  0.00    +0.000 A 
ATOM      2  C   UNL     1      45.344   8.658  12.428  0.00  0.00    +0.000 A 
ATOM      3  N   UNL     1      44.187   8.085  12.026  0.00  0.00    +0.000 NA
ATOM      4  C   UNL     1      44.302   6.953  11.295  0.00  0.00    +0.000 A 
ATOM      5  C   UNL     1      45.507   6.347  10.938  0.00  0.00    +0.000 A 
ATOM      6  C   UNL     1      46.671   6.992  11.393  0.00  0.00    +0.000 A 
ENDROOT
BRANCH   5   7
ATOM      7  C   UNL     1      45.559   5.098  10.152  0.00  0.00    +0.000 A 
ATOM      8  C   UNL     1      45.164   3.864  10.697  0.00  0.00    +0.000 A 
ATOM      9  C   UNL     1      45.161   2.687   9.932  0.00  0.00    +0.000 A 
ATOM     10  C   UNL     1      45.530   2.724   8.592  0.00  0.00    +0.000 A 
ATOM     11  C   UNL     1      45.985   3.926   8.052  0.00  0.00    +0.000 A 
ATOM     12  C   UNL     1      45.992   5.097   8.816  0.00  0.00    +0.000 A 
BRANCH  10  13
ATOM     13  O   UNL     1      45.540   1.674   7.729  0.00  0.00    +0.000 OA
BRANCH  13  14
ATOM     14  C   UNL     1      46.781   1.145   7.283  0.00  0.00    +0.000 C 
ATOM     15  F   UNL     1      47.854   1.901   7.592  0.00  0.00    +0.000 F 
ATOM     16  F   UNL     1      46.957  -0.070   7.852  0.00  0.00    +0.000 F 
ATOM     17  F   UNL     1      46.736   0.977   5.944  0.00  0.00    +0.000 F 
ENDBRANCH  13  14
ENDBRANCH  10  13
ENDBRANCH   5   7
BRANCH   1  18
ATOM     18  N   UNL     1      47.818   8.777  12.533  0.00  0.00    +0.000 N 
ATOM     19  H   UNL     1      47.990   9.608  11.968  0.00  0.00    +0.000 HD
BRANCH  18  20
ATOM     20  C   UNL     1      49.015   7.960  12.752  0.00  0.00    +0.000 C 
BRANCH  20  22
ATOM     21  C   UNL     1      51.154   8.362  14.037  0.00  0.00    +0.000 C 
ATOM     22  C   UNL     1      49.623   8.177  14.175  0.00  0.00    +0.000 C 
ATOM     23  C   UNL     1      49.066   9.510  14.731  0.00  0.00    +0.000 C 
BRANCH  22  24
ATOM     24  C   UNL     1      49.219   7.019  15.114  0.00  0.00    +0.000 A 
ATOM     25  C   UNL     1      49.972   6.678  16.252  0.00  0.00    +0.000 A 
ATOM     26  C   UNL     1      49.642   5.572  17.041  0.00  0.00    +0.000 A 
ATOM     27  C   UNL     1      48.537   4.789  16.705  0.00  0.00    +0.000 A 
ATOM     28  C   UNL     1      47.759   5.108  15.594  0.00  0.00    +0.000 A 
ATOM     29  C   UNL     1      48.095   6.219  14.815  0.00  0.00    +0.000 A 
BRANCH  27  30
ATOM     30  S   UNL     1      48.194   3.316  17.636  0.00  0.00    +0.000 S 
ATOM     31  C   UNL     1      48.411   3.818  19.321  0.00  0.00    +0.000 C 
ATOM     32  O   UNL     1      46.790   2.995  17.439  0.00  0.00    +0.000 OA
ATOM     33  O   UNL     1      49.227   2.352  17.316  0.00  0.00    +0.000 OA
ENDBRANCH  27  30
ENDBRANCH  22  24
ENDBRANCH  20  22
ENDBRANCH  18  20
ENDBRANCH   1  18
TORSDOF 8
ENDMDL
MODEL 9
REMARK VINA RESULT:    -7.318      3.981      6.032
REMARK INTER + INTRA:         -10.889
REMARK INTER:                  -9.221
REMARK INTRA:                  -1.668
REMARK UNBOUND:                -0.149
REMARK  Name = 
REMARK  11 active torsions:
REMARK  status: ('A' for Active; 'I' for Inactive)
REMARK    1  A    between atoms: C_1  and  C_2
REMARK    2  A    between atoms: C_2  and  C_3
REMARK    3  A    between atoms: C_2  and  C_4
REMARK    4  A    between atoms: C_2  and  C_23
REMARK    5  A    between atoms: C_4  and  N_5
REMARK    6  A    between atoms: N_5  and  C_6
REMARK    7  A    between atoms: C_10  and  C_11
REMARK    8  A    between atoms: C_14  and  O_15
REMARK    9  A    between atoms: O_15  and  C_16
REMARK   10  A    between atoms: C_26  and  S_27
REMARK   11  A    between atoms: S_27  and  C_28
REMARK                            x       y       z     vdW  Elec       q    Type
REMARK                         _______ _______ _______ _____ _____    ______ ____
ROOT
ATOM      1  C   UNL     1      48.710   6.793  15.230  0.00  0.00    +0.000 A 
ATOM      2  C   UNL     1      48.660   5.860  16.264  0.00  0.00    +0.000 A 
ATOM      3  N   UNL     1      47.950   4.708  16.238  0.00  0.00    +0.000 NA
ATOM      4  C   UNL     1      47.215   4.484  15.126  0.00  0.00    +0.000 A 
ATOM      5  C   UNL     1      47.141   5.338  14.026  0.00  0.00    +0.000 A 
ATOM      6  C   UNL     1      47.906   6.514  14.117  0.00  0.00    +0.000 A 
ENDROOT
BRANCH   5   7
ATOM      7  C   UNL     1      46.329   5.020  12.834  0.00  0.00    +0.000 A 
ATOM      8  C   UNL     1      46.212   5.918  11.758  0.00  0.00    +0.000 A 
ATOM      9  C   UNL     1      45.486   5.592  10.602  0.00  0.00    +0.000 A 
ATOM     10  C   UNL     1      44.879   4.347  10.486  0.00  0.00    +0.000 A 
ATOM     11  C   UNL     1      44.930   3.470  11.569  0.00  0.00    +0.000 A 
ATOM     12  C   UNL     1      45.650   3.797  12.721  0.00  0.00    +0.000 A 
BRANCH  10  13
ATOM     13  O   UNL     1      44.178   3.888   9.416  0.00  0.00    +0.000 OA
BRANCH  13  14
ATOM     14  C   UNL     1      44.784   2.961   8.526  0.00  0.00    +0.000 C 
ATOM     15  F   UNL     1      44.515   1.668   8.798  0.00  0.00    +0.000 F 
ATOM     16  F   UNL     1      44.342   3.218   7.273  0.00  0.00    +0.000 F 
ATOM     17  F   UNL     1      46.123   3.140   8.542  0.00  0.00    +0.000 F 
ENDBRANCH  13  14
ENDBRANCH  10  13
ENDBRANCH   5   7
BRANCH   1  18
ATOM     18  N   UNL     1      49.389   8.015  15.279  0.00  0.00    +0.000 N 
ATOM     19  H   UNL     1      49.248   8.486  16.173  0.00  0.00    +0.000 HD
BRANCH  18  20
ATOM     20  C   UNL     1      49.327   8.917  14.126  0.00  0.00    +0.000 C 
BRANCH  20  22
ATOM     21  C   UNL     1      50.550  11.038  13.497  0.00  0.00    +0.000 C 
ATOM     22  C   UNL     1      50.724   9.526  13.781  0.00  0.00    +0.000 C 
ATOM     23  C   UNL     1      51.616   9.415  15.041  0.00  0.00    +0.000 C 
BRANCH  22  24
ATOM     24  C   UNL     1      51.377   8.746  12.617  0.00  0.00    +0.000 A 
ATOM     25  C   UNL     1      52.760   8.792  12.366  0.00  0.00    +0.000 A 
ATOM     26  C   UNL     1      53.321   8.152  11.257  0.00  0.00    +0.000 A 
ATOM     27  C   UNL     1      52.500   7.442  10.381  0.00  0.00    +0.000 A 
ATOM     28  C   UNL     1      51.128   7.362  10.609  0.00  0.00    +0.000 A 
ATOM     29  C   UNL     1      50.577   8.002  11.724  0.00  0.00    +0.000 A 
BRANCH  27  30
ATOM     30  S   UNL     1      53.198   6.736   8.908  0.00  0.00    +0.000 S 
ATOM     31  C   UNL     1      54.525   7.835   8.497  0.00  0.00    +0.000 C 
ATOM     32  O   UNL     1      53.774   5.452   9.273  0.00  0.00    +0.000 OA
ATOM     33  O   UNL     1      52.195   6.829   7.867  0.00  0.00    +0.000 OA
ENDBRANCH  27  30
ENDBRANCH  22  24
ENDBRANCH  20  22
ENDBRANCH  18  20
ENDBRANCH   1  18
TORSDOF 8
ENDMDL
