MODEL 1
REMARK VINA RESULT:    -8.009      0.000      0.000
REMARK INTER + INTRA:         -10.523
REMARK INTER:                  -9.882
REMARK INTRA:                  -0.641
REMARK UNBOUND:                -0.641
REMARK  Name = 
REMARK  4 active torsions:
REMARK  status: ('A' for Active; 'I' for Inactive)
REMARK    1  A    between atoms: C_2  and  C_3
REMARK    2  A    between atoms: N_7  and  C_8
REMARK    3  A    between atoms: C_8  and  C_9
REMARK    4  A    between atoms: C_13  and  C_14
REMARK                            x       y       z     vdW  Elec       q    Type
REMARK                         _______ _______ _______ _____ _____    ______ ____
ROOT
ATOM      1  C   UNL     1      44.313   4.980  11.628  0.00  0.00    +0.000 A 
ATOM      2  C   UNL     1      43.350   4.093  12.091  0.00  0.00    +0.000 A 
ATOM      3  N   UNL     1      43.109   2.883  11.542  0.00  0.00    +0.000 NA
ATOM      4  C   UNL     1      43.857   2.549  10.463  0.00  0.00    +0.000 A 
ATOM      5  C   UNL     1      44.835   3.356   9.877  0.00  0.00    +0.000 A 
ATOM      6  C   UNL     1      45.045   4.597  10.498  0.00  0.00    +0.000 A 
ENDROOT
BRANCH   5   7
ATOM      7  C   UNL     1      45.594   2.938   8.682  0.00  0.00    +0.000 A 
ATOM      8  C   UNL     1      45.997   3.872   7.705  0.00  0.00    +0.000 A 
ATOM      9  C   UNL     1      46.730   3.487   6.578  0.00  0.00    +0.000 A 
ATOM     10  C   UNL     1      47.085   2.154   6.407  0.00  0.00    +0.000 A 
ATOM     11  C   UNL     1      46.698   1.222   7.357  0.00  0.00    +0.000 A 
ATOM     12  F   UNL     1      47.042  -0.064   7.200  0.00  0.00    +0.000 F 
ATOM     13  C   UNL     1      45.958   1.596   8.475  0.00  0.00    +0.000 A 
ENDBRANCH   5   7
BRANCH   1  14
ATOM     14  C   UNL     1      44.563   6.295  12.312  0.00  0.00    +0.000 C 
BRANCH  14  19
ATOM     15  C   UNL     1      49.396   7.659  12.543  0.00  0.00    +0.000 A 
ATOM     16  C   UNL     1      48.404   7.731  11.597  0.00  0.00    +0.000 A 
ATOM     17  N   UNL     1      47.152   7.268  11.794  0.00  0.00    +0.000 NA
ATOM     18  C   UNL     1      46.888   6.702  12.981  0.00  0.00    +0.000 A 
ATOM     19  N   UNL     1      45.646   6.211  13.249  0.00  0.00    +0.000 N 
ATOM     20  N   UNL     1      47.789   6.588  13.968  0.00  0.00    +0.000 NA
ATOM     21  C   UNL     1      49.028   7.071  13.728  0.00  0.00    +0.000 A 
ATOM     22  H   UNL     1      45.537   5.782  14.154  0.00  0.00    +0.000 HD
BRANCH  15  24
ATOM     23  N   UNL     1      51.772   8.569  12.125  0.00  0.00    +0.000 NA
ATOM     24  C   UNL     1      50.703   8.157  12.314  0.00  0.00    +0.000 C 
ENDBRANCH  15  24
ENDBRANCH  14  19
ENDBRANCH   1  14
TORSDOF 4
ENDMDL
MODEL 2
REMARK VINA RESULT:    -7.912      1.671      2.281
REMARK INTER + INTRA:         -10.403
REMARK INTER:                 -10.096
REMARK INTRA:                  -0.307
REMARK UNBOUND:                -0.641
REMARK  Name = 
REMARK  4 active torsions:
REMARK  status: ('A' for Active; 'I' for Inactive)
REMARK    1  A    between atoms: C_2  and  C_3
REMARK    2  A    between atoms: N_7  and  C_8
REMARK    3  A    between atoms: C_8  and  C_9
REMARK    4  A    between atoms: C_13  and  C_14
REMARK                            x       y       z     vdW  Elec       q    Type
REMARK                         _______ _______ _______ _____ _____    ______ ____
ROOT
ATOM      1  C   UNL     1      43.608   4.859  10.821  0.00  0.00    +0.000 A 
ATOM      2  C   UNL     1      43.032   3.851  11.582  0.00  0.00    +0.000 A 
ATOM      3  N   UNL     1      43.257   2.533  11.387  0.00  0.00    +0.000 NA
ATOM      4  C   UNL     1      44.086   2.206  10.366  0.00  0.00    +0.000 A 
ATOM      5  C   UNL     1      44.705   3.115   9.506  0.00  0.00    +0.000 A 
ATOM      6  C   UNL     1      44.441   4.469   9.765  0.00  0.00    +0.000 A 
ENDROOT
BRANCH   5   7
ATOM      7  C   UNL     1      45.577   2.684   8.395  0.00  0.00    +0.000 A 
ATOM      8  C   UNL     1      46.148   1.394   8.369  0.00  0.00    +0.000 A 
ATOM      9  C   UNL     1      46.962   0.973   7.313  0.00  0.00    +0.000 A 
ATOM     10  C   UNL     1      47.218   1.832   6.251  0.00  0.00    +0.000 A 
ATOM     11  C   UNL     1      46.665   3.103   6.260  0.00  0.00    +0.000 A 
ATOM     12  F   UNL     1      46.903   3.934   5.236  0.00  0.00    +0.000 F 
ATOM     13  C   UNL     1      45.864   3.534   7.313  0.00  0.00    +0.000 A 
ENDBRANCH   5   7
BRANCH   1  14
ATOM     14  C   UNL     1      43.352   6.310  11.118  0.00  0.00    +0.000 C 
BRANCH  14  19
ATOM     15  C   UNL     1      47.702   6.804  13.589  0.00  0.00    +0.000 A 
ATOM     16  C   UNL     1      46.564   6.055  13.754  0.00  0.00    +0.000 A 
ATOM     17  N   UNL     1      45.503   6.120  12.923  0.00  0.00    +0.000 NA
ATOM     18  C   UNL     1      45.583   6.976  11.893  0.00  0.00    +0.000 A 
ATOM     19  N   UNL     1      44.548   7.095  11.015  0.00  0.00    +0.000 N 
ATOM     20  N   UNL     1      46.653   7.746  11.648  0.00  0.00    +0.000 NA
ATOM     21  C   UNL     1      47.694   7.644  12.503  0.00  0.00    +0.000 A 
ATOM     22  H   UNL     1      44.679   7.776  10.284  0.00  0.00    +0.000 HD
BRANCH  15  24
ATOM     23  N   UNL     1      49.713   6.638  15.194  0.00  0.00    +0.000 NA
ATOM     24  C   UNL     1      48.807   6.714  14.474  0.00  0.00    +0.000 C 
ENDBRANCH  15  24
ENDBRANCH  14  19
ENDBRANCH   1  14
TORSDOF 4
ENDMDL
MODEL 3
REMARK VINA RESULT:    -7.865      1.395      1.872
REMARK INTER + INTRA:         -10.345
REMARK INTER:                 -10.144
REMARK INTRA:                  -0.201
REMARK UNBOUND:                -0.641
REMARK  Name = 
REMARK  4 active torsions:
REMARK  status: ('A' for Active; 'I' for Inactive)
REMARK    1  A    between atoms: C_2  and  C_3
REMARK    2  A    between atoms: N_7  and  C_8
REMARK    3  A    between atoms: C_8  and  C_9
REMARK    4  A    between atoms: C_13  and  C_14
REMARK                            x       y       z     vdW  Elec       q    Type
REMARK                         _______ _______ _______ _____ _____    ______ ____
ROOT
ATOM      1  C   UNL     1      43.422   4.914  10.937  0.00  0.00    +0.000 A 
ATOM      2  C   UNL     1      42.889   3.912  11.737  0.00  0.00    +0.000 A 
ATOM      3  N   UNL     1      43.157   2.597  11.582  0.00  0.00    +0.000 NA
ATOM      4  C   UNL     1      43.986   2.265  10.563  0.00  0.00    +0.000 A 
ATOM      5  C   UNL     1      44.564   3.166   9.667  0.00  0.00    +0.000 A 
ATOM      6  C   UNL     1      44.256   4.518   9.885  0.00  0.00    +0.000 A 
ENDROOT
BRANCH   5   7
ATOM      7  C   UNL     1      45.439   2.730   8.560  0.00  0.00    +0.000 A 
ATOM      8  C   UNL     1      45.902   3.642   7.589  0.00  0.00    +0.000 A 
ATOM      9  C   UNL     1      46.743   3.240   6.546  0.00  0.00    +0.000 A 
ATOM     10  C   UNL     1      47.147   1.914   6.456  0.00  0.00    +0.000 A 
ATOM     11  C   UNL     1      46.702   1.003   7.402  0.00  0.00    +0.000 A 
ATOM     12  F   UNL     1      47.093  -0.276   7.324  0.00  0.00    +0.000 F 
ATOM     13  C   UNL     1      45.856   1.394   8.435  0.00  0.00    +0.000 A 
ENDBRANCH   5   7
BRANCH   1  14
ATOM     14  C   UNL     1      43.119   6.364  11.191  0.00  0.00    +0.000 C 
BRANCH  14  19
ATOM     15  C   UNL     1      47.530   6.869  13.546  0.00  0.00    +0.000 A 
ATOM     16  C   UNL     1      46.416   6.087  13.717  0.00  0.00    +0.000 A 
ATOM     17  N   UNL     1      45.328   6.158  12.921  0.00  0.00    +0.000 NA
ATOM     18  C   UNL     1      45.356   7.054  11.923  0.00  0.00    +0.000 A 
ATOM     19  N   UNL     1      44.293   7.181  11.082  0.00  0.00    +0.000 N 
ATOM     20  N   UNL     1      46.400   7.859  11.676  0.00  0.00    +0.000 NA
ATOM     21  C   UNL     1      47.469   7.750  12.494  0.00  0.00    +0.000 A 
ATOM     22  H   UNL     1      44.385   7.892  10.375  0.00  0.00    +0.000 HD
BRANCH  15  24
ATOM     23  N   UNL     1      49.589   6.691  15.089  0.00  0.00    +0.000 NA
ATOM     24  C   UNL     1      48.664   6.773  14.393  0.00  0.00    +0.000 C 
ENDBRANCH  15  24
ENDBRANCH  14  19
ENDBRANCH   1  14
TORSDOF 4
ENDMDL
MODEL 4
REMARK VINA RESULT:    -7.841      3.597      7.020
REMARK INTER + INTRA:         -10.315
REMARK INTER:                  -9.787
REMARK INTRA:                  -0.528
REMARK UNBOUND:                -0.641
REMARK  Name = 
REMARK  4 active torsions:
REMARK  status: ('A' for Active; 'I' for Inactive)
REMARK    1  A    between atoms: C_2  and  C_3
REMARK    2  A    between atoms: N_7  and  C_8
REMARK    3  A    between atoms: C_8  and  C_9
REMARK    4  A    between atoms: C_13  and  C_14
REMARK                            x       y       z     vdW  Elec       q    Type
REMARK                         _______ _______ _______ _____ _____    ______ ____
ROOT
ATOM      1  C   UNL     1      44.830   4.418  11.713  0.00  0.00    +0.000 A 
ATOM      2  C   UNL     1      45.195   3.755  12.877  0.00  0.00    +0.000 A 
ATOM      3  N   UNL     1      46.027   4.266  13.810  0.00  0.00    +0.000 NA
ATOM      4  C   UNL     1      46.534   5.497  13.559  0.00  0.00    +0.000 A 
ATOM      5  C   UNL     1      46.276   6.259  12.417  0.00  0.00    +0.000 A 
ATOM      6  C   UNL     1      45.397   5.679  11.489  0.00  0.00    +0.000 A 
ENDROOT
BRANCH   5   7
ATOM      7  C   UNL     1      46.887   7.585  12.197  0.00  0.00    +0.000 A 
ATOM      8  C   UNL     1      48.257   7.717  11.887  0.00  0.00    +0.000 A 
ATOM      9  C   UNL     1      48.842   8.967  11.661  0.00  0.00    +0.000 A 
ATOM     10  C   UNL     1      48.063  10.117  11.731  0.00  0.00    +0.000 A 
ATOM     11  C   UNL     1      46.715  10.006  12.034  0.00  0.00    +0.000 A 
ATOM     12  F   UNL     1      45.959  11.110  12.097  0.00  0.00    +0.000 F 
ATOM     13  C   UNL     1      46.130   8.766  12.271  0.00  0.00    +0.000 A 
ENDBRANCH   5   7
BRANCH   1  14
ATOM     14  C   UNL     1      43.863   3.812  10.735  0.00  0.00    +0.000 C 
BRANCH  14  19
ATOM     15  C   UNL     1      46.874   2.276   7.013  0.00  0.00    +0.000 A 
ATOM     16  C   UNL     1      46.409   3.489   7.457  0.00  0.00    +0.000 A 
ATOM     17  N   UNL     1      45.577   3.627   8.510  0.00  0.00    +0.000 NA
ATOM     18  C   UNL     1      45.189   2.506   9.136  0.00  0.00    +0.000 A 
ATOM     19  N   UNL     1      44.349   2.570  10.206  0.00  0.00    +0.000 N 
ATOM     20  N   UNL     1      45.591   1.277   8.778  0.00  0.00    +0.000 NA
ATOM     21  C   UNL     1      46.428   1.187   7.722  0.00  0.00    +0.000 A 
ATOM     22  H   UNL     1      44.087   1.682  10.604  0.00  0.00    +0.000 HD
BRANCH  15  24
ATOM     23  N   UNL     1      48.467   2.060   4.997  0.00  0.00    +0.000 NA
ATOM     24  C   UNL     1      47.752   2.156   5.906  0.00  0.00    +0.000 C 
ENDBRANCH  15  24
ENDBRANCH  14  19
ENDBRANCH   1  14
TORSDOF 4
ENDMDL
MODEL 5
REMARK VINA RESULT:    -7.630      2.786      3.460
REMARK INTER + INTRA:         -10.054
REMARK INTER:                  -9.625
REMARK INTRA:                  -0.430
REMARK UNBOUND:                -0.641
REMARK  Name = 
REMARK  4 active torsions:
REMARK  status: ('A' for Active; 'I' for Inactive)
REMARK    1  A    between atoms: C_2  and  C_3
REMARK    2  A    between atoms: N_7  and  C_8
REMARK    3  A    between atoms: C_8  and  C_9
REMARK    4  A    between atoms: C_13  and  C_14
REMARK                            x       y       z     vdW  Elec       q    Type
REMARK                         _______ _______ _______ _____ _____    ______ ____
ROOT
ATOM      1  C   UNL     1      45.086   5.170  12.465  0.00  0.00    +0.000 A 
ATOM      2  C   UNL     1      43.720   5.411  12.418  0.00  0.00    +0.000 A 
ATOM      3  N   UNL     1      42.920   5.033  11.397  0.00  0.00    +0.000 NA
ATOM      4  C   UNL     1      43.520   4.399  10.361  0.00  0.00    +0.000 A 
ATOM      5  C   UNL     1      44.886   4.122  10.266  0.00  0.00    +0.000 A 
ATOM      6  C   UNL     1      45.663   4.530  11.362  0.00  0.00    +0.000 A 
ENDROOT
BRANCH   5   7
ATOM      7  C   UNL     1      45.477   3.449   9.092  0.00  0.00    +0.000 A 
ATOM      8  C   UNL     1      45.940   4.186   7.982  0.00  0.00    +0.000 A 
ATOM      9  C   UNL     1      46.515   3.559   6.872  0.00  0.00    +0.000 A 
ATOM     10  C   UNL     1      46.648   2.175   6.852  0.00  0.00    +0.000 A 
ATOM     11  C   UNL     1      46.199   1.435   7.935  0.00  0.00    +0.000 A 
ATOM     12  F   UNL     1      46.330   0.102   7.924  0.00  0.00    +0.000 F 
ATOM     13  C   UNL     1      45.615   2.052   9.037  0.00  0.00    +0.000 A 
ENDBRANCH   5   7
BRANCH   1  14
ATOM     14  C   UNL     1      45.914   5.577  13.652  0.00  0.00    +0.000 C 
BRANCH  14  19
ATOM     15  C   UNL     1      49.152   4.446  17.327  0.00  0.00    +0.000 A 
ATOM     16  C   UNL     1      48.944   5.526  16.507  0.00  0.00    +0.000 A 
ATOM     17  N   UNL     1      47.976   5.571  15.566  0.00  0.00    +0.000 NA
ATOM     18  C   UNL     1      47.196   4.488  15.439  0.00  0.00    +0.000 A 
ATOM     19  N   UNL     1      46.200   4.463  14.510  0.00  0.00    +0.000 N 
ATOM     20  N   UNL     1      47.320   3.388  16.196  0.00  0.00    +0.000 NA
ATOM     21  C   UNL     1      48.298   3.389  17.128  0.00  0.00    +0.000 A 
ATOM     22  H   UNL     1      45.675   3.605  14.463  0.00  0.00    +0.000 HD
BRANCH  15  24
ATOM     23  N   UNL     1      51.006   4.411  19.119  0.00  0.00    +0.000 NA
ATOM     24  C   UNL     1      50.173   4.424  18.312  0.00  0.00    +0.000 C 
ENDBRANCH  15  24
ENDBRANCH  14  19
ENDBRANCH   1  14
TORSDOF 4
ENDMDL
MODEL 6
REMARK VINA RESULT:    -7.175      1.898      2.259
REMARK INTER + INTRA:          -9.493
REMARK INTER:                  -9.060
REMARK INTRA:                  -0.433
REMARK UNBOUND:                -0.641
REMARK  Name = 
REMARK  4 active torsions:
REMARK  status: ('A' for Active; 'I' for Inactive)
REMARK    1  A    between atoms: C_2  and  C_3
REMARK    2  A    between atoms: N_7  and  C_8
REMARK    3  A    between atoms: C_8  and  C_9
REMARK    4  A    between atoms: C_13  and  C_14
REMARK                            x       y       z     vdW  Elec       q    Type
REMARK                         _______ _______ _______ _____ _____    ______ ____
ROOT
ATOM      1  C   UNL     1      45.290   6.161  11.146  0.00  0.00    +0.000 A 
ATOM      2  C   UNL     1      43.920   6.039  11.336  0.00  0.00    +0.000 A 
ATOM      3  N   UNL     1      43.144   5.138  10.696  0.00  0.00    +0.000 NA
ATOM      4  C   UNL     1      43.767   4.329   9.805  0.00  0.00    +0.000 A 
ATOM      5  C   UNL     1      45.128   4.365   9.496  0.00  0.00    +0.000 A 
ATOM      6  C   UNL     1      45.883   5.316  10.200  0.00  0.00    +0.000 A 
ENDROOT
BRANCH   5   7
ATOM      7  C   UNL     1      45.735   3.469   8.491  0.00  0.00    +0.000 A 
ATOM      8  C   UNL     1      46.278   3.973   7.291  0.00  0.00    +0.000 A 
ATOM      9  C   UNL     1      46.868   3.134   6.342  0.00  0.00    +0.000 A 
ATOM     10  C   UNL     1      46.937   1.766   6.577  0.00  0.00    +0.000 A 
ATOM     11  C   UNL     1      46.410   1.252   7.751  0.00  0.00    +0.000 A 
ATOM     12  F   UNL     1      46.479  -0.066   7.986  0.00  0.00    +0.000 F 
ATOM     13  C   UNL     1      45.810   2.080   8.695  0.00  0.00    +0.000 A 
ENDBRANCH   5   7
BRANCH   1  14
ATOM     14  C   UNL     1      46.105   7.155  11.925  0.00  0.00    +0.000 C 
BRANCH  14  19
ATOM     15  C   UNL     1      49.156   8.356  15.735  0.00  0.00    +0.000 A 
ATOM     16  C   UNL     1      48.232   9.027  14.975  0.00  0.00    +0.000 A 
ATOM     17  N   UNL     1      47.532   8.452  13.974  0.00  0.00    +0.000 NA
ATOM     18  C   UNL     1      47.777   7.158  13.720  0.00  0.00    +0.000 A 
ATOM     19  N   UNL     1      47.108   6.513  12.724  0.00  0.00    +0.000 N 
ATOM     20  N   UNL     1      48.659   6.419  14.409  0.00  0.00    +0.000 NA
ATOM     21  C   UNL     1      49.332   7.034  15.406  0.00  0.00    +0.000 A 
ATOM     22  H   UNL     1      47.367   5.550  12.583  0.00  0.00    +0.000 HD
BRANCH  15  24
ATOM     23  N   UNL     1      50.469   9.494  17.640  0.00  0.00    +0.000 NA
ATOM     24  C   UNL     1      49.876   8.981  16.785  0.00  0.00    +0.000 C 
ENDBRANCH  15  24
ENDBRANCH  14  19
ENDBRANCH   1  14
TORSDOF 4
ENDMDL
MODEL 7
REMARK VINA RESULT:    -7.101      3.490      7.137
REMARK INTER + INTRA:          -9.403
REMARK INTER:                  -9.023
REMARK INTRA:                  -0.380
REMARK UNBOUND:                -0.641
REMARK  Name = 
REMARK  4 active torsions:
REMARK  status: ('A' for Active; 'I' for Inactive)
REMARK    1  A    between atoms: C_2  and  C_3
REMARK    2  A    between atoms: N_7  and  C_8
REMARK    3  A    between atoms: C_8  and  C_9
REMARK    4  A    between atoms: C_13  and  C_14
REMARK                            x       y       z     vdW  Elec       q    Type
REMARK                         _______ _______ _______ _____ _____    ______ ____
ROOT
ATOM      1  C   UNL     1      45.098   5.476  11.517  0.00  0.00    +0.000 A 
ATOM      2  C   UNL     1      45.613   6.626  10.934  0.00  0.00    +0.000 A 
ATOM      3  N   UNL     1      46.642   7.337  11.443  0.00  0.00    +0.000 NA
ATOM      4  C   UNL     1      47.172   6.886  12.606  0.00  0.00    +0.000 A 
ATOM      5  C   UNL     1      46.732   5.764  13.312  0.00  0.00    +0.000 A 
ATOM      6  C   UNL     1      45.666   5.062  12.728  0.00  0.00    +0.000 A 
ENDROOT
BRANCH   5   7
ATOM      7  C   UNL     1      47.341   5.345  14.591  0.00  0.00    +0.000 A 
ATOM      8  C   UNL     1      48.330   6.128  15.222  0.00  0.00    +0.000 A 
ATOM      9  C   UNL     1      48.901   5.747  16.440  0.00  0.00    +0.000 A 
ATOM     10  C   UNL     1      48.487   4.575  17.061  0.00  0.00    +0.000 A 
ATOM     11  C   UNL     1      47.515   3.794  16.456  0.00  0.00    +0.000 A 
ATOM     12  F   UNL     1      47.108   2.665  17.053  0.00  0.00    +0.000 F 
ATOM     13  C   UNL     1      46.951   4.160  15.237  0.00  0.00    +0.000 A 
ENDBRANCH   5   7
BRANCH   1  14
ATOM     14  C   UNL     1      43.979   4.704  10.875  0.00  0.00    +0.000 C 
BRANCH  14  19
ATOM     15  C   UNL     1      46.731   2.478   7.305  0.00  0.00    +0.000 A 
ATOM     16  C   UNL     1      46.342   3.765   7.578  0.00  0.00    +0.000 A 
ATOM     17  N   UNL     1      45.570   4.102   8.633  0.00  0.00    +0.000 NA
ATOM     18  C   UNL     1      45.166   3.108   9.438  0.00  0.00    +0.000 A 
ATOM     19  N   UNL     1      44.384   3.374  10.521  0.00  0.00    +0.000 N 
ATOM     20  N   UNL     1      45.496   1.821   9.254  0.00  0.00    +0.000 NA
ATOM     21  C   UNL     1      46.275   1.531   8.189  0.00  0.00    +0.000 A 
ATOM     22  H   UNL     1      44.104   2.570  11.060  0.00  0.00    +0.000 HD
BRANCH  15  24
ATOM     23  N   UNL     1      48.214   1.886   5.280  0.00  0.00    +0.000 NA
ATOM     24  C   UNL     1      47.547   2.150   6.192  0.00  0.00    +0.000 C 
ENDBRANCH  15  24
ENDBRANCH  14  19
ENDBRANCH   1  14
TORSDOF 4
ENDMDL
MODEL 8
REMARK VINA RESULT:    -6.568      3.143      4.773
REMARK INTER + INTRA:          -8.745
REMARK INTER:                  -8.301
REMARK INTRA:                  -0.443
REMARK UNBOUND:                -0.641
REMARK  Name = 
REMARK  4 active torsions:
REMARK  status: ('A' for Active; 'I' for Inactive)
REMARK    1  A    between atoms: C_2  and  C_3
REMARK    2  A    between atoms: N_7  and  C_8
REMARK    3  A    between atoms: C_8  and  C_9
REMARK    4  A    between atoms: C_13  and  C_14
REMARK                            x       y       z     vdW  Elec       q    Type
REMARK                         _______ _______ _______ _____ _____    ______ ____
ROOT
ATOM      1  C   UNL     1      46.951   7.247  13.180  0.00  0.00    +0.000 A 
ATOM      2  C   UNL     1      46.209   8.404  12.977  0.00  0.00    +0.000 A 
ATOM      3  N   UNL     1      45.187   8.503  12.101  0.00  0.00    +0.000 NA
ATOM      4  C   UNL     1      44.902   7.394  11.376  0.00  0.00    +0.000 A 
ATOM      5  C   UNL     1      45.586   6.179  11.457  0.00  0.00    +0.000 A 
ATOM      6  C   UNL     1      46.631   6.135  12.392  0.00  0.00    +0.000 A 
ENDROOT
BRANCH   5   7
ATOM      7  C   UNL     1      45.237   5.017  10.614  0.00  0.00    +0.000 A 
ATOM      8  C   UNL     1      44.480   3.942  11.125  0.00  0.00    +0.000 A 
ATOM      9  C   UNL     1      44.132   2.846  10.330  0.00  0.00    +0.000 A 
ATOM     10  C   UNL     1      44.528   2.804   8.998  0.00  0.00    +0.000 A 
ATOM     11  C   UNL     1      45.272   3.852   8.479  0.00  0.00    +0.000 A 
ATOM     12  F   UNL     1      45.652   3.820   7.194  0.00  0.00    +0.000 F 
ATOM     13  C   UNL     1      45.632   4.941   9.268  0.00  0.00    +0.000 A 
ENDBRANCH   5   7
BRANCH   1  14
ATOM     14  C   UNL     1      48.049   7.189  14.205  0.00  0.00    +0.000 C 
BRANCH  14  19
ATOM     15  C   UNL     1      50.770   4.816  17.702  0.00  0.00    +0.000 A 
ATOM     16  C   UNL     1      50.975   5.880  16.861  0.00  0.00    +0.000 A 
ATOM     17  N   UNL     1      50.051   6.324  15.983  0.00  0.00    +0.000 NA
ATOM     18  C   UNL     1      48.881   5.669  15.942  0.00  0.00    +0.000 A 
ATOM     19  N   UNL     1      47.903   6.061  15.079  0.00  0.00    +0.000 N 
ATOM     20  N   UNL     1      48.587   4.621  16.726  0.00  0.00    +0.000 NA
ATOM     21  C   UNL     1      49.540   4.215  17.593  0.00  0.00    +0.000 A 
ATOM     22  H   UNL     1      47.065   5.502  15.094  0.00  0.00    +0.000 HD
BRANCH  15  24
ATOM     23  N   UNL     1      52.560   4.001  19.371  0.00  0.00    +0.000 NA
ATOM     24  C   UNL     1      51.756   4.371  18.620  0.00  0.00    +0.000 C 
ENDBRANCH  15  24
ENDBRANCH  14  19
ENDBRANCH   1  14
TORSDOF 4
ENDMDL
MODEL 9
REMARK VINA RESULT:    -6.327      2.822      4.787
REMARK INTER + INTRA:          -8.447
REMARK INTER:                  -7.918
REMARK INTRA:                  -0.529
REMARK UNBOUND:                -0.641
REMARK  Name = 
REMARK  4 active torsions:
REMARK  status: ('A' for Active; 'I' for Inactive)
REMARK    1  A    between atoms: C_2  and  C_3
REMARK    2  A    between atoms: N_7  and  C_8
REMARK    3  A    between atoms: C_8  and  C_9
REMARK    4  A    between atoms: C_13  and  C_14
REMARK                            x       y       z     vdW  Elec       q    Type
REMARK                         _______ _______ _______ _____ _____    ______ ____
ROOT
ATOM      1  C   UNL     1      47.415   7.520  12.542  0.00  0.00    +0.000 A 
ATOM      2  C   UNL     1      46.489   8.551  12.636  0.00  0.00    +0.000 A 
ATOM      3  N   UNL     1      45.244   8.500  12.116  0.00  0.00    +0.000 NA
ATOM      4  C   UNL     1      44.912   7.367  11.451  0.00  0.00    +0.000 A 
ATOM      5  C   UNL     1      45.755   6.270  11.255  0.00  0.00    +0.000 A 
ATOM      6  C   UNL     1      47.032   6.379  11.827  0.00  0.00    +0.000 A 
ENDROOT
BRANCH   5   7
ATOM      7  C   UNL     1      45.334   5.076  10.494  0.00  0.00    +0.000 A 
ATOM      8  C   UNL     1      44.592   4.043  11.104  0.00  0.00    +0.000 A 
ATOM      9  C   UNL     1      44.177   2.916  10.387  0.00  0.00    +0.000 A 
ATOM     10  C   UNL     1      44.488   2.802   9.038  0.00  0.00    +0.000 A 
ATOM     11  C   UNL     1      45.216   3.808   8.422  0.00  0.00    +0.000 A 
ATOM     12  F   UNL     1      45.514   3.705   7.119  0.00  0.00    +0.000 F 
ATOM     13  C   UNL     1      45.643   4.926   9.132  0.00  0.00    +0.000 A 
ENDBRANCH   5   7
BRANCH   1  14
ATOM     14  C   UNL     1      48.771   7.622  13.182  0.00  0.00    +0.000 C 
BRANCH  14  19
ATOM     15  C   UNL     1      48.699   5.749  17.846  0.00  0.00    +0.000 A 
ATOM     16  C   UNL     1      48.741   5.219  16.581  0.00  0.00    +0.000 A 
ATOM     17  N   UNL     1      48.743   5.970  15.459  0.00  0.00    +0.000 NA
ATOM     18  C   UNL     1      48.692   7.301  15.613  0.00  0.00    +0.000 A 
ATOM     19  N   UNL     1      48.690   8.120  14.524  0.00  0.00    +0.000 N 
ATOM     20  N   UNL     1      48.652   7.911  16.807  0.00  0.00    +0.000 NA
ATOM     21  C   UNL     1      48.657   7.121  17.902  0.00  0.00    +0.000 A 
ATOM     22  H   UNL     1      48.627   9.105  14.726  0.00  0.00    +0.000 HD
BRANCH  15  24
ATOM     23  N   UNL     1      48.706   4.282  19.966  0.00  0.00    +0.000 NA
ATOM     24  C   UNL     1      48.702   4.940  19.010  0.00  0.00    +0.000 C 
ENDBRANCH  15  24
ENDBRANCH  14  19
ENDBRANCH   1  14
TORSDOF 4
ENDMDL
