MODEL 1
REMARK VINA RESULT:    -8.893      0.000      0.000
REMARK INTER + INTRA:         -11.459
REMARK INTER:                 -10.973
REMARK INTRA:                  -0.486
REMARK UNBOUND:                -0.486
REMARK  Name = 
REMARK  5 active torsions:
REMARK  status: ('A' for Active; 'I' for Inactive)
REMARK    1  A    between atoms: C_1  and  C_2
REMARK    2  A    between atoms: C_9  and  C_10
REMARK    3  A    between atoms: C_10  and  N_11
REMARK    4  A    between atoms: N_11  and  C_12
REMARK    5  A    between atoms: C_15  and  C_16
REMARK                            x       y       z     vdW  Elec       q    Type
REMARK                         _______ _______ _______ _____ _____    ______ ____
ROOT
ATOM      1  C   UNL     1      43.873   4.983  11.363  0.00  0.00    +0.000 C 
ATOM      2  C   UNL     1      43.219   6.335  11.170  0.00  0.00    +0.000 C 
ATOM      3  C   UNL     1      42.534   5.326  12.024  0.00  0.00    +0.000 C 
ENDROOT
BRANCH   1  12
ATOM      4  C   UNL     1      49.374   7.178  11.585  0.00  0.00    +0.000 C 
ATOM      5  C   UNL     1      49.203   8.148  12.751  0.00  0.00    +0.000 C 
ATOM      6  C   UNL     1      48.553   7.524  14.009  0.00  0.00    +0.000 C 
ATOM      7  N   UNL     1      47.109   7.354  13.847  0.00  0.00    +0.000 N 
ATOM      8  C   UNL     1      46.654   6.109  13.467  0.00  0.00    +0.000 A 
ATOM      9  N   UNL     1      47.335   5.002  13.795  0.00  0.00    +0.000 NA
ATOM     10  C   UNL     1      46.818   3.824  13.409  0.00  0.00    +0.000 A 
ATOM     11  C   UNL     1      45.668   3.704  12.660  0.00  0.00    +0.000 A 
ATOM     12  C   UNL     1      45.053   4.886  12.321  0.00  0.00    +0.000 A 
ATOM     13  N   UNL     1      45.520   6.066  12.769  0.00  0.00    +0.000 NA
ATOM     14  C   UNL     1      46.409   8.536  13.320  0.00  0.00    +0.000 C 
ATOM     15  C   UNL     1      47.116   9.110  12.085  0.00  0.00    +0.000 C 
ATOM     16  O   UNL     1      48.513   9.341  12.327  0.00  0.00    +0.000 OA
ENDBRANCH   1  12
BRANCH   1  17
ATOM     17  N   UNL     1      43.762   3.840  10.429  0.00  0.00    +0.000 N 
ATOM     18  H   UNL     1      43.325   3.018  10.847  0.00  0.00    +0.000 HD
BRANCH  17  19
ATOM     19  C   UNL     1      44.743   3.500   9.486  0.00  0.00    +0.000 A 
ATOM     20  C   UNL     1      45.114   2.156   9.340  0.00  0.00    +0.000 A 
ATOM     21  C   UNL     1      46.007   1.773   8.345  0.00  0.00    +0.000 A 
ATOM     22  C   UNL     1      46.498   2.760   7.501  0.00  0.00    +0.000 A 
ATOM     23  N   UNL     1      46.154   4.077   7.589  0.00  0.00    +0.000 NA
ATOM     24  C   UNL     1      45.279   4.396   8.566  0.00  0.00    +0.000 A 
BRANCH  22  25
ATOM     25  C   UNL     1      47.455   2.420   6.404  0.00  0.00    +0.000 C 
ATOM     26  N   UNL     1      47.380   3.243   5.311  0.00  0.00    +0.000 N 
ATOM     27  O   UNL     1      48.244   1.488   6.468  0.00  0.00    +0.000 OA
ATOM     28  H   UNL     1      46.701   3.998   5.313  0.00  0.00    +0.000 HD
ATOM     29  H   UNL     1      47.986   3.093   4.520  0.00  0.00    +0.000 HD
ENDBRANCH  22  25
ENDBRANCH  17  19
ENDBRANCH   1  17
TORSDOF 4
ENDMDL
MODEL 2
REMARK VINA RESULT:    -6.779      3.527      5.767
REMARK INTER + INTRA:          -8.851
REMARK INTER:                  -8.636
REMARK INTRA:                  -0.215
REMARK UNBOUND:                -0.486
REMARK  Name = 
REMARK  5 active torsions:
REMARK  status: ('A' for Active; 'I' for Inactive)
REMARK    1  A    between atoms: C_1  and  C_2
REMARK    2  A    between atoms: C_9  and  C_10
REMARK    3  A    between atoms: C_10  and  N_11
REMARK    4  A    between atoms: N_11  and  C_12
REMARK    5  A    between atoms: C_15  and  C_16
REMARK                            x       y       z     vdW  Elec       q    Type
REMARK                         _______ _______ _______ _____ _____    ______ ____
ROOT
ATOM      1  C   UNL     1      48.099   7.388  13.152  0.00  0.00    +0.000 C 
ATOM      2  C   UNL     1      48.524   7.424  11.699  0.00  0.00    +0.000 C 
ATOM      3  C   UNL     1      48.068   8.688  12.341  0.00  0.00    +0.000 C 
ENDROOT
BRANCH   1  12
ATOM      4  C   UNL     1      48.273   7.456  19.076  0.00  0.00    +0.000 C 
ATOM      5  C   UNL     1      48.701   6.012  19.324  0.00  0.00    +0.000 C 
ATOM      6  C   UNL     1      49.934   5.563  18.505  0.00  0.00    +0.000 C 
ATOM      7  N   UNL     1      49.592   5.296  17.108  0.00  0.00    +0.000 N 
ATOM      8  C   UNL     1      49.830   6.298  16.192  0.00  0.00    +0.000 A 
ATOM      9  N   UNL     1      50.817   7.183  16.387  0.00  0.00    +0.000 NA
ATOM     10  C   UNL     1      51.003   8.117  15.440  0.00  0.00    +0.000 A 
ATOM     11  C   UNL     1      50.209   8.239  14.322  0.00  0.00    +0.000 A 
ATOM     12  C   UNL     1      49.186   7.325  14.216  0.00  0.00    +0.000 A 
ATOM     13  N   UNL     1      49.041   6.338  15.119  0.00  0.00    +0.000 NA
ATOM     14  C   UNL     1      48.397   4.457  16.921  0.00  0.00    +0.000 C 
ATOM     15  C   UNL     1      47.220   4.951  17.773  0.00  0.00    +0.000 C 
ATOM     16  O   UNL     1      47.587   5.112  19.153  0.00  0.00    +0.000 OA
ENDBRANCH   1  12
BRANCH   1  17
ATOM     17  N   UNL     1      46.757   6.997  13.640  0.00  0.00    +0.000 N 
ATOM     18  H   UNL     1      46.671   7.037  14.656  0.00  0.00    +0.000 HD
BRANCH  17  19
ATOM     19  C   UNL     1      45.989   5.967  13.079  0.00  0.00    +0.000 A 
ATOM     20  C   UNL     1      45.177   6.246  11.971  0.00  0.00    +0.000 A 
ATOM     21  C   UNL     1      44.482   5.226  11.329  0.00  0.00    +0.000 A 
ATOM     22  C   UNL     1      44.637   3.934  11.813  0.00  0.00    +0.000 A 
ATOM     23  N   UNL     1      45.428   3.608  12.874  0.00  0.00    +0.000 NA
ATOM     24  C   UNL     1      46.087   4.631  13.458  0.00  0.00    +0.000 A 
BRANCH  22  25
ATOM     25  C   UNL     1      43.928   2.787  11.167  0.00  0.00    +0.000 C 
ATOM     26  N   UNL     1      44.508   2.341  10.009  0.00  0.00    +0.000 N 
ATOM     27  O   UNL     1      42.913   2.281  11.627  0.00  0.00    +0.000 OA
ATOM     28  H   UNL     1      45.347   2.803   9.673  0.00  0.00    +0.000 HD
ATOM     29  H   UNL     1      44.103   1.571   9.501  0.00  0.00    +0.000 HD
ENDBRANCH  22  25
ENDBRANCH  17  19
ENDBRANCH   1  17
TORSDOF 4
ENDMDL
MODEL 3
REMARK VINA RESULT:    -6.089      3.303      7.584
REMARK INTER + INTRA:          -7.999
REMARK INTER:                  -8.250
REMARK INTRA:                   0.250
REMARK UNBOUND:                -0.486
REMARK  Name = 
REMARK  5 active torsions:
REMARK  status: ('A' for Active; 'I' for Inactive)
REMARK    1  A    between atoms: C_1  and  C_2
REMARK    2  A    between atoms: C_9  and  C_10
REMARK    3  A    between atoms: C_10  and  N_11
REMARK    4  A    between atoms: N_11  and  C_12
REMARK    5  A    between atoms: C_15  and  C_16
REMARK                            x       y       z     vdW  Elec       q    Type
REMARK                         _______ _______ _______ _____ _____    ______ ____
ROOT
ATOM      1  C   UNL     1      48.004   7.873  13.548  0.00  0.00    +0.000 C 
ATOM      2  C   UNL     1      49.185   8.479  12.818  0.00  0.00    +0.000 C 
ATOM      3  C   UNL     1      49.037   6.997  12.831  0.00  0.00    +0.000 C 
ENDROOT
BRANCH   1  12
ATOM      4  C   UNL     1      45.115   4.671   9.483  0.00  0.00    +0.000 C 
ATOM      5  C   UNL     1      44.047   4.046  10.378  0.00  0.00    +0.000 C 
ATOM      6  C   UNL     1      43.289   5.059  11.268  0.00  0.00    +0.000 C 
ATOM      7  N   UNL     1      44.095   5.490  12.410  0.00  0.00    +0.000 N 
ATOM      8  C   UNL     1      44.772   6.685  12.296  0.00  0.00    +0.000 A 
ATOM      9  N   UNL     1      44.300   7.668  11.516  0.00  0.00    +0.000 NA
ATOM     10  C   UNL     1      45.003   8.811  11.473  0.00  0.00    +0.000 A 
ATOM     11  C   UNL     1      46.194   9.001  12.138  0.00  0.00    +0.000 A 
ATOM     12  C   UNL     1      46.639   7.930  12.878  0.00  0.00    +0.000 A 
ATOM     13  N   UNL     1      45.902   6.810  12.991  0.00  0.00    +0.000 NA
ATOM     14  C   UNL     1      44.744   4.395  13.149  0.00  0.00    +0.000 C 
ATOM     15  C   UNL     1      45.463   3.422  12.204  0.00  0.00    +0.000 C 
ATOM     16  O   UNL     1      44.600   2.962  11.152  0.00  0.00    +0.000 OA
ENDBRANCH   1  12
BRANCH   1  17
ATOM     17  N   UNL     1      47.949   7.600  15.002  0.00  0.00    +0.000 N 
ATOM     18  H   UNL     1      47.966   8.447  15.572  0.00  0.00    +0.000 HD
BRANCH  17  19
ATOM     19  C   UNL     1      48.601   6.526  15.624  0.00  0.00    +0.000 A 
ATOM     20  C   UNL     1      49.835   6.746  16.252  0.00  0.00    +0.000 A 
ATOM     21  C   UNL     1      50.458   5.727  16.965  0.00  0.00    +0.000 A 
ATOM     22  C   UNL     1      49.808   4.503  17.045  0.00  0.00    +0.000 A 
ATOM     23  N   UNL     1      48.599   4.244  16.470  0.00  0.00    +0.000 NA
ATOM     24  C   UNL     1      48.033   5.267  15.795  0.00  0.00    +0.000 A 
BRANCH  22  25
ATOM     25  C   UNL     1      50.414   3.365  17.802  0.00  0.00    +0.000 C 
ATOM     26  N   UNL     1      51.160   3.740  18.888  0.00  0.00    +0.000 N 
ATOM     27  O   UNL     1      50.261   2.193  17.487  0.00  0.00    +0.000 OA
ATOM     28  H   UNL     1      51.256   4.729  19.098  0.00  0.00    +0.000 HD
ATOM     29  H   UNL     1      51.608   3.043  19.462  0.00  0.00    +0.000 HD
ENDBRANCH  22  25
ENDBRANCH  17  19
ENDBRANCH   1  17
TORSDOF 4
ENDMDL
MODEL 4
REMARK VINA RESULT:    -5.984      2.645      4.589
REMARK INTER + INTRA:          -7.869
REMARK INTER:                  -7.733
REMARK INTRA:                  -0.136
REMARK UNBOUND:                -0.486
REMARK  Name = 
REMARK  5 active torsions:
REMARK  status: ('A' for Active; 'I' for Inactive)
REMARK    1  A    between atoms: C_1  and  C_2
REMARK    2  A    between atoms: C_9  and  C_10
REMARK    3  A    between atoms: C_10  and  N_11
REMARK    4  A    between atoms: N_11  and  C_12
REMARK    5  A    between atoms: C_15  and  C_16
REMARK                            x       y       z     vdW  Elec       q    Type
REMARK                         _______ _______ _______ _____ _____    ______ ____
ROOT
ATOM      1  C   UNL     1      44.916   9.501  11.578  0.00  0.00    +0.000 C 
ATOM      2  C   UNL     1      44.223  10.167  10.408  0.00  0.00    +0.000 C 
ATOM      3  C   UNL     1      43.840  10.572  11.788  0.00  0.00    +0.000 C 
ENDROOT
BRANCH   1  12
ATOM      4  C   UNL     1      48.657   8.693  16.103  0.00  0.00    +0.000 C 
ATOM      5  C   UNL     1      49.682   7.794  15.415  0.00  0.00    +0.000 C 
ATOM      6  C   UNL     1      50.192   8.333  14.058  0.00  0.00    +0.000 C 
ATOM      7  N   UNL     1      49.207   8.145  12.993  0.00  0.00    +0.000 N 
ATOM      8  C   UNL     1      48.400   9.217  12.677  0.00  0.00    +0.000 A 
ATOM      9  N   UNL     1      48.830  10.474  12.852  0.00  0.00    +0.000 NA
ATOM     10  C   UNL     1      47.996  11.465  12.500  0.00  0.00    +0.000 A 
ATOM     11  C   UNL     1      46.721  11.257  12.025  0.00  0.00    +0.000 A 
ATOM     12  C   UNL     1      46.332   9.942  11.919  0.00  0.00    +0.000 A 
ATOM     13  N   UNL     1      47.189   8.941  12.194  0.00  0.00    +0.000 NA
ATOM     14  C   UNL     1      48.622   6.796  12.932  0.00  0.00    +0.000 C 
ATOM     15  C   UNL     1      48.152   6.321  14.314  0.00  0.00    +0.000 C 
ATOM     16  O   UNL     1      49.186   6.445  15.304  0.00  0.00    +0.000 OA
ENDBRANCH   1  12
BRANCH   1  17
ATOM     17  N   UNL     1      44.534   8.198  12.167  0.00  0.00    +0.000 N 
ATOM     18  H   UNL     1      44.923   8.046  13.098  0.00  0.00    +0.000 HD
BRANCH  17  19
ATOM     19  C   UNL     1      44.428   7.007  11.435  0.00  0.00    +0.000 A 
ATOM     20  C   UNL     1      45.583   6.442  10.877  0.00  0.00    +0.000 A 
ATOM     21  C   UNL     1      45.528   5.210  10.232  0.00  0.00    +0.000 A 
ATOM     22  C   UNL     1      44.302   4.562  10.181  0.00  0.00    +0.000 A 
ATOM     23  N   UNL     1      43.154   5.058  10.724  0.00  0.00    +0.000 NA
ATOM     24  C   UNL     1      43.261   6.253  11.344  0.00  0.00    +0.000 A 
BRANCH  22  25
ATOM     25  C   UNL     1      44.170   3.231   9.513  0.00  0.00    +0.000 C 
ATOM     26  N   UNL     1      44.440   3.241   8.170  0.00  0.00    +0.000 N 
ATOM     27  O   UNL     1      43.850   2.211  10.108  0.00  0.00    +0.000 OA
ATOM     28  H   UNL     1      44.696   4.119   7.729  0.00  0.00    +0.000 HD
ATOM     29  H   UNL     1      44.378   2.391   7.632  0.00  0.00    +0.000 HD
ENDBRANCH  22  25
ENDBRANCH  17  19
ENDBRANCH   1  17
TORSDOF 4
ENDMDL
