MODEL 1
REMARK VINA RESULT:    -7.203      0.000      0.000
REMARK INTER + INTRA:         -11.167
REMARK INTER:                  -9.939
REMARK INTRA:                  -1.228
REMARK UNBOUND:                -1.228
REMARK  Name = 
REMARK  8 active torsions:
REMARK  status: ('A' for Active; 'I' for Inactive)
REMARK    1  A    between atoms: C_1  and  C_2
REMARK    2  A    between atoms: C_2  and  N_3
REMARK    3  A    between atoms: C_2  and  C_18
REMARK    4  A    between atoms: N_3  and  C_4
REMARK    5  A    between atoms: C_7  and  C_8
REMARK    6  A    between atoms: C_8  and  N_9
REMARK    7  A    between atoms: N_9  and  C_10
REMARK    8  A    between atoms: C_13  and  N_14
REMARK                            x       y       z     vdW  Elec       q    Type
REMARK                         _______ _______ _______ _____ _____    ______ ____
ROOT
ATOM      1  C   UNL     1      47.367   6.758  12.479  0.00  0.00    +0.000 A 
ATOM      2  C   UNL     1      48.013   7.873  13.013  0.00  0.00    +0.000 A 
ATOM      3  C   UNL     1      48.678   7.793  14.237  0.00  0.00    +0.000 A 
ATOM      4  C   UNL     1      48.626   6.603  14.955  0.00  0.00    +0.000 A 
ATOM      5  N   UNL     1      47.951   5.518  14.501  0.00  0.00    +0.000 NA
ATOM      6  C   UNL     1      47.354   5.620  13.286  0.00  0.00    +0.000 A 
ENDROOT
BRANCH   1   7
ATOM      7  N   UNL     1      46.669   6.910  11.268  0.00  0.00    +0.000 N 
ATOM      8  H   UNL     1      46.891   7.837  10.900  0.00  0.00    +0.000 HD
BRANCH   7  10
ATOM      9  C   UNL     1      44.561   7.467  12.433  0.00  0.00    +0.000 C 
ATOM     10  C   UNL     1      45.202   6.720  11.246  0.00  0.00    +0.000 C 
BRANCH  10  11
ATOM     11  C   UNL     1      44.759   5.263  11.312  0.00  0.00    +0.000 A 
ATOM     12  C   UNL     1      44.077   4.683  12.365  0.00  0.00    +0.000 A 
ATOM     13  S   UNL     1      43.572   3.082  12.043  0.00  0.00    +0.000 S 
ATOM     14  C   UNL     1      44.228   3.125  10.473  0.00  0.00    +0.000 A 
ATOM     15  N   UNL     1      44.063   2.100   9.600  0.00  0.00    +0.000 NA
ATOM     16  C   UNL     1      44.581   2.300   8.433  0.00  0.00    +0.000 A 
ATOM     17  N   UNL     1      45.291   3.418   8.075  0.00  0.00    +0.000 N 
ATOM     18  C   UNL     1      45.539   4.461   8.942  0.00  0.00    +0.000 A 
ATOM     19  O   UNL     1      46.243   5.410   8.626  0.00  0.00    +0.000 OA
ATOM     20  C   UNL     1      44.896   4.312  10.232  0.00  0.00    +0.000 A 
ATOM     21  H   UNL     1      45.704   3.499   7.156  0.00  0.00    +0.000 HD
ENDBRANCH  10  11
ENDBRANCH   7  10
ENDBRANCH   1   7
BRANCH   4  22
ATOM     22  C   UNL     1      49.271   6.526  16.326  0.00  0.00    +0.000 C 
BRANCH  22  23
ATOM     23  N   UNL     1      49.893   5.236  16.668  0.00  0.00    +0.000 NA
ATOM     24  H   UNL     1      50.882   5.439  16.845  0.00  0.00    +0.000 HD
BRANCH  23  25
ATOM     25  C   UNL     1      49.354   4.622  17.893  0.00  0.00    +0.000 C 
ATOM     26  C   UNL     1      47.857   4.891  18.100  0.00  0.00    +0.000 C 
ATOM     27  C   UNL     1      47.100   3.675  17.562  0.00  0.00    +0.000 C 
ATOM     28  C   UNL     1      48.147   2.691  17.033  0.00  0.00    +0.000 C 
ATOM     29  C   UNL     1      49.413   3.089  17.793  0.00  0.00    +0.000 C 
BRANCH  28  30
ATOM     30  N   UNL     1      48.327   2.823  15.588  0.00  0.00    +0.000 NA
ATOM     31  H   UNL     1      47.454   3.187  15.189  0.00  0.00    +0.000 HD
ATOM     32  H   UNL     1      48.483   1.909  15.169  0.00  0.00    +0.000 HD
ENDBRANCH  28  30
ENDBRANCH  23  25
ENDBRANCH  22  23
ENDBRANCH   4  22
TORSDOF 7
ENDMDL
MODEL 2
REMARK VINA RESULT:    -6.811      3.646      8.333
REMARK INTER + INTRA:         -10.627
REMARK INTER:                  -9.692
REMARK INTRA:                  -0.935
REMARK UNBOUND:                -1.228
REMARK  Name = 
REMARK  8 active torsions:
REMARK  status: ('A' for Active; 'I' for Inactive)
REMARK    1  A    between atoms: C_1  and  C_2
REMARK    2  A    between atoms: C_2  and  N_3
REMARK    3  A    between atoms: C_2  and  C_18
REMARK    4  A    between atoms: N_3  and  C_4
REMARK    5  A    between atoms: C_7  and  C_8
REMARK    6  A    between atoms: C_8  and  N_9
REMARK    7  A    between atoms: N_9  and  C_10
REMARK    8  A    between atoms: C_13  and  N_14
REMARK                            x       y       z     vdW  Elec       q    Type
REMARK                         _______ _______ _______ _____ _____    ______ ____
ROOT
ATOM      1  C   UNL     1      48.475   5.748  15.894  0.00  0.00    +0.000 A 
ATOM      2  C   UNL     1      47.525   4.762  15.624  0.00  0.00    +0.000 A 
ATOM      3  C   UNL     1      46.837   4.749  14.410  0.00  0.00    +0.000 A 
ATOM      4  C   UNL     1      47.058   5.776  13.500  0.00  0.00    +0.000 A 
ATOM      5  N   UNL     1      47.923   6.789  13.754  0.00  0.00    +0.000 NA
ATOM      6  C   UNL     1      48.607   6.744  14.926  0.00  0.00    +0.000 A 
ENDROOT
BRANCH   1   7
ATOM      7  N   UNL     1      49.100   5.743  17.153  0.00  0.00    +0.000 N 
ATOM      8  H   UNL     1      49.998   6.217  17.053  0.00  0.00    +0.000 HD
BRANCH   7  10
ATOM      9  C   UNL     1      48.558   4.469  19.202  0.00  0.00    +0.000 C 
ATOM     10  C   UNL     1      49.308   4.457  17.855  0.00  0.00    +0.000 C 
BRANCH  10  11
ATOM     11  C   UNL     1      50.769   4.125  18.132  0.00  0.00    +0.000 A 
ATOM     12  C   UNL     1      51.645   4.915  18.853  0.00  0.00    +0.000 A 
ATOM     13  S   UNL     1      53.157   4.168  19.133  0.00  0.00    +0.000 S 
ATOM     14  C   UNL     1      52.676   2.752  18.320  0.00  0.00    +0.000 A 
ATOM     15  N   UNL     1      53.468   1.652  18.271  0.00  0.00    +0.000 NA
ATOM     16  C   UNL     1      52.946   0.641  17.657  0.00  0.00    +0.000 A 
ATOM     17  N   UNL     1      51.718   0.649  17.046  0.00  0.00    +0.000 N 
ATOM     18  C   UNL     1      50.900   1.758  17.014  0.00  0.00    +0.000 A 
ATOM     19  O   UNL     1      49.846   1.766  16.394  0.00  0.00    +0.000 OA
ATOM     20  C   UNL     1      51.413   2.882  17.771  0.00  0.00    +0.000 A 
ATOM     21  H   UNL     1      51.381  -0.164  16.548  0.00  0.00    +0.000 HD
ENDBRANCH  10  11
ENDBRANCH   7  10
ENDBRANCH   1   7
BRANCH   4  22
ATOM     22  C   UNL     1      46.255   5.823  12.213  0.00  0.00    +0.000 C 
BRANCH  22  23
ATOM     23  N   UNL     1      44.797   5.683  12.365  0.00  0.00    +0.000 NA
ATOM     24  H   UNL     1      44.459   6.598  12.682  0.00  0.00    +0.000 HD
BRANCH  23  25
ATOM     25  C   UNL     1      44.095   5.378  11.108  0.00  0.00    +0.000 C 
ATOM     26  C   UNL     1      44.999   4.734  10.048  0.00  0.00    +0.000 C 
ATOM     27  C   UNL     1      44.794   3.221  10.135  0.00  0.00    +0.000 C 
ATOM     28  C   UNL     1      43.775   2.969  11.250  0.00  0.00    +0.000 C 
ATOM     29  C   UNL     1      43.025   4.299  11.341  0.00  0.00    +0.000 C 
BRANCH  28  30
ATOM     30  N   UNL     1      44.429   2.636  12.514  0.00  0.00    +0.000 NA
ATOM     31  H   UNL     1      45.274   3.214  12.598  0.00  0.00    +0.000 HD
ATOM     32  H   UNL     1      44.737   1.667  12.506  0.00  0.00    +0.000 HD
ENDBRANCH  28  30
ENDBRANCH  23  25
ENDBRANCH  22  23
ENDBRANCH   4  22
TORSDOF 7
ENDMDL
MODEL 3
REMARK VINA RESULT:    -6.067      3.245      4.662
REMARK INTER + INTRA:          -9.600
REMARK INTER:                  -8.811
REMARK INTRA:                  -0.789
REMARK UNBOUND:                -1.228
REMARK  Name = 
REMARK  8 active torsions:
REMARK  status: ('A' for Active; 'I' for Inactive)
REMARK    1  A    between atoms: C_1  and  C_2
REMARK    2  A    between atoms: C_2  and  N_3
REMARK    3  A    between atoms: C_2  and  C_18
REMARK    4  A    between atoms: N_3  and  C_4
REMARK    5  A    between atoms: C_7  and  C_8
REMARK    6  A    between atoms: C_8  and  N_9
REMARK    7  A    between atoms: N_9  and  C_10
REMARK    8  A    between atoms: C_13  and  N_14
REMARK                            x       y       z     vdW  Elec       q    Type
REMARK                         _______ _______ _______ _____ _____    ______ ____
ROOT
ATOM      1  C   UNL     1      48.967   6.064  16.070  0.00  0.00    +0.000 A 
ATOM      2  C   UNL     1      48.468   4.945  16.739  0.00  0.00    +0.000 A 
ATOM      3  C   UNL     1      49.263   4.242  17.644  0.00  0.00    +0.000 A 
ATOM      4  C   UNL     1      50.588   4.629  17.818  0.00  0.00    +0.000 A 
ATOM      5  N   UNL     1      51.129   5.669  17.136  0.00  0.00    +0.000 NA
ATOM      6  C   UNL     1      50.312   6.356  16.297  0.00  0.00    +0.000 A 
ENDROOT
BRANCH   1   7
ATOM      7  N   UNL     1      48.138   6.701  15.131  0.00  0.00    +0.000 N 
ATOM      8  H   UNL     1      47.183   6.664  15.489  0.00  0.00    +0.000 HD
BRANCH   7  10
ATOM      9  C   UNL     1      49.068   7.146  12.883  0.00  0.00    +0.000 C 
ATOM     10  C   UNL     1      48.146   6.240  13.724  0.00  0.00    +0.000 C 
BRANCH  10  11
ATOM     11  C   UNL     1      46.773   6.223  13.064  0.00  0.00    +0.000 A 
ATOM     12  C   UNL     1      46.118   7.329  12.553  0.00  0.00    +0.000 A 
ATOM     13  S   UNL     1      44.678   6.937  11.719  0.00  0.00    +0.000 S 
ATOM     14  C   UNL     1      44.900   5.272  11.994  0.00  0.00    +0.000 A 
ATOM     15  N   UNL     1      44.070   4.342  11.459  0.00  0.00    +0.000 NA
ATOM     16  C   UNL     1      44.394   3.118  11.721  0.00  0.00    +0.000 A 
ATOM     17  N   UNL     1      45.451   2.744  12.511  0.00  0.00    +0.000 N 
ATOM     18  C   UNL     1      46.288   3.648  13.128  0.00  0.00    +0.000 A 
ATOM     19  O   UNL     1      47.173   3.293  13.893  0.00  0.00    +0.000 OA
ATOM     20  C   UNL     1      46.010   5.029  12.783  0.00  0.00    +0.000 A 
ATOM     21  H   UNL     1      45.631   1.769  12.709  0.00  0.00    +0.000 HD
ENDBRANCH  10  11
ENDBRANCH   7  10
ENDBRANCH   1   7
BRANCH   4  22
ATOM     22  C   UNL     1      51.490   3.823  18.734  0.00  0.00    +0.000 C 
BRANCH  22  23
ATOM     23  N   UNL     1      52.042   2.585  18.158  0.00  0.00    +0.000 NA
ATOM     24  H   UNL     1      51.602   2.483  17.237  0.00  0.00    +0.000 HD
BRANCH  23  25
ATOM     25  C   UNL     1      53.497   2.631  17.935  0.00  0.00    +0.000 C 
ATOM     26  C   UNL     1      54.314   2.528  19.230  0.00  0.00    +0.000 C 
ATOM     27  C   UNL     1      54.726   1.064  19.391  0.00  0.00    +0.000 C 
ATOM     28  C   UNL     1      54.148   0.300  18.196  0.00  0.00    +0.000 C 
ATOM     29  C   UNL     1      53.956   1.395  17.145  0.00  0.00    +0.000 C 
BRANCH  28  30
ATOM     30  N   UNL     1      52.881  -0.347  18.532  0.00  0.00    +0.000 NA
ATOM     31  H   UNL     1      52.543   0.052  19.416  0.00  0.00    +0.000 HD
ATOM     32  H   UNL     1      53.026  -1.340  18.694  0.00  0.00    +0.000 HD
ENDBRANCH  28  30
ENDBRANCH  23  25
ENDBRANCH  22  23
ENDBRANCH   4  22
TORSDOF 7
ENDMDL
MODEL 4
REMARK VINA RESULT:    -6.042      2.644      3.918
REMARK INTER + INTRA:          -9.566
REMARK INTER:                  -7.653
REMARK INTRA:                  -1.913
REMARK UNBOUND:                -1.228
REMARK  Name = 
REMARK  8 active torsions:
REMARK  status: ('A' for Active; 'I' for Inactive)
REMARK    1  A    between atoms: C_1  and  C_2
REMARK    2  A    between atoms: C_2  and  N_3
REMARK    3  A    between atoms: C_2  and  C_18
REMARK    4  A    between atoms: N_3  and  C_4
REMARK    5  A    between atoms: C_7  and  C_8
REMARK    6  A    between atoms: C_8  and  N_9
REMARK    7  A    between atoms: N_9  and  C_10
REMARK    8  A    between atoms: C_13  and  N_14
REMARK                            x       y       z     vdW  Elec       q    Type
REMARK                         _______ _______ _______ _____ _____    ______ ____
ROOT
ATOM      1  C   UNL     1      49.695   8.778  14.710  0.00  0.00    +0.000 A 
ATOM      2  C   UNL     1      48.761   8.443  15.692  0.00  0.00    +0.000 A 
ATOM      3  C   UNL     1      49.057   7.478  16.657  0.00  0.00    +0.000 A 
ATOM      4  C   UNL     1      50.270   6.802  16.583  0.00  0.00    +0.000 A 
ATOM      5  N   UNL     1      51.175   7.053  15.604  0.00  0.00    +0.000 NA
ATOM      6  C   UNL     1      50.871   8.028  14.710  0.00  0.00    +0.000 A 
ENDROOT
BRANCH   1   7
ATOM      7  N   UNL     1      49.323   9.718  13.734  0.00  0.00    +0.000 N 
ATOM      8  H   UNL     1      48.595  10.310  14.138  0.00  0.00    +0.000 HD
BRANCH   7  10
ATOM      9  C   UNL     1      49.281  10.273  11.325  0.00  0.00    +0.000 C 
ATOM     10  C   UNL     1      48.880   9.247  12.403  0.00  0.00    +0.000 C 
BRANCH  10  11
ATOM     11  C   UNL     1      47.379   9.009  12.292  0.00  0.00    +0.000 A 
ATOM     12  C   UNL     1      46.433   9.983  12.031  0.00  0.00    +0.000 A 
ATOM     13  S   UNL     1      44.862   9.354  11.791  0.00  0.00    +0.000 S 
ATOM     14  C   UNL     1      45.404   7.755  12.003  0.00  0.00    +0.000 A 
ATOM     15  N   UNL     1      44.580   6.691  11.829  0.00  0.00    +0.000 NA
ATOM     16  C   UNL     1      45.149   5.540  11.981  0.00  0.00    +0.000 A 
ATOM     17  N   UNL     1      46.461   5.360  12.338  0.00  0.00    +0.000 N 
ATOM     18  C   UNL     1      47.324   6.405  12.586  0.00  0.00    +0.000 A 
ATOM     19  O   UNL     1      48.467   6.221  12.981  0.00  0.00    +0.000 OA
ATOM     20  C   UNL     1      46.746   7.711  12.336  0.00  0.00    +0.000 A 
ATOM     21  H   UNL     1      46.838   4.433  12.479  0.00  0.00    +0.000 HD
ENDBRANCH  10  11
ENDBRANCH   7  10
ENDBRANCH   1   7
BRANCH   4  22
ATOM     22  C   UNL     1      50.570   5.692  17.572  0.00  0.00    +0.000 C 
BRANCH  22  23
ATOM     23  N   UNL     1      50.423   4.321  17.056  0.00  0.00    +0.000 NA
ATOM     24  H   UNL     1      51.348   3.887  17.143  0.00  0.00    +0.000 HD
BRANCH  23  25
ATOM     25  C   UNL     1      49.486   3.491  17.833  0.00  0.00    +0.000 C 
ATOM     26  C   UNL     1      48.414   4.309  18.566  0.00  0.00    +0.000 C 
ATOM     27  C   UNL     1      47.161   4.304  17.688  0.00  0.00    +0.000 C 
ATOM     28  C   UNL     1      47.494   3.490  16.434  0.00  0.00    +0.000 C 
ATOM     29  C   UNL     1      48.653   2.604  16.893  0.00  0.00    +0.000 C 
BRANCH  28  30
ATOM     30  N   UNL     1      47.887   4.352  15.321  0.00  0.00    +0.000 NA
ATOM     31  H   UNL     1      47.953   3.772  14.476  0.00  0.00    +0.000 HD
ATOM     32  H   UNL     1      48.815   4.736  15.485  0.00  0.00    +0.000 HD
ENDBRANCH  28  30
ENDBRANCH  23  25
ENDBRANCH  22  23
ENDBRANCH   4  22
TORSDOF 7
ENDMDL
MODEL 5
REMARK VINA RESULT:    -5.981      1.372      2.051
REMARK INTER + INTRA:          -9.481
REMARK INTER:                  -8.817
REMARK INTRA:                  -0.665
REMARK UNBOUND:                -1.228
REMARK  Name = 
REMARK  8 active torsions:
REMARK  status: ('A' for Active; 'I' for Inactive)
REMARK    1  A    between atoms: C_1  and  C_2
REMARK    2  A    between atoms: C_2  and  N_3
REMARK    3  A    between atoms: C_2  and  C_18
REMARK    4  A    between atoms: N_3  and  C_4
REMARK    5  A    between atoms: C_7  and  C_8
REMARK    6  A    between atoms: C_8  and  N_9
REMARK    7  A    between atoms: N_9  and  C_10
REMARK    8  A    between atoms: C_13  and  N_14
REMARK                            x       y       z     vdW  Elec       q    Type
REMARK                         _______ _______ _______ _____ _____    ______ ____
ROOT
ATOM      1  C   UNL     1      47.532   6.763  12.617  0.00  0.00    +0.000 A 
ATOM      2  C   UNL     1      48.097   7.917  13.161  0.00  0.00    +0.000 A 
ATOM      3  C   UNL     1      48.711   7.888  14.414  0.00  0.00    +0.000 A 
ATOM      4  C   UNL     1      48.688   6.706  15.147  0.00  0.00    +0.000 A 
ATOM      5  N   UNL     1      48.089   5.581  14.681  0.00  0.00    +0.000 NA
ATOM      6  C   UNL     1      47.541   5.637  13.440  0.00  0.00    +0.000 A 
ENDROOT
BRANCH   1   7
ATOM      7  N   UNL     1      46.882   6.864  11.375  0.00  0.00    +0.000 N 
ATOM      8  H   UNL     1      47.156   7.754  10.956  0.00  0.00    +0.000 HD
BRANCH   7  10
ATOM      9  C   UNL     1      44.767   7.517  12.476  0.00  0.00    +0.000 C 
ATOM     10  C   UNL     1      45.409   6.734  11.313  0.00  0.00    +0.000 C 
BRANCH  10  11
ATOM     11  C   UNL     1      44.905   5.297  11.377  0.00  0.00    +0.000 A 
ATOM     12  C   UNL     1      44.235   4.733  12.447  0.00  0.00    +0.000 A 
ATOM     13  S   UNL     1      43.649   3.160  12.124  0.00  0.00    +0.000 S 
ATOM     14  C   UNL     1      44.250   3.196  10.532  0.00  0.00    +0.000 A 
ATOM     15  N   UNL     1      44.009   2.192   9.653  0.00  0.00    +0.000 NA
ATOM     16  C   UNL     1      44.494   2.385   8.470  0.00  0.00    +0.000 A 
ATOM     17  N   UNL     1      45.239   3.475   8.101  0.00  0.00    +0.000 N 
ATOM     18  C   UNL     1      45.564   4.494   8.971  0.00  0.00    +0.000 A 
ATOM     19  O   UNL     1      46.297   5.416   8.642  0.00  0.00    +0.000 OA
ATOM     20  C   UNL     1      44.961   4.356  10.282  0.00  0.00    +0.000 A 
ATOM     21  H   UNL     1      45.623   3.551   7.169  0.00  0.00    +0.000 HD
ENDBRANCH  10  11
ENDBRANCH   7  10
ENDBRANCH   1   7
BRANCH   4  22
ATOM     22  C   UNL     1      49.274   6.680  16.546  0.00  0.00    +0.000 C 
BRANCH  22  23
ATOM     23  N   UNL     1      48.307   6.831  17.647  0.00  0.00    +0.000 NA
ATOM     24  H   UNL     1      47.488   7.295  17.239  0.00  0.00    +0.000 HD
BRANCH  23  25
ATOM     25  C   UNL     1      47.842   5.552  18.208  0.00  0.00    +0.000 C 
ATOM     26  C   UNL     1      48.918   4.815  19.016  0.00  0.00    +0.000 C 
ATOM     27  C   UNL     1      48.692   5.157  20.490  0.00  0.00    +0.000 C 
ATOM     28  C   UNL     1      47.487   6.100  20.553  0.00  0.00    +0.000 C 
ATOM     29  C   UNL     1      46.741   5.797  19.253  0.00  0.00    +0.000 C 
BRANCH  28  30
ATOM     30  N   UNL     1      47.902   7.500  20.618  0.00  0.00    +0.000 NA
ATOM     31  H   UNL     1      47.106   8.054  20.955  0.00  0.00    +0.000 HD
ATOM     32  H   UNL     1      48.126   7.843  19.687  0.00  0.00    +0.000 HD
ENDBRANCH  28  30
ENDBRANCH  23  25
ENDBRANCH  22  23
ENDBRANCH   4  22
TORSDOF 7
ENDMDL
MODEL 6
REMARK VINA RESULT:    -5.859      3.318      8.153
REMARK INTER + INTRA:          -9.313
REMARK INTER:                  -8.224
REMARK INTRA:                  -1.089
REMARK UNBOUND:                -1.228
REMARK  Name = 
REMARK  8 active torsions:
REMARK  status: ('A' for Active; 'I' for Inactive)
REMARK    1  A    between atoms: C_1  and  C_2
REMARK    2  A    between atoms: C_2  and  N_3
REMARK    3  A    between atoms: C_2  and  C_18
REMARK    4  A    between atoms: N_3  and  C_4
REMARK    5  A    between atoms: C_7  and  C_8
REMARK    6  A    between atoms: C_8  and  N_9
REMARK    7  A    between atoms: N_9  and  C_10
REMARK    8  A    between atoms: C_13  and  N_14
REMARK                            x       y       z     vdW  Elec       q    Type
REMARK                         _______ _______ _______ _____ _____    ______ ____
ROOT
ATOM      1  C   UNL     1      48.318   6.851  13.968  0.00  0.00    +0.000 A 
ATOM      2  C   UNL     1      48.058   7.862  13.042  0.00  0.00    +0.000 A 
ATOM      3  C   UNL     1      47.003   7.746  12.137  0.00  0.00    +0.000 A 
ATOM      4  C   UNL     1      46.255   6.573  12.121  0.00  0.00    +0.000 A 
ATOM      5  N   UNL     1      46.519   5.541  12.960  0.00  0.00    +0.000 NA
ATOM      6  C   UNL     1      47.525   5.708  13.856  0.00  0.00    +0.000 A 
ENDROOT
BRANCH   1   7
ATOM      7  N   UNL     1      49.425   6.998  14.821  0.00  0.00    +0.000 N 
ATOM      8  H   UNL     1      49.889   6.091  14.881  0.00  0.00    +0.000 HD
BRANCH   7  10
ATOM      9  C   UNL     1      50.483   8.300  16.638  0.00  0.00    +0.000 C 
ATOM     10  C   UNL     1      49.224   7.531  16.187  0.00  0.00    +0.000 C 
BRANCH  10  11
ATOM     11  C   UNL     1      48.922   6.466  17.235  0.00  0.00    +0.000 A 
ATOM     12  C   UNL     1      49.300   5.139  17.157  0.00  0.00    +0.000 A 
ATOM     13  S   UNL     1      48.962   4.255  18.581  0.00  0.00    +0.000 S 
ATOM     14  C   UNL     1      48.324   5.629  19.356  0.00  0.00    +0.000 A 
ATOM     15  N   UNL     1      47.934   5.601  20.654  0.00  0.00    +0.000 NA
ATOM     16  C   UNL     1      47.513   6.734  21.114  0.00  0.00    +0.000 A 
ATOM     17  N   UNL     1      47.405   7.884  20.373  0.00  0.00    +0.000 N 
ATOM     18  C   UNL     1      47.730   7.951  19.036  0.00  0.00    +0.000 A 
ATOM     19  O   UNL     1      47.548   8.965  18.377  0.00  0.00    +0.000 OA
ATOM     20  C   UNL     1      48.292   6.723  18.510  0.00  0.00    +0.000 A 
ATOM     21  H   UNL     1      47.032   8.730  20.781  0.00  0.00    +0.000 HD
ENDBRANCH  10  11
ENDBRANCH   7  10
ENDBRANCH   1   7
BRANCH   4  22
ATOM     22  C   UNL     1      45.160   6.397  11.086  0.00  0.00    +0.000 C 
BRANCH  22  23
ATOM     23  N   UNL     1      45.452   5.441  10.005  0.00  0.00    +0.000 NA
ATOM     24  H   UNL     1      46.068   4.731  10.416  0.00  0.00    +0.000 HD
BRANCH  23  25
ATOM     25  C   UNL     1      44.263   4.737   9.497  0.00  0.00    +0.000 C 
ATOM     26  C   UNL     1      44.602   3.504   8.648  0.00  0.00    +0.000 C 
ATOM     27  C   UNL     1      44.516   2.284   9.567  0.00  0.00    +0.000 C 
ATOM     28  C   UNL     1      44.132   2.795  10.958  0.00  0.00    +0.000 C 
ATOM     29  C   UNL     1      43.460   4.136  10.662  0.00  0.00    +0.000 C 
BRANCH  28  30
ATOM     30  N   UNL     1      45.306   2.962  11.814  0.00  0.00    +0.000 NA
ATOM     31  H   UNL     1      44.981   3.206  12.757  0.00  0.00    +0.000 HD
ATOM     32  H   UNL     1      45.870   3.743  11.487  0.00  0.00    +0.000 HD
ENDBRANCH  28  30
ENDBRANCH  23  25
ENDBRANCH  22  23
ENDBRANCH   4  22
TORSDOF 7
ENDMDL
MODEL 7
REMARK VINA RESULT:    -5.820      2.925      4.434
REMARK INTER + INTRA:          -9.259
REMARK INTER:                  -8.094
REMARK INTRA:                  -1.165
REMARK UNBOUND:                -1.228
REMARK  Name = 
REMARK  8 active torsions:
REMARK  status: ('A' for Active; 'I' for Inactive)
REMARK    1  A    between atoms: C_1  and  C_2
REMARK    2  A    between atoms: C_2  and  N_3
REMARK    3  A    between atoms: C_2  and  C_18
REMARK    4  A    between atoms: N_3  and  C_4
REMARK    5  A    between atoms: C_7  and  C_8
REMARK    6  A    between atoms: C_8  and  N_9
REMARK    7  A    between atoms: N_9  and  C_10
REMARK    8  A    between atoms: C_13  and  N_14
REMARK                            x       y       z     vdW  Elec       q    Type
REMARK                         _______ _______ _______ _____ _____    ______ ____
ROOT
ATOM      1  C   UNL     1      48.656   6.564  15.949  0.00  0.00    +0.000 A 
ATOM      2  C   UNL     1      48.274   5.285  16.356  0.00  0.00    +0.000 A 
ATOM      3  C   UNL     1      48.891   4.670  17.446  0.00  0.00    +0.000 A 
ATOM      4  C   UNL     1      49.944   5.321  18.079  0.00  0.00    +0.000 A 
ATOM      5  N   UNL     1      50.389   6.536  17.671  0.00  0.00    +0.000 NA
ATOM      6  C   UNL     1      49.735   7.122  16.635  0.00  0.00    +0.000 A 
ENDROOT
BRANCH   1   7
ATOM      7  N   UNL     1      48.037   7.113  14.813  0.00  0.00    +0.000 N 
ATOM      8  H   UNL     1      47.093   7.394  15.083  0.00  0.00    +0.000 HD
BRANCH   7  10
ATOM      9  C   UNL     1      48.918   6.914  12.511  0.00  0.00    +0.000 C 
ATOM     10  C   UNL     1      47.966   6.316  13.568  0.00  0.00    +0.000 C 
BRANCH  10  11
ATOM     11  C   UNL     1      46.574   6.235  12.955  0.00  0.00    +0.000 A 
ATOM     12  C   UNL     1      45.863   7.304  12.442  0.00  0.00    +0.000 A 
ATOM     13  S   UNL     1      44.411   6.842  11.667  0.00  0.00    +0.000 S 
ATOM     14  C   UNL     1      44.703   5.193  11.970  0.00  0.00    +0.000 A 
ATOM     15  N   UNL     1      43.891   4.221  11.483  0.00  0.00    +0.000 NA
ATOM     16  C   UNL     1      44.268   3.016  11.760  0.00  0.00    +0.000 A 
ATOM     17  N   UNL     1      45.363   2.698  12.522  0.00  0.00    +0.000 N 
ATOM     18  C   UNL     1      46.186   3.646  13.091  0.00  0.00    +0.000 A 
ATOM     19  O   UNL     1      47.109   3.340  13.832  0.00  0.00    +0.000 OA
ATOM     20  C   UNL     1      45.846   5.007  12.726  0.00  0.00    +0.000 A 
ATOM     21  H   UNL     1      45.585   1.735  12.735  0.00  0.00    +0.000 HD
ENDBRANCH  10  11
ENDBRANCH   7  10
ENDBRANCH   1   7
BRANCH   4  22
ATOM     22  C   UNL     1      50.681   4.629  19.210  0.00  0.00    +0.000 C 
BRANCH  22  23
ATOM     23  N   UNL     1      51.655   3.602  18.804  0.00  0.00    +0.000 NA
ATOM     24  H   UNL     1      51.848   3.776  17.812  0.00  0.00    +0.000 HD
BRANCH  23  25
ATOM     25  C   UNL     1      52.942   3.690  19.514  0.00  0.00    +0.000 C 
ATOM     26  C   UNL     1      54.053   2.852  18.867  0.00  0.00    +0.000 C 
ATOM     27  C   UNL     1      54.867   3.791  17.974  0.00  0.00    +0.000 C 
ATOM     28  C   UNL     1      54.235   5.181  18.089  0.00  0.00    +0.000 C 
ATOM     29  C   UNL     1      53.502   5.119  19.430  0.00  0.00    +0.000 C 
BRANCH  28  30
ATOM     30  N   UNL     1      53.311   5.445  16.987  0.00  0.00    +0.000 NA
ATOM     31  H   UNL     1      53.353   6.448  16.769  0.00  0.00    +0.000 HD
ATOM     32  H   UNL     1      52.356   5.248  17.275  0.00  0.00    +0.000 HD
ENDBRANCH  28  30
ENDBRANCH  23  25
ENDBRANCH  22  23
ENDBRANCH   4  22
TORSDOF 7
ENDMDL
MODEL 8
REMARK VINA RESULT:    -5.758      3.257      7.562
REMARK INTER + INTRA:          -9.174
REMARK INTER:                  -7.872
REMARK INTRA:                  -1.302
REMARK UNBOUND:                -1.228
REMARK  Name = 
REMARK  8 active torsions:
REMARK  status: ('A' for Active; 'I' for Inactive)
REMARK    1  A    between atoms: C_1  and  C_2
REMARK    2  A    between atoms: C_2  and  N_3
REMARK    3  A    between atoms: C_2  and  C_18
REMARK    4  A    between atoms: N_3  and  C_4
REMARK    5  A    between atoms: C_7  and  C_8
REMARK    6  A    between atoms: C_8  and  N_9
REMARK    7  A    between atoms: N_9  and  C_10
REMARK    8  A    between atoms: C_13  and  N_14
REMARK                            x       y       z     vdW  Elec       q    Type
REMARK                         _______ _______ _______ _____ _____    ______ ____
ROOT
ATOM      1  C   UNL     1      48.621   7.032  13.763  0.00  0.00    +0.000 A 
ATOM      2  C   UNL     1      48.407   7.977  12.759  0.00  0.00    +0.000 A 
ATOM      3  C   UNL     1      47.197   8.019  12.066  0.00  0.00    +0.000 A 
ATOM      4  C   UNL     1      46.231   7.057  12.340  0.00  0.00    +0.000 A 
ATOM      5  N   UNL     1      46.428   6.081  13.261  0.00  0.00    +0.000 NA
ATOM      6  C   UNL     1      47.600   6.099  13.946  0.00  0.00    +0.000 A 
ENDROOT
BRANCH   1   7
ATOM      7  N   UNL     1      49.878   7.003  14.392  0.00  0.00    +0.000 N 
ATOM      8  H   UNL     1      49.935   6.134  14.925  0.00  0.00    +0.000 HD
BRANCH   7  10
ATOM      9  C   UNL     1      51.756   7.967  15.680  0.00  0.00    +0.000 C 
ATOM     10  C   UNL     1      50.280   8.130  15.263  0.00  0.00    +0.000 C 
BRANCH  10  11
ATOM     11  C   UNL     1      49.445   8.272  16.529  0.00  0.00    +0.000 A 
ATOM     12  C   UNL     1      48.862   9.444  16.974  0.00  0.00    +0.000 A 
ATOM     13  S   UNL     1      47.843   9.221  18.329  0.00  0.00    +0.000 S 
ATOM     14  C   UNL     1      48.130   7.543  18.344  0.00  0.00    +0.000 A 
ATOM     15  N   UNL     1      47.482   6.715  19.201  0.00  0.00    +0.000 NA
ATOM     16  C   UNL     1      47.773   5.463  19.062  0.00  0.00    +0.000 A 
ATOM     17  N   UNL     1      48.692   4.971  18.170  0.00  0.00    +0.000 N 
ATOM     18  C   UNL     1      49.421   5.774  17.320  0.00  0.00    +0.000 A 
ATOM     19  O   UNL     1      50.293   5.321  16.592  0.00  0.00    +0.000 OA
ATOM     20  C   UNL     1      49.055   7.175  17.385  0.00  0.00    +0.000 A 
ATOM     21  H   UNL     1      48.904   3.983  18.135  0.00  0.00    +0.000 HD
ENDBRANCH  10  11
ENDBRANCH   7  10
ENDBRANCH   1   7
BRANCH   4  22
ATOM     22  C   UNL     1      44.945   7.036  11.535  0.00  0.00    +0.000 C 
BRANCH  22  23
ATOM     23  N   UNL     1      43.873   6.177  12.066  0.00  0.00    +0.000 NA
ATOM     24  H   UNL     1      43.109   6.810  12.325  0.00  0.00    +0.000 HD
BRANCH  23  25
ATOM     25  C   UNL     1      43.330   5.227  11.081  0.00  0.00    +0.000 C 
ATOM     26  C   UNL     1      44.353   4.800  10.020  0.00  0.00    +0.000 C 
ATOM     27  C   UNL     1      44.948   3.466  10.475  0.00  0.00    +0.000 C 
ATOM     28  C   UNL     1      44.282   3.108  11.806  0.00  0.00    +0.000 C 
ATOM     29  C   UNL     1      42.972   3.896  11.763  0.00  0.00    +0.000 C 
BRANCH  28  30
ATOM     30  N   UNL     1      45.108   3.505  12.946  0.00  0.00    +0.000 NA
ATOM     31  H   UNL     1      45.264   2.676  13.531  0.00  0.00    +0.000 HD
ATOM     32  H   UNL     1      44.611   4.181  13.521  0.00  0.00    +0.000 HD
ENDBRANCH  28  30
ENDBRANCH  23  25
ENDBRANCH  22  23
ENDBRANCH   4  22
TORSDOF 7
ENDMDL
MODEL 9
REMARK VINA RESULT:    -5.704      3.424      7.787
REMARK INTER + INTRA:          -9.099
REMARK INTER:                  -7.772
REMARK INTRA:                  -1.326
REMARK UNBOUND:                -1.228
REMARK  Name = 
REMARK  8 active torsions:
REMARK  status: ('A' for Active; 'I' for Inactive)
REMARK    1  A    between atoms: C_1  and  C_2
REMARK    2  A    between atoms: C_2  and  N_3
REMARK    3  A    between atoms: C_2  and  C_18
REMARK    4  A    between atoms: N_3  and  C_4
REMARK    5  A    between atoms: C_7  and  C_8
REMARK    6  A    between atoms: C_8  and  N_9
REMARK    7  A    between atoms: N_9  and  C_10
REMARK    8  A    between atoms: C_13  and  N_14
REMARK                            x       y       z     vdW  Elec       q    Type
REMARK                         _______ _______ _______ _____ _____    ______ ____
ROOT
ATOM      1  C   UNL     1      48.824   7.316  13.199  0.00  0.00    +0.000 A 
ATOM      2  C   UNL     1      48.245   8.464  12.657  0.00  0.00    +0.000 A 
ATOM      3  C   UNL     1      46.944   8.436  12.153  0.00  0.00    +0.000 A 
ATOM      4  C   UNL     1      46.255   7.228  12.134  0.00  0.00    +0.000 A 
ATOM      5  N   UNL     1      46.809   6.077  12.590  0.00  0.00    +0.000 NA
ATOM      6  C   UNL     1      48.060   6.152  13.113  0.00  0.00    +0.000 A 
ENDROOT
BRANCH   1   7
ATOM      7  N   UNL     1      50.155   7.389  13.644  0.00  0.00    +0.000 N 
ATOM      8  H   UNL     1      50.566   6.461  13.538  0.00  0.00    +0.000 HD
BRANCH   7  10
ATOM      9  C   UNL     1      51.133   9.266  14.922  0.00  0.00    +0.000 C 
ATOM     10  C   UNL     1      50.439   7.891  15.007  0.00  0.00    +0.000 C 
BRANCH  10  11
ATOM     11  C   UNL     1      51.320   6.970  15.842  0.00  0.00    +0.000 A 
ATOM     12  C   UNL     1      52.702   6.987  15.861  0.00  0.00    +0.000 A 
ATOM     13  S   UNL     1      53.375   5.948  17.040  0.00  0.00    +0.000 S 
ATOM     14  C   UNL     1      51.835   5.464  17.581  0.00  0.00    +0.000 A 
ATOM     15  N   UNL     1      51.677   4.649  18.653  0.00  0.00    +0.000 NA
ATOM     16  C   UNL     1      50.447   4.407  18.968  0.00  0.00    +0.000 A 
ATOM     17  N   UNL     1      49.359   4.874  18.276  0.00  0.00    +0.000 N 
ATOM     18  C   UNL     1      49.464   5.655  17.145  0.00  0.00    +0.000 A 
ATOM     19  O   UNL     1      48.483   5.992  16.498  0.00  0.00    +0.000 OA
ATOM     20  C   UNL     1      50.828   6.022  16.815  0.00  0.00    +0.000 A 
ATOM     21  H   UNL     1      48.420   4.618  18.550  0.00  0.00    +0.000 HD
ENDBRANCH  10  11
ENDBRANCH   7  10
ENDBRANCH   1   7
BRANCH   4  22
ATOM     22  C   UNL     1      44.873   7.163  11.511  0.00  0.00    +0.000 C 
BRANCH  22  23
ATOM     23  N   UNL     1      43.909   6.279  12.188  0.00  0.00    +0.000 NA
ATOM     24  H   UNL     1      43.151   6.888  12.513  0.00  0.00    +0.000 HD
BRANCH  23  25
ATOM     25  C   UNL     1      43.302   5.272  11.302  0.00  0.00    +0.000 C 
ATOM     26  C   UNL     1      44.244   4.798  10.187  0.00  0.00    +0.000 C 
ATOM     27  C   UNL     1      44.890   3.495  10.663  0.00  0.00    +0.000 C 
ATOM     28  C   UNL     1      44.337   3.204  12.061  0.00  0.00    +0.000 C 
ATOM     29  C   UNL     1      43.017   3.977  12.080  0.00  0.00    +0.000 C 
BRANCH  28  30
ATOM     30  N   UNL     1      45.244   3.669  13.108  0.00  0.00    +0.000 NA
ATOM     31  H   UNL     1      44.958   4.617  13.381  0.00  0.00    +0.000 HD
ATOM     32  H   UNL     1      46.192   3.743  12.744  0.00  0.00    +0.000 HD
ENDBRANCH  28  30
ENDBRANCH  23  25
ENDBRANCH  22  23
ENDBRANCH   4  22
TORSDOF 7
ENDMDL
