MODEL 1
REMARK VINA RESULT:    -8.212      0.000      0.000
REMARK INTER + INTRA:         -12.260
REMARK INTER:                 -11.333
REMARK INTRA:                  -0.926
REMARK UNBOUND:                -0.926
REMARK  Name = 
REMARK  7 active torsions:
REMARK  status: ('A' for Active; 'I' for Inactive)
REMARK    1  A    between atoms: N_1  and  C_2
REMARK    2  A    between atoms: C_2  and  C_3
REMARK    3  A    between atoms: C_3  and  N_4
REMARK    4  A    between atoms: C_3  and  C_17
REMARK    5  A    between atoms: C_5  and  C_7
REMARK    6  A    between atoms: C_20  and  C_21
REMARK    7  A    between atoms: C_21  and  C_22
REMARK                            x       y       z     vdW  Elec       q    Type
REMARK                         _______ _______ _______ _____ _____    ______ ____
ROOT
ATOM      1  C   UNL     1      46.203   7.948  12.567  0.00  0.00    +0.000 C 
ENDROOT
BRANCH   1   2
ATOM      2  C   UNL     1      45.770   6.732  11.746  0.00  0.00    +0.000 A 
ATOM      3  C   UNL     1      44.734   5.903  12.201  0.00  0.00    +0.000 A 
ATOM      4  C   UNL     1      44.319   4.797  11.450  0.00  0.00    +0.000 A 
ATOM      5  C   UNL     1      44.913   4.504  10.215  0.00  0.00    +0.000 A 
ATOM      6  C   UNL     1      45.943   5.332   9.754  0.00  0.00    +0.000 A 
ATOM      7  C   UNL     1      46.371   6.428  10.512  0.00  0.00    +0.000 A 
BRANCH   5   8
ATOM      8  C   UNL     1      44.461   3.315   9.394  0.00  0.00    +0.000 C 
BRANCH   8   9
ATOM      9  C   UNL     1      45.472   2.754   8.416  0.00  0.00    +0.000 A 
ATOM     10  C   UNL     1      45.817   3.451   7.259  0.00  0.00    +0.000 A 
ATOM     11  C   UNL     1      46.633   2.838   6.312  0.00  0.00    +0.000 A 
ATOM     12  C   UNL     1      47.092   1.548   6.541  0.00  0.00    +0.000 A 
ATOM     13  C   UNL     1      46.727   0.930   7.724  0.00  0.00    +0.000 A 
ATOM     14  N   UNL     1      45.932   1.498   8.658  0.00  0.00    +0.000 NA
ENDBRANCH   8   9
ENDBRANCH   5   8
ENDBRANCH   1   2
BRANCH   1  15
ATOM     15  N   UNL     1      46.829   7.474  13.797  0.00  0.00    +0.000 N 
ATOM     16  C   UNL     1      48.138   7.074  13.866  0.00  0.00    +0.000 C 
ATOM     17  O   UNL     1      48.930   7.199  12.939  0.00  0.00    +0.000 OA
ATOM     18  H   UNL     1      46.187   7.127  14.500  0.00  0.00    +0.000 HD
BRANCH  16  19
ATOM     19  C   UNL     1      48.564   6.536  15.161  0.00  0.00    +0.000 A 
ATOM     20  C   UNL     1      49.564   7.165  15.890  0.00  0.00    +0.000 A 
ATOM     21  S   UNL     1      49.903   6.396  17.375  0.00  0.00    +0.000 S 
ATOM     22  C   UNL     1      48.764   5.167  17.066  0.00  0.00    +0.000 A 
ATOM     23  N   UNL     1      48.579   4.141  17.936  0.00  0.00    +0.000 NA
ATOM     24  C   UNL     1      47.710   3.263  17.550  0.00  0.00    +0.000 A 
ATOM     25  N   UNL     1      47.003   3.326  16.378  0.00  0.00    +0.000 N 
ATOM     26  C   UNL     1      47.121   4.367  15.497  0.00  0.00    +0.000 A 
ATOM     27  O   UNL     1      46.411   4.440  14.503  0.00  0.00    +0.000 OA
ATOM     28  C   UNL     1      48.112   5.363  15.862  0.00  0.00    +0.000 A 
ATOM     29  H   UNL     1      46.318   2.623  16.146  0.00  0.00    +0.000 HD
ENDBRANCH  16  19
ENDBRANCH   1  15
BRANCH   1  30
ATOM     30  C   UNL     1      45.015   8.914  12.860  0.00  0.00    +0.000 C 
BRANCH  30  31
ATOM     31  N   UNL     1      45.211  10.293  12.397  0.00  0.00    +0.000 NA
ATOM     32  H   UNL     1      44.849  10.369  11.447  0.00  0.00    +0.000 HD
ATOM     33  H   UNL     1      46.211  10.492  12.339  0.00  0.00    +0.000 HD
ENDBRANCH  30  31
ENDBRANCH   1  30
TORSDOF 7
ENDMDL
MODEL 2
REMARK VINA RESULT:    -7.965      2.301      3.037
REMARK INTER + INTRA:         -11.918
REMARK INTER:                 -10.606
REMARK INTRA:                  -1.312
REMARK UNBOUND:                -0.926
REMARK  Name = 
REMARK  7 active torsions:
REMARK  status: ('A' for Active; 'I' for Inactive)
REMARK    1  A    between atoms: N_1  and  C_2
REMARK    2  A    between atoms: C_2  and  C_3
REMARK    3  A    between atoms: C_3  and  N_4
REMARK    4  A    between atoms: C_3  and  C_17
REMARK    5  A    between atoms: C_5  and  C_7
REMARK    6  A    between atoms: C_20  and  C_21
REMARK    7  A    between atoms: C_21  and  C_22
REMARK                            x       y       z     vdW  Elec       q    Type
REMARK                         _______ _______ _______ _____ _____    ______ ____
ROOT
ATOM      1  C   UNL     1      47.990   7.228  13.890  0.00  0.00    +0.000 C 
ENDROOT
BRANCH   1   2
ATOM      2  C   UNL     1      47.050   6.451  12.967  0.00  0.00    +0.000 A 
ATOM      3  C   UNL     1      46.594   7.029  11.772  0.00  0.00    +0.000 A 
ATOM      4  C   UNL     1      45.747   6.320  10.912  0.00  0.00    +0.000 A 
ATOM      5  C   UNL     1      45.351   5.011  11.211  0.00  0.00    +0.000 A 
ATOM      6  C   UNL     1      45.808   4.428  12.399  0.00  0.00    +0.000 A 
ATOM      7  C   UNL     1      46.642   5.141  13.269  0.00  0.00    +0.000 A 
BRANCH   5   8
ATOM      8  C   UNL     1      44.443   4.237  10.279  0.00  0.00    +0.000 C 
BRANCH   8   9
ATOM      9  C   UNL     1      45.121   3.504   9.140  0.00  0.00    +0.000 A 
ATOM     10  C   UNL     1      45.327   2.126   9.195  0.00  0.00    +0.000 A 
ATOM     11  C   UNL     1      46.086   1.511   8.201  0.00  0.00    +0.000 A 
ATOM     12  C   UNL     1      46.615   2.280   7.174  0.00  0.00    +0.000 A 
ATOM     13  C   UNL     1      46.348   3.638   7.176  0.00  0.00    +0.000 A 
ATOM     14  N   UNL     1      45.620   4.262   8.129  0.00  0.00    +0.000 NA
ENDBRANCH   8   9
ENDBRANCH   5   8
ENDBRANCH   1   2
BRANCH   1  15
ATOM     15  N   UNL     1      47.939   6.621  15.216  0.00  0.00    +0.000 N 
ATOM     16  C   UNL     1      49.058   6.237  15.908  0.00  0.00    +0.000 C 
ATOM     17  O   UNL     1      50.199   6.485  15.535  0.00  0.00    +0.000 OA
ATOM     18  H   UNL     1      47.058   6.182  15.454  0.00  0.00    +0.000 HD
BRANCH  16  19
ATOM     19  C   UNL     1      48.807   5.555  17.181  0.00  0.00    +0.000 A 
ATOM     20  C   UNL     1      48.975   4.181  17.288  0.00  0.00    +0.000 A 
ATOM     21  S   UNL     1      48.650   3.581  18.851  0.00  0.00    +0.000 S 
ATOM     22  C   UNL     1      48.219   5.128  19.420  0.00  0.00    +0.000 A 
ATOM     23  N   UNL     1      47.790   5.318  20.695  0.00  0.00    +0.000 NA
ATOM     24  C   UNL     1      47.462   6.538  20.972  0.00  0.00    +0.000 A 
ATOM     25  N   UNL     1      47.535   7.586  20.094  0.00  0.00    +0.000 N 
ATOM     26  C   UNL     1      48.009   7.450  18.816  0.00  0.00    +0.000 A 
ATOM     27  O   UNL     1      48.147   8.421  18.084  0.00  0.00    +0.000 OA
ATOM     28  C   UNL     1      48.356   6.092  18.438  0.00  0.00    +0.000 A 
ATOM     29  H   UNL     1      47.290   8.522  20.378  0.00  0.00    +0.000 HD
ENDBRANCH  16  19
ENDBRANCH   1  15
BRANCH   1  30
ATOM     30  C   UNL     1      47.646   8.747  13.938  0.00  0.00    +0.000 C 
BRANCH  30  31
ATOM     31  N   UNL     1      47.447   9.293  15.286  0.00  0.00    +0.000 NA
ATOM     32  H   UNL     1      46.684   9.967  15.252  0.00  0.00    +0.000 HD
ATOM     33  H   UNL     1      48.279   9.815  15.566  0.00  0.00    +0.000 HD
ENDBRANCH  30  31
ENDBRANCH   1  30
TORSDOF 7
ENDMDL
MODEL 3
REMARK VINA RESULT:    -7.831      2.660      4.099
REMARK INTER + INTRA:         -11.733
REMARK INTER:                 -10.397
REMARK INTRA:                  -1.336
REMARK UNBOUND:                -0.926
REMARK  Name = 
REMARK  7 active torsions:
REMARK  status: ('A' for Active; 'I' for Inactive)
REMARK    1  A    between atoms: N_1  and  C_2
REMARK    2  A    between atoms: C_2  and  C_3
REMARK    3  A    between atoms: C_3  and  N_4
REMARK    4  A    between atoms: C_3  and  C_17
REMARK    5  A    between atoms: C_5  and  C_7
REMARK    6  A    between atoms: C_20  and  C_21
REMARK    7  A    between atoms: C_21  and  C_22
REMARK                            x       y       z     vdW  Elec       q    Type
REMARK                         _______ _______ _______ _____ _____    ______ ____
ROOT
ATOM      1  C   UNL     1      46.380   5.688  13.621  0.00  0.00    +0.000 C 
ENDROOT
BRANCH   1   2
ATOM      2  C   UNL     1      45.886   5.124  12.287  0.00  0.00    +0.000 A 
ATOM      3  C   UNL     1      46.010   5.879  11.111  0.00  0.00    +0.000 A 
ATOM      4  C   UNL     1      45.578   5.366   9.882  0.00  0.00    +0.000 A 
ATOM      5  C   UNL     1      45.030   4.080   9.794  0.00  0.00    +0.000 A 
ATOM      6  C   UNL     1      44.910   3.321  10.964  0.00  0.00    +0.000 A 
ATOM      7  C   UNL     1      45.327   3.839  12.196  0.00  0.00    +0.000 A 
BRANCH   5   8
ATOM      8  C   UNL     1      44.570   3.518   8.466  0.00  0.00    +0.000 C 
BRANCH   8   9
ATOM      9  C   UNL     1      45.637   2.873   7.606  0.00  0.00    +0.000 A 
ATOM     10  C   UNL     1      46.256   1.687   7.998  0.00  0.00    +0.000 A 
ATOM     11  C   UNL     1      47.335   1.205   7.260  0.00  0.00    +0.000 A 
ATOM     12  C   UNL     1      47.768   1.911   6.146  0.00  0.00    +0.000 A 
ATOM     13  C   UNL     1      47.088   3.067   5.806  0.00  0.00    +0.000 A 
ATOM     14  N   UNL     1      46.041   3.561   6.506  0.00  0.00    +0.000 NA
ENDBRANCH   8   9
ENDBRANCH   5   8
ENDBRANCH   1   2
BRANCH   1  15
ATOM     15  N   UNL     1      47.564   6.501  13.367  0.00  0.00    +0.000 N 
ATOM     16  C   UNL     1      47.540   7.872  13.337  0.00  0.00    +0.000 C 
ATOM     17  O   UNL     1      46.557   8.534  13.645  0.00  0.00    +0.000 OA
ATOM     18  H   UNL     1      48.315   6.027  12.879  0.00  0.00    +0.000 HD
BRANCH  16  19
ATOM     19  C   UNL     1      48.804   8.515  12.968  0.00  0.00    +0.000 A 
ATOM     20  C   UNL     1      48.855   9.410  11.909  0.00  0.00    +0.000 A 
ATOM     21  S   UNL     1      50.411  10.062  11.650  0.00  0.00    +0.000 S 
ATOM     22  C   UNL     1      51.077   9.126  12.908  0.00  0.00    +0.000 A 
ATOM     23  N   UNL     1      52.404   9.173  13.197  0.00  0.00    +0.000 NA
ATOM     24  C   UNL     1      52.770   8.380  14.151  0.00  0.00    +0.000 A 
ATOM     25  N   UNL     1      51.929   7.553  14.849  0.00  0.00    +0.000 N 
ATOM     26  C   UNL     1      50.579   7.512  14.625  0.00  0.00    +0.000 A 
ATOM     27  O   UNL     1      49.841   6.830  15.324  0.00  0.00    +0.000 OA
ATOM     28  C   UNL     1      50.116   8.355  13.537  0.00  0.00    +0.000 A 
ATOM     29  H   UNL     1      52.273   6.977  15.601  0.00  0.00    +0.000 HD
ENDBRANCH  16  19
ENDBRANCH   1  15
BRANCH   1  30
ATOM     30  C   UNL     1      46.665   4.566  14.665  0.00  0.00    +0.000 C 
BRANCH  30  31
ATOM     31  N   UNL     1      47.675   4.904  15.675  0.00  0.00    +0.000 NA
ATOM     32  H   UNL     1      48.556   4.466  15.410  0.00  0.00    +0.000 HD
ATOM     33  H   UNL     1      47.409   4.494  16.572  0.00  0.00    +0.000 HD
ENDBRANCH  30  31
ENDBRANCH   1  30
TORSDOF 7
ENDMDL
MODEL 4
REMARK VINA RESULT:    -7.761      1.402      2.074
REMARK INTER + INTRA:         -11.636
REMARK INTER:                 -10.811
REMARK INTRA:                  -0.825
REMARK UNBOUND:                -0.926
REMARK  Name = 
REMARK  7 active torsions:
REMARK  status: ('A' for Active; 'I' for Inactive)
REMARK    1  A    between atoms: N_1  and  C_2
REMARK    2  A    between atoms: C_2  and  C_3
REMARK    3  A    between atoms: C_3  and  N_4
REMARK    4  A    between atoms: C_3  and  C_17
REMARK    5  A    between atoms: C_5  and  C_7
REMARK    6  A    between atoms: C_20  and  C_21
REMARK    7  A    between atoms: C_21  and  C_22
REMARK                            x       y       z     vdW  Elec       q    Type
REMARK                         _______ _______ _______ _____ _____    ______ ____
ROOT
ATOM      1  C   UNL     1      46.414   7.332  12.722  0.00  0.00    +0.000 C 
ENDROOT
BRANCH   1   2
ATOM      2  C   UNL     1      45.964   6.247  11.741  0.00  0.00    +0.000 A 
ATOM      3  C   UNL     1      45.282   5.113  12.205  0.00  0.00    +0.000 A 
ATOM      4  C   UNL     1      44.850   4.122  11.315  0.00  0.00    +0.000 A 
ATOM      5  C   UNL     1      45.071   4.249   9.937  0.00  0.00    +0.000 A 
ATOM      6  C   UNL     1      45.747   5.383   9.469  0.00  0.00    +0.000 A 
ATOM      7  C   UNL     1      46.193   6.366  10.360  0.00  0.00    +0.000 A 
BRANCH   5   8
ATOM      8  C   UNL     1      44.598   3.186   8.969  0.00  0.00    +0.000 C 
BRANCH   8   9
ATOM      9  C   UNL     1      45.659   2.568   8.083  0.00  0.00    +0.000 A 
ATOM     10  C   UNL     1      46.096   3.214   6.927  0.00  0.00    +0.000 A 
ATOM     11  C   UNL     1      46.960   2.549   6.060  0.00  0.00    +0.000 A 
ATOM     12  C   UNL     1      47.374   1.260   6.367  0.00  0.00    +0.000 A 
ATOM     13  C   UNL     1      46.917   0.694   7.544  0.00  0.00    +0.000 A 
ATOM     14  N   UNL     1      46.074   1.313   8.401  0.00  0.00    +0.000 NA
ENDBRANCH   8   9
ENDBRANCH   5   8
ENDBRANCH   1   2
BRANCH   1  15
ATOM     15  N   UNL     1      46.711   6.700  14.003  0.00  0.00    +0.000 N 
ATOM     16  C   UNL     1      47.923   6.131  14.296  0.00  0.00    +0.000 C 
ATOM     17  O   UNL     1      48.900   6.214  13.562  0.00  0.00    +0.000 OA
ATOM     18  H   UNL     1      45.901   6.392  14.528  0.00  0.00    +0.000 HD
BRANCH  16  19
ATOM     19  C   UNL     1      48.004   5.457  15.595  0.00  0.00    +0.000 A 
ATOM     20  C   UNL     1      47.356   4.246  15.800  0.00  0.00    +0.000 A 
ATOM     21  S   UNL     1      47.584   3.616  17.369  0.00  0.00    +0.000 S 
ATOM     22  C   UNL     1      48.508   4.967  17.841  0.00  0.00    +0.000 A 
ATOM     23  N   UNL     1      48.991   5.086  19.106  0.00  0.00    +0.000 NA
ATOM     24  C   UNL     1      49.640   6.182  19.328  0.00  0.00    +0.000 A 
ATOM     25  N   UNL     1      49.862   7.164  18.398  0.00  0.00    +0.000 N 
ATOM     26  C   UNL     1      49.437   7.062  17.100  0.00  0.00    +0.000 A 
ATOM     27  O   UNL     1      49.727   7.914  16.270  0.00  0.00    +0.000 OA
ATOM     28  C   UNL     1      48.667   5.867  16.803  0.00  0.00    +0.000 A 
ATOM     29  H   UNL     1      50.400   7.985  18.626  0.00  0.00    +0.000 HD
ENDBRANCH  16  19
ENDBRANCH   1  15
BRANCH   1  30
ATOM     30  C   UNL     1      45.357   8.467  12.870  0.00  0.00    +0.000 C 
BRANCH  30  31
ATOM     31  N   UNL     1      45.874   9.825  12.661  0.00  0.00    +0.000 NA
ATOM     32  H   UNL     1      46.240   9.888  11.712  0.00  0.00    +0.000 HD
ATOM     33  H   UNL     1      46.666   9.985  13.285  0.00  0.00    +0.000 HD
ENDBRANCH  30  31
ENDBRANCH   1  30
TORSDOF 7
ENDMDL
MODEL 5
REMARK VINA RESULT:    -7.409      2.596      4.448
REMARK INTER + INTRA:         -11.151
REMARK INTER:                  -9.791
REMARK INTRA:                  -1.360
REMARK UNBOUND:                -0.926
REMARK  Name = 
REMARK  7 active torsions:
REMARK  status: ('A' for Active; 'I' for Inactive)
REMARK    1  A    between atoms: N_1  and  C_2
REMARK    2  A    between atoms: C_2  and  C_3
REMARK    3  A    between atoms: C_3  and  N_4
REMARK    4  A    between atoms: C_3  and  C_17
REMARK    5  A    between atoms: C_5  and  C_7
REMARK    6  A    between atoms: C_20  and  C_21
REMARK    7  A    between atoms: C_21  and  C_22
REMARK                            x       y       z     vdW  Elec       q    Type
REMARK                         _______ _______ _______ _____ _____    ______ ____
ROOT
ATOM      1  C   UNL     1      46.957   5.631  14.283  0.00  0.00    +0.000 C 
ENDROOT
BRANCH   1   2
ATOM      2  C   UNL     1      46.325   5.148  12.976  0.00  0.00    +0.000 A 
ATOM      3  C   UNL     1      45.729   3.881  12.905  0.00  0.00    +0.000 A 
ATOM      4  C   UNL     1      45.132   3.435  11.719  0.00  0.00    +0.000 A 
ATOM      5  C   UNL     1      45.097   4.253  10.582  0.00  0.00    +0.000 A 
ATOM      6  C   UNL     1      45.685   5.521  10.650  0.00  0.00    +0.000 A 
ATOM      7  C   UNL     1      46.297   5.961  11.830  0.00  0.00    +0.000 A 
BRANCH   5   8
ATOM      8  C   UNL     1      44.444   3.780   9.301  0.00  0.00    +0.000 C 
BRANCH   8   9
ATOM      9  C   UNL     1      45.353   3.098   8.299  0.00  0.00    +0.000 A 
ATOM     10  C   UNL     1      45.779   1.785   8.492  0.00  0.00    +0.000 A 
ATOM     11  C   UNL     1      46.731   1.244   7.631  0.00  0.00    +0.000 A 
ATOM     12  C   UNL     1      47.231   2.020   6.595  0.00  0.00    +0.000 A 
ATOM     13  C   UNL     1      46.742   3.306   6.452  0.00  0.00    +0.000 A 
ATOM     14  N   UNL     1      45.823   3.859   7.276  0.00  0.00    +0.000 NA
ENDBRANCH   8   9
ENDBRANCH   5   8
ENDBRANCH   1   2
BRANCH   1  15
ATOM     15  N   UNL     1      48.229   6.274  13.969  0.00  0.00    +0.000 N 
ATOM     16  C   UNL     1      48.749   7.306  14.706  0.00  0.00    +0.000 C 
ATOM     17  O   UNL     1      48.261   7.693  15.760  0.00  0.00    +0.000 OA
ATOM     18  H   UNL     1      48.538   6.170  13.009  0.00  0.00    +0.000 HD
BRANCH  16  19
ATOM     19  C   UNL     1      49.987   7.891  14.182  0.00  0.00    +0.000 A 
ATOM     20  C   UNL     1      51.187   7.720  14.858  0.00  0.00    +0.000 A 
ATOM     21  S   UNL     1      52.512   8.461  14.080  0.00  0.00    +0.000 S 
ATOM     22  C   UNL     1      51.516   9.082  12.845  0.00  0.00    +0.000 A 
ATOM     23  N   UNL     1      52.022   9.863  11.855  0.00  0.00    +0.000 NA
ATOM     24  C   UNL     1      51.140  10.292  11.012  0.00  0.00    +0.000 A 
ATOM     25  N   UNL     1      49.802  10.001  11.061  0.00  0.00    +0.000 N 
ATOM     26  C   UNL     1      49.259   9.177  12.011  0.00  0.00    +0.000 A 
ATOM     27  O   UNL     1      48.076   8.865  11.977  0.00  0.00    +0.000 OA
ATOM     28  C   UNL     1      50.197   8.697  13.009  0.00  0.00    +0.000 A 
ATOM     29  H   UNL     1      49.169  10.344  10.356  0.00  0.00    +0.000 HD
ENDBRANCH  16  19
ENDBRANCH   1  15
BRANCH   1  30
ATOM     30  C   UNL     1      47.134   4.476  15.314  0.00  0.00    +0.000 C 
BRANCH  30  31
ATOM     31  N   UNL     1      47.390   4.912  16.692  0.00  0.00    +0.000 NA
ATOM     32  H   UNL     1      47.693   4.105  17.235  0.00  0.00    +0.000 HD
ATOM     33  H   UNL     1      46.516   5.231  17.114  0.00  0.00    +0.000 HD
ENDBRANCH  30  31
ENDBRANCH   1  30
TORSDOF 7
ENDMDL
MODEL 6
REMARK VINA RESULT:    -7.205      2.654      4.049
REMARK INTER + INTRA:         -10.869
REMARK INTER:                 -10.019
REMARK INTRA:                  -0.850
REMARK UNBOUND:                -0.926
REMARK  Name = 
REMARK  7 active torsions:
REMARK  status: ('A' for Active; 'I' for Inactive)
REMARK    1  A    between atoms: N_1  and  C_2
REMARK    2  A    between atoms: C_2  and  C_3
REMARK    3  A    between atoms: C_3  and  N_4
REMARK    4  A    between atoms: C_3  and  C_17
REMARK    5  A    between atoms: C_5  and  C_7
REMARK    6  A    between atoms: C_20  and  C_21
REMARK    7  A    between atoms: C_21  and  C_22
REMARK                            x       y       z     vdW  Elec       q    Type
REMARK                         _______ _______ _______ _____ _____    ______ ____
ROOT
ATOM      1  C   UNL     1      46.866   5.088  14.785  0.00  0.00    +0.000 C 
ENDROOT
BRANCH   1   2
ATOM      2  C   UNL     1      46.269   4.853  13.396  0.00  0.00    +0.000 A 
ATOM      3  C   UNL     1      45.667   3.625  13.084  0.00  0.00    +0.000 A 
ATOM      4  C   UNL     1      45.102   3.405  11.822  0.00  0.00    +0.000 A 
ATOM      5  C   UNL     1      45.106   4.412  10.848  0.00  0.00    +0.000 A 
ATOM      6  C   UNL     1      45.701   5.641  11.157  0.00  0.00    +0.000 A 
ATOM      7  C   UNL     1      46.280   5.857  12.413  0.00  0.00    +0.000 A 
BRANCH   5   8
ATOM      8  C   UNL     1      44.488   4.182   9.485  0.00  0.00    +0.000 C 
BRANCH   8   9
ATOM      9  C   UNL     1      45.302   3.356   8.512  0.00  0.00    +0.000 A 
ATOM     10  C   UNL     1      45.536   2.000   8.740  0.00  0.00    +0.000 A 
ATOM     11  C   UNL     1      46.412   1.309   7.905  0.00  0.00    +0.000 A 
ATOM     12  C   UNL     1      47.029   1.982   6.860  0.00  0.00    +0.000 A 
ATOM     13  C   UNL     1      46.729   3.321   6.683  0.00  0.00    +0.000 A 
ATOM     14  N   UNL     1      45.888   4.018   7.480  0.00  0.00    +0.000 NA
ENDBRANCH   8   9
ENDBRANCH   5   8
ENDBRANCH   1   2
BRANCH   1  15
ATOM     15  N   UNL     1      48.003   5.993  14.651  0.00  0.00    +0.000 N 
ATOM     16  C   UNL     1      48.620   6.586  15.721  0.00  0.00    +0.000 C 
ATOM     17  O   UNL     1      48.358   6.311  16.886  0.00  0.00    +0.000 OA
ATOM     18  H   UNL     1      48.097   6.433  13.743  0.00  0.00    +0.000 HD
BRANCH  16  19
ATOM     19  C   UNL     1      49.680   7.541  15.386  0.00  0.00    +0.000 A 
ATOM     20  C   UNL     1      49.380   8.717  14.713  0.00  0.00    +0.000 A 
ATOM     21  S   UNL     1      50.746   9.701  14.431  0.00  0.00    +0.000 S 
ATOM     22  C   UNL     1      51.789   8.561  15.149  0.00  0.00    +0.000 A 
ATOM     23  N   UNL     1      53.130   8.767  15.202  0.00  0.00    +0.000 NA
ATOM     24  C   UNL     1      53.798   7.799  15.740  0.00  0.00    +0.000 A 
ATOM     25  N   UNL     1      53.244   6.650  16.242  0.00  0.00    +0.000 N 
ATOM     26  C   UNL     1      51.893   6.424  16.255  0.00  0.00    +0.000 A 
ATOM     27  O   UNL     1      51.422   5.429  16.790  0.00  0.00    +0.000 OA
ATOM     28  C   UNL     1      51.097   7.463  15.627  0.00  0.00    +0.000 A 
ATOM     29  H   UNL     1      53.817   5.943  16.675  0.00  0.00    +0.000 HD
ENDBRANCH  16  19
ENDBRANCH   1  15
BRANCH   1  30
ATOM     30  C   UNL     1      47.270   3.756  15.487  0.00  0.00    +0.000 C 
BRANCH  30  31
ATOM     31  N   UNL     1      46.769   3.604  16.858  0.00  0.00    +0.000 NA
ATOM     32  H   UNL     1      47.519   3.842  17.504  0.00  0.00    +0.000 HD
ATOM     33  H   UNL     1      46.543   2.623  17.029  0.00  0.00    +0.000 HD
ENDBRANCH  30  31
ENDBRANCH   1  30
TORSDOF 7
ENDMDL
MODEL 7
REMARK VINA RESULT:    -6.990      1.554      2.321
REMARK INTER + INTRA:         -10.573
REMARK INTER:                  -9.384
REMARK INTRA:                  -1.189
REMARK UNBOUND:                -0.926
REMARK  Name = 
REMARK  7 active torsions:
REMARK  status: ('A' for Active; 'I' for Inactive)
REMARK    1  A    between atoms: N_1  and  C_2
REMARK    2  A    between atoms: C_2  and  C_3
REMARK    3  A    between atoms: C_3  and  N_4
REMARK    4  A    between atoms: C_3  and  C_17
REMARK    5  A    between atoms: C_5  and  C_7
REMARK    6  A    between atoms: C_20  and  C_21
REMARK    7  A    between atoms: C_21  and  C_22
REMARK                            x       y       z     vdW  Elec       q    Type
REMARK                         _______ _______ _______ _____ _____    ______ ____
ROOT
ATOM      1  C   UNL     1      48.147   8.289  13.630  0.00  0.00    +0.000 C 
ENDROOT
BRANCH   1   2
ATOM      2  C   UNL     1      47.075   7.573  12.806  0.00  0.00    +0.000 A 
ATOM      3  C   UNL     1      47.401   6.429  12.063  0.00  0.00    +0.000 A 
ATOM      4  C   UNL     1      46.424   5.755  11.320  0.00  0.00    +0.000 A 
ATOM      5  C   UNL     1      45.094   6.195  11.317  0.00  0.00    +0.000 A 
ATOM      6  C   UNL     1      44.763   7.333  12.062  0.00  0.00    +0.000 A 
ATOM      7  C   UNL     1      45.742   8.017  12.792  0.00  0.00    +0.000 A 
BRANCH   5   8
ATOM      8  C   UNL     1      44.032   5.465  10.522  0.00  0.00    +0.000 C 
BRANCH   8   9
ATOM      9  C   UNL     1      44.519   4.348   9.623  0.00  0.00    +0.000 A 
ATOM     10  C   UNL     1      44.271   3.012   9.938  0.00  0.00    +0.000 A 
ATOM     11  C   UNL     1      44.862   2.010   9.170  0.00  0.00    +0.000 A 
ATOM     12  C   UNL     1      45.679   2.361   8.105  0.00  0.00    +0.000 A 
ATOM     13  C   UNL     1      45.859   3.707   7.840  0.00  0.00    +0.000 A 
ATOM     14  N   UNL     1      45.303   4.701   8.571  0.00  0.00    +0.000 NA
ENDBRANCH   8   9
ENDBRANCH   5   8
ENDBRANCH   1   2
BRANCH   1  15
ATOM     15  N   UNL     1      48.315   7.573  14.890  0.00  0.00    +0.000 N 
ATOM     16  C   UNL     1      49.495   6.987  15.269  0.00  0.00    +0.000 C 
ATOM     17  O   UNL     1      50.542   7.120  14.648  0.00  0.00    +0.000 OA
ATOM     18  H   UNL     1      47.457   7.230  15.307  0.00  0.00    +0.000 HD
BRANCH  16  19
ATOM     19  C   UNL     1      49.446   6.227  16.521  0.00  0.00    +0.000 A 
ATOM     20  C   UNL     1      50.265   6.574  17.587  0.00  0.00    +0.000 A 
ATOM     21  S   UNL     1      50.047   5.581  18.957  0.00  0.00    +0.000 S 
ATOM     22  C   UNL     1      48.894   4.620  18.151  0.00  0.00    +0.000 A 
ATOM     23  N   UNL     1      48.325   3.544  18.754  0.00  0.00    +0.000 NA
ATOM     24  C   UNL     1      47.497   2.889  18.007  0.00  0.00    +0.000 A 
ATOM     25  N   UNL     1      47.178   3.219  16.716  0.00  0.00    +0.000 N 
ATOM     26  C   UNL     1      47.689   4.323  16.087  0.00  0.00    +0.000 A 
ATOM     27  O   UNL     1      47.317   4.642  14.965  0.00  0.00    +0.000 OA
ATOM     28  C   UNL     1      48.655   5.076  16.867  0.00  0.00    +0.000 A 
ATOM     29  H   UNL     1      46.503   2.683  16.194  0.00  0.00    +0.000 HD
ENDBRANCH  16  19
ENDBRANCH   1  15
BRANCH   1  30
ATOM     30  C   UNL     1      47.806   9.792  13.863  0.00  0.00    +0.000 C 
BRANCH  30  31
ATOM     31  N   UNL     1      48.244  10.332  15.155  0.00  0.00    +0.000 NA
ATOM     32  H   UNL     1      48.151  11.346  15.130  0.00  0.00    +0.000 HD
ATOM     33  H   UNL     1      49.239  10.138  15.284  0.00  0.00    +0.000 HD
ENDBRANCH  30  31
ENDBRANCH   1  30
TORSDOF 7
ENDMDL
MODEL 8
REMARK VINA RESULT:    -6.764      3.690      9.489
REMARK INTER + INTRA:         -10.261
REMARK INTER:                  -9.123
REMARK INTRA:                  -1.138
REMARK UNBOUND:                -0.926
REMARK  Name = 
REMARK  7 active torsions:
REMARK  status: ('A' for Active; 'I' for Inactive)
REMARK    1  A    between atoms: N_1  and  C_2
REMARK    2  A    between atoms: C_2  and  C_3
REMARK    3  A    between atoms: C_3  and  N_4
REMARK    4  A    between atoms: C_3  and  C_17
REMARK    5  A    between atoms: C_5  and  C_7
REMARK    6  A    between atoms: C_20  and  C_21
REMARK    7  A    between atoms: C_21  and  C_22
REMARK                            x       y       z     vdW  Elec       q    Type
REMARK                         _______ _______ _______ _____ _____    ______ ____
ROOT
ATOM      1  C   UNL     1      48.154   4.450  16.050  0.00  0.00    +0.000 C 
ENDROOT
BRANCH   1   2
ATOM      2  C   UNL     1      48.017   5.436  17.212  0.00  0.00    +0.000 A 
ATOM      3  C   UNL     1      48.638   6.692  17.149  0.00  0.00    +0.000 A 
ATOM      4  C   UNL     1      48.506   7.610  18.199  0.00  0.00    +0.000 A 
ATOM      5  C   UNL     1      47.733   7.303  19.327  0.00  0.00    +0.000 A 
ATOM      6  C   UNL     1      47.107   6.053  19.391  0.00  0.00    +0.000 A 
ATOM      7  C   UNL     1      47.252   5.129  18.349  0.00  0.00    +0.000 A 
BRANCH   5   8
ATOM      8  C   UNL     1      47.579   8.295  20.460  0.00  0.00    +0.000 C 
BRANCH   8   9
ATOM      9  C   UNL     1      48.700   9.300  20.627  0.00  0.00    +0.000 A 
ATOM     10  C   UNL     1      48.558  10.615  20.186  0.00  0.00    +0.000 A 
ATOM     11  C   UNL     1      49.659  11.468  20.219  0.00  0.00    +0.000 A 
ATOM     12  C   UNL     1      50.873  10.993  20.696  0.00  0.00    +0.000 A 
ATOM     13  C   UNL     1      50.930   9.684  21.139  0.00  0.00    +0.000 A 
ATOM     14  N   UNL     1      49.880   8.832  21.113  0.00  0.00    +0.000 NA
ENDBRANCH   8   9
ENDBRANCH   5   8
ENDBRANCH   1   2
BRANCH   1  15
ATOM     15  N   UNL     1      47.164   4.794  15.035  0.00  0.00    +0.000 N 
ATOM     16  C   UNL     1      47.457   5.545  13.926  0.00  0.00    +0.000 C 
ATOM     17  O   UNL     1      48.595   5.883  13.624  0.00  0.00    +0.000 OA
ATOM     18  H   UNL     1      46.200   4.758  15.345  0.00  0.00    +0.000 HD
BRANCH  16  19
ATOM     19  C   UNL     1      46.314   5.873  13.069  0.00  0.00    +0.000 A 
ATOM     20  C   UNL     1      46.003   7.196  12.788  0.00  0.00    +0.000 A 
ATOM     21  S   UNL     1      44.650   7.368  11.762  0.00  0.00    +0.000 S 
ATOM     22  C   UNL     1      44.404   5.683  11.706  0.00  0.00    +0.000 A 
ATOM     23  N   UNL     1      43.363   5.144  11.019  0.00  0.00    +0.000 NA
ATOM     24  C   UNL     1      43.281   3.856  11.100  0.00  0.00    +0.000 A 
ATOM     25  N   UNL     1      44.152   3.058  11.794  0.00  0.00    +0.000 N 
ATOM     26  C   UNL     1      45.242   3.554  12.457  0.00  0.00    +0.000 A 
ATOM     27  O   UNL     1      46.051   2.808  12.994  0.00  0.00    +0.000 OA
ATOM     28  C   UNL     1      45.362   5.001  12.433  0.00  0.00    +0.000 A 
ATOM     29  H   UNL     1      44.049   2.055  11.796  0.00  0.00    +0.000 HD
ENDBRANCH  16  19
ENDBRANCH   1  15
BRANCH   1  30
ATOM     30  C   UNL     1      48.012   2.969  16.515  0.00  0.00    +0.000 C 
BRANCH  30  31
ATOM     31  N   UNL     1      49.101   2.081  16.091  0.00  0.00    +0.000 NA
ATOM     32  H   UNL     1      48.942   1.159  16.495  0.00  0.00    +0.000 HD
ATOM     33  H   UNL     1      49.983   2.417  16.482  0.00  0.00    +0.000 HD
ENDBRANCH  30  31
ENDBRANCH   1  30
TORSDOF 7
ENDMDL
