MODEL 1
REMARK VINA RESULT:    -8.771      0.000      0.000
REMARK INTER + INTRA:         -12.065
REMARK INTER:                 -11.335
REMARK INTRA:                  -0.730
REMARK UNBOUND:                -0.730
REMARK  Name = 
REMARK  5 active torsions:
REMARK  status: ('A' for Active; 'I' for Inactive)
REMARK    1  A    between atoms: C_2  and  C_4
REMARK    2  A    between atoms: C_7  and  N_8
REMARK    3  A    between atoms: N_8  and  C_9
REMARK    4  A    between atoms: C_9  and  C_10
REMARK    5  A    between atoms: C_14  and  C_15
REMARK                            x       y       z     vdW  Elec       q    Type
REMARK                         _______ _______ _______ _____ _____    ______ ____
ROOT
ATOM      1  C   UNL     1      43.618   4.415  11.189  0.00  0.00    +0.000 C 
ENDROOT
BRANCH   1   2
ATOM      2  C   UNL     1      44.849   4.840  11.962  0.00  0.00    +0.000 A 
ATOM      3  C   UNL     1      45.482   3.957  12.844  0.00  0.00    +0.000 A 
ATOM      4  C   UNL     1      46.641   4.347  13.512  0.00  0.00    +0.000 A 
ATOM      5  C   UNL     1      47.182   5.618  13.299  0.00  0.00    +0.000 A 
ATOM      6  C   UNL     1      46.588   6.530  12.408  0.00  0.00    +0.000 A 
ATOM      7  C   UNL     1      45.408   6.116  11.761  0.00  0.00    +0.000 A 
BRANCH   6   8
ATOM      8  C   UNL     1      47.201   7.853  12.135  0.00  0.00    +0.000 A 
ATOM      9  C   UNL     1      48.559   7.983  11.781  0.00  0.00    +0.000 A 
ATOM     10  C   UNL     1      49.140   9.235  11.542  0.00  0.00    +0.000 A 
ATOM     11  C   UNL     1      48.370  10.389  11.643  0.00  0.00    +0.000 A 
ATOM     12  C   UNL     1      47.032  10.280  11.989  0.00  0.00    +0.000 A 
ATOM     13  F   UNL     1      46.285  11.386  12.091  0.00  0.00    +0.000 F 
ATOM     14  C   UNL     1      46.451   9.038  12.238  0.00  0.00    +0.000 A 
ENDBRANCH   6   8
ENDBRANCH   1   2
BRANCH   1  15
ATOM     15  N   UNL     1      43.787   4.748   9.779  0.00  0.00    +0.000 N 
ATOM     16  H   UNL     1      42.900   4.738   9.283  0.00  0.00    +0.000 HD
BRANCH  15  20
ATOM     17  C   UNL     1      46.422   2.321   7.755  0.00  0.00    +0.000 A 
ATOM     18  C   UNL     1      46.430   3.694   7.556  0.00  0.00    +0.000 A 
ATOM     19  N   UNL     1      45.590   4.534   8.220  0.00  0.00    +0.000 NA
ATOM     20  C   UNL     1      44.739   3.970   9.106  0.00  0.00    +0.000 A 
ATOM     21  C   UNL     1      44.759   2.581   9.300  0.00  0.00    +0.000 A 
ATOM     22  N   UNL     1      45.586   1.722   8.645  0.00  0.00    +0.000 NA
BRANCH  17  24
ATOM     23  N   UNL     1      48.443   2.058   6.451  0.00  0.00    +0.000 N 
ATOM     24  C   UNL     1      47.327   1.450   6.957  0.00  0.00    +0.000 C 
ATOM     25  O   UNL     1      47.101   0.260   6.776  0.00  0.00    +0.000 OA
ATOM     26  H   UNL     1      49.118   1.512   5.931  0.00  0.00    +0.000 HD
ATOM     27  H   UNL     1      48.623   3.036   6.649  0.00  0.00    +0.000 HD
ENDBRANCH  17  24
ENDBRANCH  15  20
ENDBRANCH   1  15
TORSDOF 5
ENDMDL
MODEL 2
REMARK VINA RESULT:    -8.515      2.700      4.005
REMARK INTER + INTRA:         -11.734
REMARK INTER:                 -11.130
REMARK INTRA:                  -0.604
REMARK UNBOUND:                -0.730
REMARK  Name = 
REMARK  5 active torsions:
REMARK  status: ('A' for Active; 'I' for Inactive)
REMARK    1  A    between atoms: C_2  and  C_4
REMARK    2  A    between atoms: C_7  and  N_8
REMARK    3  A    between atoms: N_8  and  C_9
REMARK    4  A    between atoms: C_9  and  C_10
REMARK    5  A    between atoms: C_14  and  C_15
REMARK                            x       y       z     vdW  Elec       q    Type
REMARK                         _______ _______ _______ _____ _____    ______ ____
ROOT
ATOM      1  C   UNL     1      43.956   4.647  11.392  0.00  0.00    +0.000 C 
ENDROOT
BRANCH   1   2
ATOM      2  C   UNL     1      45.184   5.367  11.911  0.00  0.00    +0.000 A 
ATOM      3  C   UNL     1      45.695   6.485  11.243  0.00  0.00    +0.000 A 
ATOM      4  C   UNL     1      46.797   7.164  11.760  0.00  0.00    +0.000 A 
ATOM      5  C   UNL     1      47.391   6.738  12.952  0.00  0.00    +0.000 A 
ATOM      6  C   UNL     1      46.898   5.630  13.664  0.00  0.00    +0.000 A 
ATOM      7  C   UNL     1      45.795   4.951  13.109  0.00  0.00    +0.000 A 
BRANCH   6   8
ATOM      8  C   UNL     1      47.490   5.220  14.961  0.00  0.00    +0.000 A 
ATOM      9  C   UNL     1      48.455   6.009  15.618  0.00  0.00    +0.000 A 
ATOM     10  C   UNL     1      49.027   5.610  16.833  0.00  0.00    +0.000 A 
ATOM     11  C   UNL     1      48.636   4.414  17.425  0.00  0.00    +0.000 A 
ATOM     12  C   UNL     1      47.687   3.626  16.793  0.00  0.00    +0.000 A 
ATOM     13  F   UNL     1      47.308   2.471  17.356  0.00  0.00    +0.000 F 
ATOM     14  C   UNL     1      47.123   4.011  15.579  0.00  0.00    +0.000 A 
ENDBRANCH   6   8
ENDBRANCH   1   2
BRANCH   1  15
ATOM     15  N   UNL     1      43.885   4.783   9.941  0.00  0.00    +0.000 N 
ATOM     16  H   UNL     1      42.939   4.641   9.597  0.00  0.00    +0.000 HD
BRANCH  15  20
ATOM     17  C   UNL     1      46.390   2.297   7.826  0.00  0.00    +0.000 A 
ATOM     18  C   UNL     1      46.418   3.668   7.622  0.00  0.00    +0.000 A 
ATOM     19  N   UNL     1      45.621   4.528   8.314  0.00  0.00    +0.000 NA
ATOM     20  C   UNL     1      44.795   3.984   9.235  0.00  0.00    +0.000 A 
ATOM     21  C   UNL     1      44.794   2.595   9.434  0.00  0.00    +0.000 A 
ATOM     22  N   UNL     1      45.578   1.718   8.751  0.00  0.00    +0.000 NA
BRANCH  17  24
ATOM     23  N   UNL     1      48.279   2.015   6.342  0.00  0.00    +0.000 N 
ATOM     24  C   UNL     1      47.245   1.405   6.997  0.00  0.00    +0.000 C 
ATOM     25  O   UNL     1      47.051   0.198   6.917  0.00  0.00    +0.000 OA
ATOM     26  H   UNL     1      48.921   1.457   5.792  0.00  0.00    +0.000 HD
ATOM     27  H   UNL     1      48.438   3.010   6.458  0.00  0.00    +0.000 HD
ENDBRANCH  17  24
ENDBRANCH  15  20
ENDBRANCH   1  15
TORSDOF 5
ENDMDL
MODEL 3
REMARK VINA RESULT:    -8.466      1.184      1.730
REMARK INTER + INTRA:         -11.671
REMARK INTER:                 -10.832
REMARK INTRA:                  -0.839
REMARK UNBOUND:                -0.730
REMARK  Name = 
REMARK  5 active torsions:
REMARK  status: ('A' for Active; 'I' for Inactive)
REMARK    1  A    between atoms: C_2  and  C_4
REMARK    2  A    between atoms: C_7  and  N_8
REMARK    3  A    between atoms: N_8  and  C_9
REMARK    4  A    between atoms: C_9  and  C_10
REMARK    5  A    between atoms: C_14  and  C_15
REMARK                            x       y       z     vdW  Elec       q    Type
REMARK                         _______ _______ _______ _____ _____    ______ ____
ROOT
ATOM      1  C   UNL     1      43.567   4.576  11.195  0.00  0.00    +0.000 C 
ENDROOT
BRANCH   1   2
ATOM      2  C   UNL     1      44.805   4.932  11.991  0.00  0.00    +0.000 A 
ATOM      3  C   UNL     1      45.365   4.022  12.893  0.00  0.00    +0.000 A 
ATOM      4  C   UNL     1      46.531   4.348  13.583  0.00  0.00    +0.000 A 
ATOM      5  C   UNL     1      47.152   5.581  13.371  0.00  0.00    +0.000 A 
ATOM      6  C   UNL     1      46.634   6.519  12.460  0.00  0.00    +0.000 A 
ATOM      7  C   UNL     1      45.444   6.171  11.791  0.00  0.00    +0.000 A 
BRANCH   6   8
ATOM      8  C   UNL     1      47.331   7.800  12.189  0.00  0.00    +0.000 A 
ATOM      9  C   UNL     1      46.683   9.043  12.334  0.00  0.00    +0.000 A 
ATOM     10  C   UNL     1      47.338  10.250  12.058  0.00  0.00    +0.000 A 
ATOM     11  C   UNL     1      48.664  10.242  11.641  0.00  0.00    +0.000 A 
ATOM     12  C   UNL     1      49.318   9.028  11.493  0.00  0.00    +0.000 A 
ATOM     13  F   UNL     1      50.594   9.011  11.088  0.00  0.00    +0.000 F 
ATOM     14  C   UNL     1      48.669   7.823  11.755  0.00  0.00    +0.000 A 
ENDBRANCH   6   8
ENDBRANCH   1   2
BRANCH   1  15
ATOM     15  N   UNL     1      43.782   4.890   9.787  0.00  0.00    +0.000 N 
ATOM     16  H   UNL     1      42.904   5.026   9.295  0.00  0.00    +0.000 HD
BRANCH  15  20
ATOM     17  C   UNL     1      46.348   2.336   7.832  0.00  0.00    +0.000 A 
ATOM     18  C   UNL     1      45.377   1.842   8.689  0.00  0.00    +0.000 A 
ATOM     19  N   UNL     1      44.495   2.650   9.340  0.00  0.00    +0.000 NA
ATOM     20  C   UNL     1      44.598   3.977   9.104  0.00  0.00    +0.000 A 
ATOM     21  C   UNL     1      45.580   4.452   8.222  0.00  0.00    +0.000 A 
ATOM     22  N   UNL     1      46.473   3.664   7.565  0.00  0.00    +0.000 NA
BRANCH  17  24
ATOM     23  N   UNL     1      48.390   1.994   6.581  0.00  0.00    +0.000 N 
ATOM     24  C   UNL     1      47.319   1.405   7.195  0.00  0.00    +0.000 C 
ATOM     25  O   UNL     1      47.182   0.188   7.231  0.00  0.00    +0.000 OA
ATOM     26  H   UNL     1      49.107   1.414   6.162  0.00  0.00    +0.000 HD
ATOM     27  H   UNL     1      48.497   3.002   6.601  0.00  0.00    +0.000 HD
ENDBRANCH  17  24
ENDBRANCH  15  20
ENDBRANCH   1  15
TORSDOF 5
ENDMDL
MODEL 4
REMARK VINA RESULT:    -8.067      4.218      6.939
REMARK INTER + INTRA:         -11.155
REMARK INTER:                 -10.341
REMARK INTRA:                  -0.814
REMARK UNBOUND:                -0.730
REMARK  Name = 
REMARK  5 active torsions:
REMARK  status: ('A' for Active; 'I' for Inactive)
REMARK    1  A    between atoms: C_2  and  C_4
REMARK    2  A    between atoms: C_7  and  N_8
REMARK    3  A    between atoms: N_8  and  C_9
REMARK    4  A    between atoms: C_9  and  C_10
REMARK    5  A    between atoms: C_14  and  C_15
REMARK                            x       y       z     vdW  Elec       q    Type
REMARK                         _______ _______ _______ _____ _____    ______ ____
ROOT
ATOM      1  C   UNL     1      43.567   6.447  11.329  0.00  0.00    +0.000 C 
ENDROOT
BRANCH   1   2
ATOM      2  C   UNL     1      43.786   4.967  11.088  0.00  0.00    +0.000 A 
ATOM      3  C   UNL     1      43.142   4.009  11.878  0.00  0.00    +0.000 A 
ATOM      4  C   UNL     1      43.318   2.652  11.614  0.00  0.00    +0.000 A 
ATOM      5  C   UNL     1      44.129   2.242  10.552  0.00  0.00    +0.000 A 
ATOM      6  C   UNL     1      44.780   3.172   9.722  0.00  0.00    +0.000 A 
ATOM      7  C   UNL     1      44.601   4.535  10.023  0.00  0.00    +0.000 A 
BRANCH   6   8
ATOM      8  C   UNL     1      45.588   2.734   8.557  0.00  0.00    +0.000 A 
ATOM      9  C   UNL     1      45.981   3.634   7.547  0.00  0.00    +0.000 A 
ATOM     10  C   UNL     1      46.728   3.214   6.438  0.00  0.00    +0.000 A 
ATOM     11  C   UNL     1      47.107   1.882   6.320  0.00  0.00    +0.000 A 
ATOM     12  C   UNL     1      46.730   0.983   7.305  0.00  0.00    +0.000 A 
ATOM     13  F   UNL     1      47.089  -0.303   7.197  0.00  0.00    +0.000 F 
ATOM     14  C   UNL     1      45.979   1.391   8.405  0.00  0.00    +0.000 A 
ENDBRANCH   6   8
ENDBRANCH   1   2
BRANCH   1  15
ATOM     15  N   UNL     1      44.113   6.817  12.629  0.00  0.00    +0.000 N 
ATOM     16  H   UNL     1      43.618   7.608  13.032  0.00  0.00    +0.000 HD
BRANCH  15  20
ATOM     17  C   UNL     1      48.202   7.272  12.586  0.00  0.00    +0.000 A 
ATOM     18  C   UNL     1      47.377   8.250  12.052  0.00  0.00    +0.000 A 
ATOM     19  N   UNL     1      46.019   8.149  12.064  0.00  0.00    +0.000 NA
ATOM     20  C   UNL     1      45.497   7.043  12.638  0.00  0.00    +0.000 A 
ATOM     21  C   UNL     1      46.351   6.073  13.184  0.00  0.00    +0.000 A 
ATOM     22  N   UNL     1      47.709   6.151  13.179  0.00  0.00    +0.000 NA
BRANCH  17  24
ATOM     23  N   UNL     1      50.358   7.376  13.678  0.00  0.00    +0.000 N 
ATOM     24  C   UNL     1      49.680   7.414  12.490  0.00  0.00    +0.000 C 
ATOM     25  O   UNL     1      50.260   7.540  11.418  0.00  0.00    +0.000 OA
ATOM     26  H   UNL     1      51.369   7.430  13.678  0.00  0.00    +0.000 HD
ATOM     27  H   UNL     1      49.855   7.233  14.546  0.00  0.00    +0.000 HD
ENDBRANCH  17  24
ENDBRANCH  15  20
ENDBRANCH   1  15
TORSDOF 5
ENDMDL
MODEL 5
REMARK VINA RESULT:    -8.063      4.679      7.516
REMARK INTER + INTRA:         -11.149
REMARK INTER:                 -10.645
REMARK INTRA:                  -0.505
REMARK UNBOUND:                -0.730
REMARK  Name = 
REMARK  5 active torsions:
REMARK  status: ('A' for Active; 'I' for Inactive)
REMARK    1  A    between atoms: C_2  and  C_4
REMARK    2  A    between atoms: C_7  and  N_8
REMARK    3  A    between atoms: N_8  and  C_9
REMARK    4  A    between atoms: C_9  and  C_10
REMARK    5  A    between atoms: C_14  and  C_15
REMARK                            x       y       z     vdW  Elec       q    Type
REMARK                         _______ _______ _______ _____ _____    ______ ____
ROOT
ATOM      1  C   UNL     1      46.285   7.199  12.221  0.00  0.00    +0.000 C 
ENDROOT
BRANCH   1   2
ATOM      2  C   UNL     1      45.393   6.211  11.497  0.00  0.00    +0.000 A 
ATOM      3  C   UNL     1      44.014   6.188  11.726  0.00  0.00    +0.000 A 
ATOM      4  C   UNL     1      43.202   5.304  11.017  0.00  0.00    +0.000 A 
ATOM      5  C   UNL     1      43.760   4.445  10.066  0.00  0.00    +0.000 A 
ATOM      6  C   UNL     1      45.139   4.448   9.792  0.00  0.00    +0.000 A 
ATOM      7  C   UNL     1      45.938   5.337  10.536  0.00  0.00    +0.000 A 
BRANCH   6   8
ATOM      8  C   UNL     1      45.719   3.580   8.737  0.00  0.00    +0.000 A 
ATOM      9  C   UNL     1      46.328   4.118   7.586  0.00  0.00    +0.000 A 
ATOM     10  C   UNL     1      46.857   3.296   6.582  0.00  0.00    +0.000 A 
ATOM     11  C   UNL     1      46.798   1.914   6.713  0.00  0.00    +0.000 A 
ATOM     12  C   UNL     1      46.202   1.367   7.839  0.00  0.00    +0.000 A 
ATOM     13  F   UNL     1      46.138   0.036   7.971  0.00  0.00    +0.000 F 
ATOM     14  C   UNL     1      45.664   2.178   8.836  0.00  0.00    +0.000 A 
ENDBRANCH   6   8
ENDBRANCH   1   2
BRANCH   1  15
ATOM     15  N   UNL     1      47.558   6.565  12.544  0.00  0.00    +0.000 N 
ATOM     16  H   UNL     1      47.857   5.929  11.810  0.00  0.00    +0.000 HD
BRANCH  15  20
ATOM     17  C   UNL     1      47.697   4.512  16.107  0.00  0.00    +0.000 A 
ATOM     18  C   UNL     1      48.374   5.712  15.957  0.00  0.00    +0.000 A 
ATOM     19  N   UNL     1      48.339   6.433  14.802  0.00  0.00    +0.000 NA
ATOM     20  C   UNL     1      47.593   5.930  13.794  0.00  0.00    +0.000 A 
ATOM     21  C   UNL     1      46.904   4.721  13.974  0.00  0.00    +0.000 A 
ATOM     22  N   UNL     1      46.930   3.982  15.116  0.00  0.00    +0.000 NA
BRANCH  17  24
ATOM     23  N   UNL     1      46.808   2.862  17.638  0.00  0.00    +0.000 N 
ATOM     24  C   UNL     1      47.822   3.742  17.375  0.00  0.00    +0.000 C 
ATOM     25  O   UNL     1      48.778   3.872  18.130  0.00  0.00    +0.000 OA
ATOM     26  H   UNL     1      46.853   2.281  18.465  0.00  0.00    +0.000 HD
ATOM     27  H   UNL     1      46.049   2.749  16.976  0.00  0.00    +0.000 HD
ENDBRANCH  17  24
ENDBRANCH  15  20
ENDBRANCH   1  15
TORSDOF 5
ENDMDL
MODEL 6
REMARK VINA RESULT:    -7.974      5.402      8.196
REMARK INTER + INTRA:         -11.034
REMARK INTER:                 -10.442
REMARK INTRA:                  -0.592
REMARK UNBOUND:                -0.730
REMARK  Name = 
REMARK  5 active torsions:
REMARK  status: ('A' for Active; 'I' for Inactive)
REMARK    1  A    between atoms: C_2  and  C_4
REMARK    2  A    between atoms: C_7  and  N_8
REMARK    3  A    between atoms: N_8  and  C_9
REMARK    4  A    between atoms: C_9  and  C_10
REMARK    5  A    between atoms: C_14  and  C_15
REMARK                            x       y       z     vdW  Elec       q    Type
REMARK                         _______ _______ _______ _____ _____    ______ ____
ROOT
ATOM      1  C   UNL     1      45.892   4.902  13.584  0.00  0.00    +0.000 C 
ENDROOT
BRANCH   1   2
ATOM      2  C   UNL     1      45.100   4.711  12.307  0.00  0.00    +0.000 A 
ATOM      3  C   UNL     1      43.817   5.251  12.171  0.00  0.00    +0.000 A 
ATOM      4  C   UNL     1      43.121   5.106  10.973  0.00  0.00    +0.000 A 
ATOM      5  C   UNL     1      43.705   4.430   9.897  0.00  0.00    +0.000 A 
ATOM      6  C   UNL     1      44.999   3.888   9.985  0.00  0.00    +0.000 A 
ATOM      7  C   UNL     1      45.672   4.033  11.213  0.00  0.00    +0.000 A 
BRANCH   6   8
ATOM      8  C   UNL     1      45.640   3.229   8.821  0.00  0.00    +0.000 A 
ATOM      9  C   UNL     1      46.057   3.960   7.691  0.00  0.00    +0.000 A 
ATOM     10  C   UNL     1      46.645   3.331   6.585  0.00  0.00    +0.000 A 
ATOM     11  C   UNL     1      46.839   1.955   6.589  0.00  0.00    +0.000 A 
ATOM     12  C   UNL     1      46.435   1.220   7.693  0.00  0.00    +0.000 A 
ATOM     13  F   UNL     1      46.616  -0.107   7.704  0.00  0.00    +0.000 F 
ATOM     14  C   UNL     1      45.840   1.837   8.792  0.00  0.00    +0.000 A 
ENDBRANCH   6   8
ENDBRANCH   1   2
BRANCH   1  15
ATOM     15  N   UNL     1      46.616   3.676  13.899  0.00  0.00    +0.000 N 
ATOM     16  H   UNL     1      46.002   2.866  13.896  0.00  0.00    +0.000 HD
BRANCH  15  20
ATOM     17  C   UNL     1      48.637   3.935  17.474  0.00  0.00    +0.000 A 
ATOM     18  C   UNL     1      48.599   2.742  16.769  0.00  0.00    +0.000 A 
ATOM     19  N   UNL     1      47.959   2.618  15.574  0.00  0.00    +0.000 NA
ATOM     20  C   UNL     1      47.362   3.728  15.086  0.00  0.00    +0.000 A 
ATOM     21  C   UNL     1      47.426   4.927  15.810  0.00  0.00    +0.000 A 
ATOM     22  N   UNL     1      48.055   5.073  17.008  0.00  0.00    +0.000 NA
BRANCH  17  24
ATOM     23  N   UNL     1      48.560   3.544  19.861  0.00  0.00    +0.000 N 
ATOM     24  C   UNL     1      49.303   3.992  18.804  0.00  0.00    +0.000 C 
ATOM     25  O   UNL     1      50.452   4.395  18.945  0.00  0.00    +0.000 OA
ATOM     26  H   UNL     1      48.970   3.520  20.786  0.00  0.00    +0.000 HD
ATOM     27  H   UNL     1      47.626   3.180  19.707  0.00  0.00    +0.000 HD
ENDBRANCH  17  24
ENDBRANCH  15  20
ENDBRANCH   1  15
TORSDOF 5
ENDMDL
MODEL 7
REMARK VINA RESULT:    -7.912      1.722      2.323
REMARK INTER + INTRA:         -10.955
REMARK INTER:                 -10.094
REMARK INTRA:                  -0.861
REMARK UNBOUND:                -0.730
REMARK  Name = 
REMARK  5 active torsions:
REMARK  status: ('A' for Active; 'I' for Inactive)
REMARK    1  A    between atoms: C_2  and  C_4
REMARK    2  A    between atoms: C_7  and  N_8
REMARK    3  A    between atoms: N_8  and  C_9
REMARK    4  A    between atoms: C_9  and  C_10
REMARK    5  A    between atoms: C_14  and  C_15
REMARK                            x       y       z     vdW  Elec       q    Type
REMARK                         _______ _______ _______ _____ _____    ______ ____
ROOT
ATOM      1  C   UNL     1      43.959   3.820  11.975  0.00  0.00    +0.000 C 
ENDROOT
BRANCH   1   2
ATOM      2  C   UNL     1      44.881   4.963  12.345  0.00  0.00    +0.000 A 
ATOM      3  C   UNL     1      46.081   4.726  13.024  0.00  0.00    +0.000 A 
ATOM      4  C   UNL     1      46.941   5.784  13.315  0.00  0.00    +0.000 A 
ATOM      5  C   UNL     1      46.613   7.085  12.923  0.00  0.00    +0.000 A 
ATOM      6  C   UNL     1      45.426   7.365  12.223  0.00  0.00    +0.000 A 
ATOM      7  C   UNL     1      44.567   6.281  11.959  0.00  0.00    +0.000 A 
BRANCH   6   8
ATOM      8  C   UNL     1      45.113   8.736  11.752  0.00  0.00    +0.000 A 
ATOM      9  C   UNL     1      45.932   9.837  12.074  0.00  0.00    +0.000 A 
ATOM     10  C   UNL     1      45.623  11.134  11.644  0.00  0.00    +0.000 A 
ATOM     11  C   UNL     1      44.490  11.358  10.870  0.00  0.00    +0.000 A 
ATOM     12  C   UNL     1      43.673  10.287  10.542  0.00  0.00    +0.000 A 
ATOM     13  F   UNL     1      42.578  10.495   9.800  0.00  0.00    +0.000 F 
ATOM     14  C   UNL     1      43.968   8.996  10.976  0.00  0.00    +0.000 A 
ENDBRANCH   6   8
ENDBRANCH   1   2
BRANCH   1  15
ATOM     15  N   UNL     1      43.498   3.988  10.602  0.00  0.00    +0.000 N 
ATOM     16  H   UNL     1      42.569   3.597  10.468  0.00  0.00    +0.000 HD
BRANCH  15  20
ATOM     17  C   UNL     1      46.225   2.750   7.781  0.00  0.00    +0.000 A 
ATOM     18  C   UNL     1      45.693   1.850   8.691  0.00  0.00    +0.000 A 
ATOM     19  N   UNL     1      44.774   2.213   9.628  0.00  0.00    +0.000 NA
ATOM     20  C   UNL     1      44.383   3.507   9.627  0.00  0.00    +0.000 A 
ATOM     21  C   UNL     1      44.925   4.396   8.687  0.00  0.00    +0.000 A 
ATOM     22  N   UNL     1      45.848   4.056   7.746  0.00  0.00    +0.000 NA
BRANCH  17  24
ATOM     23  N   UNL     1      47.507   3.145   5.767  0.00  0.00    +0.000 N 
ATOM     24  C   UNL     1      47.269   2.303   6.819  0.00  0.00    +0.000 C 
ATOM     25  O   UNL     1      47.892   1.258   6.965  0.00  0.00    +0.000 OA
ATOM     26  H   UNL     1      48.232   2.917   5.099  0.00  0.00    +0.000 HD
ATOM     27  H   UNL     1      47.003   4.022   5.694  0.00  0.00    +0.000 HD
ENDBRANCH  17  24
ENDBRANCH  15  20
ENDBRANCH   1  15
TORSDOF 5
ENDMDL
MODEL 8
REMARK VINA RESULT:    -7.784      1.731      2.552
REMARK INTER + INTRA:         -10.790
REMARK INTER:                 -10.021
REMARK INTRA:                  -0.769
REMARK UNBOUND:                -0.730
REMARK  Name = 
REMARK  5 active torsions:
REMARK  status: ('A' for Active; 'I' for Inactive)
REMARK    1  A    between atoms: C_2  and  C_4
REMARK    2  A    between atoms: C_7  and  N_8
REMARK    3  A    between atoms: N_8  and  C_9
REMARK    4  A    between atoms: C_9  and  C_10
REMARK    5  A    between atoms: C_14  and  C_15
REMARK                            x       y       z     vdW  Elec       q    Type
REMARK                         _______ _______ _______ _____ _____    ______ ____
ROOT
ATOM      1  C   UNL     1      44.211   4.954  11.339  0.00  0.00    +0.000 C 
ENDROOT
BRANCH   1   2
ATOM      2  C   UNL     1      44.849   6.318  11.500  0.00  0.00    +0.000 A 
ATOM      3  C   UNL     1      44.104   7.487  11.310  0.00  0.00    +0.000 A 
ATOM      4  C   UNL     1      44.694   8.733  11.508  0.00  0.00    +0.000 A 
ATOM      5  C   UNL     1      46.031   8.823  11.906  0.00  0.00    +0.000 A 
ATOM      6  C   UNL     1      46.812   7.674  12.126  0.00  0.00    +0.000 A 
ATOM      7  C   UNL     1      46.195   6.429  11.900  0.00  0.00    +0.000 A 
BRANCH   6   8
ATOM      8  C   UNL     1      48.210   7.772  12.611  0.00  0.00    +0.000 A 
ATOM      9  C   UNL     1      48.561   7.439  13.934  0.00  0.00    +0.000 A 
ATOM     10  C   UNL     1      49.880   7.552  14.395  0.00  0.00    +0.000 A 
ATOM     11  C   UNL     1      50.881   7.990  13.537  0.00  0.00    +0.000 A 
ATOM     12  C   UNL     1      50.554   8.321  12.231  0.00  0.00    +0.000 A 
ATOM     13  F   UNL     1      51.512   8.748  11.398  0.00  0.00    +0.000 F 
ATOM     14  C   UNL     1      49.243   8.223  11.769  0.00  0.00    +0.000 A 
ENDBRANCH   6   8
ENDBRANCH   1   2
BRANCH   1  15
ATOM     15  N   UNL     1      43.857   4.741   9.941  0.00  0.00    +0.000 N 
ATOM     16  H   UNL     1      42.944   4.304   9.848  0.00  0.00    +0.000 HD
BRANCH  15  20
ATOM     17  C   UNL     1      46.525   2.545   7.706  0.00  0.00    +0.000 A 
ATOM     18  C   UNL     1      46.447   3.922   7.561  0.00  0.00    +0.000 A 
ATOM     19  N   UNL     1      45.593   4.688   8.295  0.00  0.00    +0.000 NA
ATOM     20  C   UNL     1      44.819   4.044   9.195  0.00  0.00    +0.000 A 
ATOM     21  C   UNL     1      44.925   2.652   9.334  0.00  0.00    +0.000 A 
ATOM     22  N   UNL     1      45.767   1.867   8.609  0.00  0.00    +0.000 NA
BRANCH  17  24
ATOM     23  N   UNL     1      48.530   2.429   6.358  0.00  0.00    +0.000 N 
ATOM     24  C   UNL     1      47.438   1.757   6.835  0.00  0.00    +0.000 C 
ATOM     25  O   UNL     1      47.239   0.577   6.572  0.00  0.00    +0.000 OA
ATOM     26  H   UNL     1      49.210   1.938   5.790  0.00  0.00    +0.000 HD
ATOM     27  H   UNL     1      48.688   3.395   6.623  0.00  0.00    +0.000 HD
ENDBRANCH  17  24
ENDBRANCH  15  20
ENDBRANCH   1  15
TORSDOF 5
ENDMDL
MODEL 9
REMARK VINA RESULT:    -6.836      5.737      8.400
REMARK INTER + INTRA:          -9.564
REMARK INTER:                  -8.896
REMARK INTRA:                  -0.667
REMARK UNBOUND:                -0.730
REMARK  Name = 
REMARK  5 active torsions:
REMARK  status: ('A' for Active; 'I' for Inactive)
REMARK    1  A    between atoms: C_2  and  C_4
REMARK    2  A    between atoms: C_7  and  N_8
REMARK    3  A    between atoms: N_8  and  C_9
REMARK    4  A    between atoms: C_9  and  C_10
REMARK    5  A    between atoms: C_14  and  C_15
REMARK                            x       y       z     vdW  Elec       q    Type
REMARK                         _______ _______ _______ _____ _____    ______ ____
ROOT
ATOM      1  C   UNL     1      48.635   7.058  13.833  0.00  0.00    +0.000 C 
ENDROOT
BRANCH   1   2
ATOM      2  C   UNL     1      47.328   7.149  13.074  0.00  0.00    +0.000 A 
ATOM      3  C   UNL     1      46.558   8.317  13.108  0.00  0.00    +0.000 A 
ATOM      4  C   UNL     1      45.382   8.401  12.367  0.00  0.00    +0.000 A 
ATOM      5  C   UNL     1      44.970   7.324  11.577  0.00  0.00    +0.000 A 
ATOM      6  C   UNL     1      45.722   6.138  11.499  0.00  0.00    +0.000 A 
ATOM      7  C   UNL     1      46.897   6.074  12.274  0.00  0.00    +0.000 A 
BRANCH   6   8
ATOM      8  C   UNL     1      45.316   5.023  10.610  0.00  0.00    +0.000 A 
ATOM      9  C   UNL     1      44.537   3.946  11.079  0.00  0.00    +0.000 A 
ATOM     10  C   UNL     1      44.171   2.884  10.242  0.00  0.00    +0.000 A 
ATOM     11  C   UNL     1      44.569   2.880   8.910  0.00  0.00    +0.000 A 
ATOM     12  C   UNL     1      45.336   3.931   8.431  0.00  0.00    +0.000 A 
ATOM     13  F   UNL     1      45.726   3.933   7.150  0.00  0.00    +0.000 F 
ATOM     14  C   UNL     1      45.712   4.985   9.261  0.00  0.00    +0.000 A 
ENDBRANCH   6   8
ENDBRANCH   1   2
BRANCH   1  15
ATOM     15  N   UNL     1      48.489   7.694  15.138  0.00  0.00    +0.000 N 
ATOM     16  H   UNL     1      49.115   8.488  15.240  0.00  0.00    +0.000 HD
BRANCH  15  20
ATOM     17  C   UNL     1      48.722   5.266  18.453  0.00  0.00    +0.000 A 
ATOM     18  C   UNL     1      48.526   4.723  17.192  0.00  0.00    +0.000 A 
ATOM     19  N   UNL     1      48.463   5.488  16.067  0.00  0.00    +0.000 NA
ATOM     20  C   UNL     1      48.615   6.821  16.229  0.00  0.00    +0.000 A 
ATOM     21  C   UNL     1      48.826   7.346  17.513  0.00  0.00    +0.000 A 
ATOM     22  N   UNL     1      48.888   6.602  18.650  0.00  0.00    +0.000 NA
BRANCH  17  24
ATOM     23  N   UNL     1      48.466   3.060  19.412  0.00  0.00    +0.000 N 
ATOM     24  C   UNL     1      48.725   4.382  19.649  0.00  0.00    +0.000 C 
ATOM     25  O   UNL     1      48.961   4.803  20.776  0.00  0.00    +0.000 OA
ATOM     26  H   UNL     1      48.491   2.400  20.179  0.00  0.00    +0.000 HD
ATOM     27  H   UNL     1      48.312   2.735  18.464  0.00  0.00    +0.000 HD
ENDBRANCH  17  24
ENDBRANCH  15  20
ENDBRANCH   1  15
TORSDOF 5
ENDMDL
