MODEL 1
REMARK VINA RESULT:    -6.842      0.000      0.000
REMARK INTER + INTRA:         -11.249
REMARK INTER:                 -10.242
REMARK INTRA:                  -1.006
REMARK UNBOUND:                -1.006
REMARK  Name = 
REMARK  13 active torsions:
REMARK  status: ('A' for Active; 'I' for Inactive)
REMARK    1  A    between atoms: C_1  and  N_2
REMARK    2  A    between atoms: N_2  and  C_3
REMARK    3  A    between atoms: N_2  and  C_4
REMARK    4  A    between atoms: C_4  and  C_5
REMARK    5  A    between atoms: C_5  and  O_6
REMARK    6  A    between atoms: O_6  and  C_7
REMARK    7  A    between atoms: C_10  and  C_11
REMARK    8  A    between atoms: C_11  and  C_12
REMARK    9  A    between atoms: C_11  and  C_13
REMARK   10  A    between atoms: C_11  and  C_14
REMARK   11  A    between atoms: C_14  and  N_15
REMARK   12  A    between atoms: C_19  and  S_20
REMARK   13  A    between atoms: S_20  and  N_21
REMARK                            x       y       z     vdW  Elec       q    Type
REMARK                         _______ _______ _______ _____ _____    ______ ____
ROOT
ATOM      1  C   UNL     1      43.671   5.945  11.859  0.00  0.00    +0.000 C 
ATOM      2  C   UNL     1      42.788   5.169  12.862  0.00  0.00    +0.000 C 
ATOM      3  C   UNL     1      43.105   7.383  11.725  0.00  0.00    +0.000 C 
ENDROOT
BRANCH   1   7
ATOM      4  C   UNL     1      47.748   6.233  13.434  0.00  0.00    +0.000 A 
ATOM      5  C   UNL     1      47.210   7.270  12.681  0.00  0.00    +0.000 A 
ATOM      6  C   UNL     1      45.910   7.181  12.178  0.00  0.00    +0.000 A 
ATOM      7  C   UNL     1      45.115   6.046  12.387  0.00  0.00    +0.000 A 
ATOM      8  C   UNL     1      45.688   4.994  13.128  0.00  0.00    +0.000 A 
ATOM      9  C   UNL     1      46.988   5.086  13.641  0.00  0.00    +0.000 A 
BRANCH   4  10
ATOM     10  O   UNL     1      49.002   6.229  13.987  0.00  0.00    +0.000 OA
BRANCH  10  11
ATOM     11  C   UNL     1      49.214   7.226  14.994  0.00  0.00    +0.000 C 
BRANCH  11  12
ATOM     12  C   UNL     1      48.915   6.627  16.374  0.00  0.00    +0.000 C 
BRANCH  12  14
ATOM     13  C   UNL     1      50.845   5.412  17.136  0.00  0.00    +0.000 C 
ATOM     14  N   UNL     1      49.492   5.284  16.590  0.00  0.00    +0.000 NA
ATOM     15  C   UNL     1      48.676   4.459  17.484  0.00  0.00    +0.000 C 
ENDBRANCH  12  14
ENDBRANCH  11  12
ENDBRANCH  10  11
ENDBRANCH   4  10
ENDBRANCH   1   7
BRANCH   1  16
ATOM     16  C   UNL     1      43.520   5.294  10.445  0.00  0.00    +0.000 C 
BRANCH  16  17
ATOM     17  N   UNL     1      43.789   3.848  10.434  0.00  0.00    +0.000 N 
ATOM     18  C   UNL     1      44.692   3.446   9.438  0.00  0.00    +0.000 A 
ATOM     19  C   UNL     1      45.049   2.100   9.367  0.00  0.00    +0.000 A 
ATOM     20  C   UNL     1      45.935   1.676   8.376  0.00  0.00    +0.000 A 
ATOM     21  C   UNL     1      46.449   2.622   7.497  0.00  0.00    +0.000 A 
ATOM     22  C   UNL     1      46.065   3.939   7.636  0.00  0.00    +0.000 A 
ATOM     23  N   UNL     1      45.211   4.362   8.597  0.00  0.00    +0.000 NA
ATOM     24  H   UNL     1      42.945   3.286  10.369  0.00  0.00    +0.000 HD
BRANCH  21  25
ATOM     25  S   UNL     1      47.493   2.180   6.166  0.00  0.00    +0.000 S 
ATOM     26  O   UNL     1      47.788   0.767   6.249  0.00  0.00    +0.000 OA
ATOM     27  O   UNL     1      47.010   2.795   4.954  0.00  0.00    +0.000 OA
BRANCH  25  28
ATOM     28  N   UNL     1      48.920   2.972   6.550  0.00  0.00    +0.000 NA
ATOM     29  H   UNL     1      49.411   3.233   5.695  0.00  0.00    +0.000 HD
ATOM     30  H   UNL     1      48.725   3.763   7.167  0.00  0.00    +0.000 HD
ENDBRANCH  25  28
ENDBRANCH  21  25
ENDBRANCH  16  17
ENDBRANCH   1  16
TORSDOF 9
ENDMDL
MODEL 2
REMARK VINA RESULT:    -6.224      1.998      2.760
REMARK INTER + INTRA:         -10.323
REMARK INTER:                  -9.637
REMARK INTRA:                  -0.686
REMARK UNBOUND:                -1.006
REMARK  Name = 
REMARK  13 active torsions:
REMARK  status: ('A' for Active; 'I' for Inactive)
REMARK    1  A    between atoms: C_1  and  N_2
REMARK    2  A    between atoms: N_2  and  C_3
REMARK    3  A    between atoms: N_2  and  C_4
REMARK    4  A    between atoms: C_4  and  C_5
REMARK    5  A    between atoms: C_5  and  O_6
REMARK    6  A    between atoms: O_6  and  C_7
REMARK    7  A    between atoms: C_10  and  C_11
REMARK    8  A    between atoms: C_11  and  C_12
REMARK    9  A    between atoms: C_11  and  C_13
REMARK   10  A    between atoms: C_11  and  C_14
REMARK   11  A    between atoms: C_14  and  N_15
REMARK   12  A    between atoms: C_19  and  S_20
REMARK   13  A    between atoms: S_20  and  N_21
REMARK                            x       y       z     vdW  Elec       q    Type
REMARK                         _______ _______ _______ _____ _____    ______ ____
ROOT
ATOM      1  C   UNL     1      43.763   4.290  12.325  0.00  0.00    +0.000 C 
ATOM      2  C   UNL     1      43.762   2.756  12.506  0.00  0.00    +0.000 C 
ATOM      3  C   UNL     1      42.660   4.887  13.238  0.00  0.00    +0.000 C 
ENDROOT
BRANCH   1   7
ATOM      4  C   UNL     1      47.599   5.942  13.643  0.00  0.00    +0.000 A 
ATOM      5  C   UNL     1      46.600   6.780  13.162  0.00  0.00    +0.000 A 
ATOM      6  C   UNL     1      45.376   6.256  12.741  0.00  0.00    +0.000 A 
ATOM      7  C   UNL     1      45.117   4.879  12.762  0.00  0.00    +0.000 A 
ATOM      8  C   UNL     1      46.152   4.043  13.227  0.00  0.00    +0.000 A 
ATOM      9  C   UNL     1      47.376   4.568  13.658  0.00  0.00    +0.000 A 
BRANCH   4  10
ATOM     10  O   UNL     1      48.825   6.355  14.097  0.00  0.00    +0.000 OA
BRANCH  10  11
ATOM     11  C   UNL     1      49.485   7.305  13.252  0.00  0.00    +0.000 C 
BRANCH  11  12
ATOM     12  C   UNL     1      49.663   8.625  14.014  0.00  0.00    +0.000 C 
BRANCH  12  14
ATOM     13  C   UNL     1      49.140   9.561  11.862  0.00  0.00    +0.000 C 
ATOM     14  N   UNL     1      49.798   9.813  13.146  0.00  0.00    +0.000 NA
ATOM     15  C   UNL     1      49.239  11.022  13.757  0.00  0.00    +0.000 C 
ENDBRANCH  12  14
ENDBRANCH  11  12
ENDBRANCH  10  11
ENDBRANCH   4  10
ENDBRANCH   1   7
BRANCH   1  16
ATOM     16  C   UNL     1      43.331   4.625  10.860  0.00  0.00    +0.000 C 
BRANCH  16  17
ATOM     17  N   UNL     1      44.366   5.330  10.089  0.00  0.00    +0.000 N 
ATOM     18  C   UNL     1      45.059   4.510   9.186  0.00  0.00    +0.000 A 
ATOM     19  C   UNL     1      46.034   5.088   8.374  0.00  0.00    +0.000 A 
ATOM     20  C   UNL     1      46.744   4.288   7.478  0.00  0.00    +0.000 A 
ATOM     21  C   UNL     1      46.441   2.933   7.415  0.00  0.00    +0.000 A 
ATOM     22  C   UNL     1      45.454   2.432   8.236  0.00  0.00    +0.000 A 
ATOM     23  N   UNL     1      44.754   3.200   9.103  0.00  0.00    +0.000 NA
ATOM     24  H   UNL     1      45.033   5.823  10.675  0.00  0.00    +0.000 HD
BRANCH  21  25
ATOM     25  S   UNL     1      47.335   1.830   6.393  0.00  0.00    +0.000 S 
ATOM     26  O   UNL     1      47.383   0.534   7.030  0.00  0.00    +0.000 OA
ATOM     27  O   UNL     1      46.916   2.001   5.024  0.00  0.00    +0.000 OA
BRANCH  25  28
ATOM     28  N   UNL     1      48.893   2.444   6.479  0.00  0.00    +0.000 NA
ATOM     29  H   UNL     1      48.935   3.181   7.183  0.00  0.00    +0.000 HD
ATOM     30  H   UNL     1      49.559   1.686   6.642  0.00  0.00    +0.000 HD
ENDBRANCH  25  28
ENDBRANCH  21  25
ENDBRANCH  16  17
ENDBRANCH   1  16
TORSDOF 9
ENDMDL
MODEL 3
REMARK VINA RESULT:    -6.148      4.043      8.311
REMARK INTER + INTRA:         -10.210
REMARK INTER:                  -8.955
REMARK INTRA:                  -1.254
REMARK UNBOUND:                -1.006
REMARK  Name = 
REMARK  13 active torsions:
REMARK  status: ('A' for Active; 'I' for Inactive)
REMARK    1  A    between atoms: C_1  and  N_2
REMARK    2  A    between atoms: N_2  and  C_3
REMARK    3  A    between atoms: N_2  and  C_4
REMARK    4  A    between atoms: C_4  and  C_5
REMARK    5  A    between atoms: C_5  and  O_6
REMARK    6  A    between atoms: O_6  and  C_7
REMARK    7  A    between atoms: C_10  and  C_11
REMARK    8  A    between atoms: C_11  and  C_12
REMARK    9  A    between atoms: C_11  and  C_13
REMARK   10  A    between atoms: C_11  and  C_14
REMARK   11  A    between atoms: C_14  and  N_15
REMARK   12  A    between atoms: C_19  and  S_20
REMARK   13  A    between atoms: S_20  and  N_21
REMARK                            x       y       z     vdW  Elec       q    Type
REMARK                         _______ _______ _______ _____ _____    ______ ____
ROOT
ATOM      1  C   UNL     1      49.004   9.394  12.606  0.00  0.00    +0.000 C 
ATOM      2  C   UNL     1      49.648   9.939  11.311  0.00  0.00    +0.000 C 
ATOM      3  C   UNL     1      48.610  10.602  13.496  0.00  0.00    +0.000 C 
ENDROOT
BRANCH   1   7
ATOM      4  C   UNL     1      45.348   7.143  11.741  0.00  0.00    +0.000 A 
ATOM      5  C   UNL     1      46.594   6.601  11.450  0.00  0.00    +0.000 A 
ATOM      6  C   UNL     1      47.762   7.316  11.724  0.00  0.00    +0.000 A 
ATOM      7  C   UNL     1      47.724   8.605  12.275  0.00  0.00    +0.000 A 
ATOM      8  C   UNL     1      46.452   9.149  12.537  0.00  0.00    +0.000 A 
ATOM      9  C   UNL     1      45.281   8.429  12.270  0.00  0.00    +0.000 A 
BRANCH   4  10
ATOM     10  O   UNL     1      44.147   6.519  11.528  0.00  0.00    +0.000 OA
BRANCH  10  11
ATOM     11  C   UNL     1      43.790   5.555  12.527  0.00  0.00    +0.000 C 
BRANCH  11  12
ATOM     12  C   UNL     1      43.061   4.381  11.862  0.00  0.00    +0.000 C 
BRANCH  12  14
ATOM     13  C   UNL     1      44.200   3.221  10.090  0.00  0.00    +0.000 C 
ATOM     14  N   UNL     1      43.933   3.235  11.530  0.00  0.00    +0.000 NA
ATOM     15  C   UNL     1      45.200   3.262  12.266  0.00  0.00    +0.000 C 
ENDBRANCH  12  14
ENDBRANCH  11  12
ENDBRANCH  10  11
ENDBRANCH   4  10
ENDBRANCH   1   7
BRANCH   1  16
ATOM     16  C   UNL     1      50.086   8.605  13.413  0.00  0.00    +0.000 C 
BRANCH  16  17
ATOM     17  N   UNL     1      50.026   8.842  14.863  0.00  0.00    +0.000 N 
ATOM     18  C   UNL     1      49.451   7.788  15.588  0.00  0.00    +0.000 A 
ATOM     19  C   UNL     1      49.384   7.893  16.977  0.00  0.00    +0.000 A 
ATOM     20  C   UNL     1      48.805   6.862  17.717  0.00  0.00    +0.000 A 
ATOM     21  C   UNL     1      48.324   5.747  17.038  0.00  0.00    +0.000 A 
ATOM     22  C   UNL     1      48.438   5.704  15.665  0.00  0.00    +0.000 A 
ATOM     23  N   UNL     1      49.005   6.695  14.938  0.00  0.00    +0.000 NA
ATOM     24  H   UNL     1      49.559   9.711  15.106  0.00  0.00    +0.000 HD
BRANCH  21  25
ATOM     25  S   UNL     1      47.499   4.444  17.862  0.00  0.00    +0.000 S 
ATOM     26  O   UNL     1      46.687   3.724  16.908  0.00  0.00    +0.000 OA
ATOM     27  O   UNL     1      48.423   3.778  18.747  0.00  0.00    +0.000 OA
BRANCH  25  28
ATOM     28  N   UNL     1      46.425   5.269  18.851  0.00  0.00    +0.000 NA
ATOM     29  H   UNL     1      45.878   5.926  18.295  0.00  0.00    +0.000 HD
ATOM     30  H   UNL     1      45.853   4.605  19.376  0.00  0.00    +0.000 HD
ENDBRANCH  25  28
ENDBRANCH  21  25
ENDBRANCH  16  17
ENDBRANCH   1  16
TORSDOF 9
ENDMDL
MODEL 4
REMARK VINA RESULT:    -6.128      3.713      8.985
REMARK INTER + INTRA:         -10.180
REMARK INTER:                  -9.377
REMARK INTRA:                  -0.803
REMARK UNBOUND:                -1.006
REMARK  Name = 
REMARK  13 active torsions:
REMARK  status: ('A' for Active; 'I' for Inactive)
REMARK    1  A    between atoms: C_1  and  N_2
REMARK    2  A    between atoms: N_2  and  C_3
REMARK    3  A    between atoms: N_2  and  C_4
REMARK    4  A    between atoms: C_4  and  C_5
REMARK    5  A    between atoms: C_5  and  O_6
REMARK    6  A    between atoms: O_6  and  C_7
REMARK    7  A    between atoms: C_10  and  C_11
REMARK    8  A    between atoms: C_11  and  C_12
REMARK    9  A    between atoms: C_11  and  C_13
REMARK   10  A    between atoms: C_11  and  C_14
REMARK   11  A    between atoms: C_14  and  N_15
REMARK   12  A    between atoms: C_19  and  S_20
REMARK   13  A    between atoms: S_20  and  N_21
REMARK                            x       y       z     vdW  Elec       q    Type
REMARK                         _______ _______ _______ _____ _____    ______ ____
ROOT
ATOM      1  C   UNL     1      47.091   7.293  12.747  0.00  0.00    +0.000 C 
ATOM      2  C   UNL     1      48.188   7.796  11.782  0.00  0.00    +0.000 C 
ATOM      3  C   UNL     1      46.065   8.437  12.954  0.00  0.00    +0.000 C 
ENDROOT
BRANCH   1   7
ATOM      4  C   UNL     1      44.920   3.917  10.995  0.00  0.00    +0.000 A 
ATOM      5  C   UNL     1      45.349   3.868  12.316  0.00  0.00    +0.000 A 
ATOM      6  C   UNL     1      46.042   4.943  12.877  0.00  0.00    +0.000 A 
ATOM      7  C   UNL     1      46.351   6.090  12.133  0.00  0.00    +0.000 A 
ATOM      8  C   UNL     1      45.932   6.109  10.788  0.00  0.00    +0.000 A 
ATOM      9  C   UNL     1      45.230   5.036  10.227  0.00  0.00    +0.000 A 
BRANCH   4  10
ATOM     10  O   UNL     1      44.220   2.927  10.356  0.00  0.00    +0.000 OA
BRANCH  10  11
ATOM     11  C   UNL     1      44.471   2.830   8.949  0.00  0.00    +0.000 C 
BRANCH  11  12
ATOM     12  C   UNL     1      45.601   1.822   8.703  0.00  0.00    +0.000 C 
BRANCH  12  14
ATOM     13  C   UNL     1      47.244   1.202   7.061  0.00  0.00    +0.000 C 
ATOM     14  N   UNL     1      46.675   2.319   7.817  0.00  0.00    +0.000 NA
ATOM     15  C   UNL     1      46.205   3.352   6.890  0.00  0.00    +0.000 C 
ENDBRANCH  12  14
ENDBRANCH  11  12
ENDBRANCH  10  11
ENDBRANCH   4  10
ENDBRANCH   1   7
BRANCH   1  16
ATOM     16  C   UNL     1      47.734   7.037  14.150  0.00  0.00    +0.000 C 
BRANCH  16  17
ATOM     17  N   UNL     1      49.093   7.584  14.282  0.00  0.00    +0.000 N 
ATOM     18  C   UNL     1      49.858   6.968  15.283  0.00  0.00    +0.000 A 
ATOM     19  C   UNL     1      51.177   7.382  15.463  0.00  0.00    +0.000 A 
ATOM     20  C   UNL     1      51.952   6.792  16.462  0.00  0.00    +0.000 A 
ATOM     21  C   UNL     1      51.382   5.791  17.240  0.00  0.00    +0.000 A 
ATOM     22  C   UNL     1      50.076   5.420  16.996  0.00  0.00    +0.000 A 
ATOM     23  N   UNL     1      49.318   5.981  16.025  0.00  0.00    +0.000 NA
ATOM     24  H   UNL     1      49.106   8.590  14.420  0.00  0.00    +0.000 HD
BRANCH  21  25
ATOM     25  S   UNL     1      52.237   5.053  18.575  0.00  0.00    +0.000 S 
ATOM     26  O   UNL     1      53.511   4.561  18.102  0.00  0.00    +0.000 OA
ATOM     27  O   UNL     1      52.121   5.895  19.740  0.00  0.00    +0.000 OA
BRANCH  25  28
ATOM     28  N   UNL     1      51.307   3.695  18.891  0.00  0.00    +0.000 NA
ATOM     29  H   UNL     1      51.145   3.179  18.027  0.00  0.00    +0.000 HD
ATOM     30  H   UNL     1      51.744   3.136  19.626  0.00  0.00    +0.000 HD
ENDBRANCH  25  28
ENDBRANCH  21  25
ENDBRANCH  16  17
ENDBRANCH   1  16
TORSDOF 9
ENDMDL
MODEL 5
REMARK VINA RESULT:    -6.094      4.543      6.994
REMARK INTER + INTRA:         -10.128
REMARK INTER:                  -9.424
REMARK INTRA:                  -0.704
REMARK UNBOUND:                -1.006
REMARK  Name = 
REMARK  13 active torsions:
REMARK  status: ('A' for Active; 'I' for Inactive)
REMARK    1  A    between atoms: C_1  and  N_2
REMARK    2  A    between atoms: N_2  and  C_3
REMARK    3  A    between atoms: N_2  and  C_4
REMARK    4  A    between atoms: C_4  and  C_5
REMARK    5  A    between atoms: C_5  and  O_6
REMARK    6  A    between atoms: O_6  and  C_7
REMARK    7  A    between atoms: C_10  and  C_11
REMARK    8  A    between atoms: C_11  and  C_12
REMARK    9  A    between atoms: C_11  and  C_13
REMARK   10  A    between atoms: C_11  and  C_14
REMARK   11  A    between atoms: C_14  and  N_15
REMARK   12  A    between atoms: C_19  and  S_20
REMARK   13  A    between atoms: S_20  and  N_21
REMARK                            x       y       z     vdW  Elec       q    Type
REMARK                         _______ _______ _______ _____ _____    ______ ____
ROOT
ATOM      1  C   UNL     1      48.241   3.703  17.180  0.00  0.00    +0.000 C 
ATOM      2  C   UNL     1      47.304   2.918  18.126  0.00  0.00    +0.000 C 
ATOM      3  C   UNL     1      48.140   5.209  17.536  0.00  0.00    +0.000 C 
ENDROOT
BRANCH   1   7
ATOM      4  C   UNL     1      52.371   2.393  17.825  0.00  0.00    +0.000 A 
ATOM      5  C   UNL     1      52.004   3.712  18.069  0.00  0.00    +0.000 A 
ATOM      6  C   UNL     1      50.688   4.132  17.864  0.00  0.00    +0.000 A 
ATOM      7  C   UNL     1      49.702   3.259  17.386  0.00  0.00    +0.000 A 
ATOM      8  C   UNL     1      50.099   1.934  17.118  0.00  0.00    +0.000 A 
ATOM      9  C   UNL     1      51.416   1.509  17.332  0.00  0.00    +0.000 A 
BRANCH   4  10
ATOM     10  O   UNL     1      53.627   1.876  18.011  0.00  0.00    +0.000 OA
BRANCH  10  11
ATOM     11  C   UNL     1      53.853   0.613  17.375  0.00  0.00    +0.000 C 
BRANCH  11  12
ATOM     12  C   UNL     1      54.699  -0.276  18.295  0.00  0.00    +0.000 C 
BRANCH  12  14
ATOM     13  C   UNL     1      54.660  -2.678  18.208  0.00  0.00    +0.000 C 
ATOM     14  N   UNL     1      55.261  -1.472  17.635  0.00  0.00    +0.000 NA
ATOM     15  C   UNL     1      55.058  -1.461  16.184  0.00  0.00    +0.000 C 
ENDBRANCH  12  14
ENDBRANCH  11  12
ENDBRANCH  10  11
ENDBRANCH   4  10
ENDBRANCH   1   7
BRANCH   1  16
ATOM     16  C   UNL     1      47.703   3.573  15.717  0.00  0.00    +0.000 C 
BRANCH  16  17
ATOM     17  N   UNL     1      47.352   4.863  15.105  0.00  0.00    +0.000 N 
ATOM     18  C   UNL     1      46.609   4.746  13.921  0.00  0.00    +0.000 A 
ATOM     19  C   UNL     1      46.186   5.911  13.281  0.00  0.00    +0.000 A 
ATOM     20  C   UNL     1      45.457   5.818  12.095  0.00  0.00    +0.000 A 
ATOM     21  C   UNL     1      45.160   4.554  11.596  0.00  0.00    +0.000 A 
ATOM     22  C   UNL     1      45.596   3.445  12.290  0.00  0.00    +0.000 A 
ATOM     23  N   UNL     1      46.298   3.524  13.445  0.00  0.00    +0.000 NA
ATOM     24  H   UNL     1      48.158   5.459  14.937  0.00  0.00    +0.000 HD
BRANCH  21  25
ATOM     25  S   UNL     1      44.333   4.330  10.072  0.00  0.00    +0.000 S 
ATOM     26  O   UNL     1      44.345   2.925   9.733  0.00  0.00    +0.000 OA
ATOM     27  O   UNL     1      43.122   5.114  10.066  0.00  0.00    +0.000 OA
BRANCH  25  28
ATOM     28  N   UNL     1      45.371   5.075   8.987  0.00  0.00    +0.000 NA
ATOM     29  H   UNL     1      46.216   5.380   9.471  0.00  0.00    +0.000 HD
ATOM     30  H   UNL     1      45.555   4.455   8.197  0.00  0.00    +0.000 HD
ENDBRANCH  25  28
ENDBRANCH  21  25
ENDBRANCH  16  17
ENDBRANCH   1  16
TORSDOF 9
ENDMDL
MODEL 6
REMARK VINA RESULT:    -6.018      2.001      2.502
REMARK INTER + INTRA:         -10.015
REMARK INTER:                  -9.108
REMARK INTRA:                  -0.907
REMARK UNBOUND:                -1.006
REMARK  Name = 
REMARK  13 active torsions:
REMARK  status: ('A' for Active; 'I' for Inactive)
REMARK    1  A    between atoms: C_1  and  N_2
REMARK    2  A    between atoms: N_2  and  C_3
REMARK    3  A    between atoms: N_2  and  C_4
REMARK    4  A    between atoms: C_4  and  C_5
REMARK    5  A    between atoms: C_5  and  O_6
REMARK    6  A    between atoms: O_6  and  C_7
REMARK    7  A    between atoms: C_10  and  C_11
REMARK    8  A    between atoms: C_11  and  C_12
REMARK    9  A    between atoms: C_11  and  C_13
REMARK   10  A    between atoms: C_11  and  C_14
REMARK   11  A    between atoms: C_14  and  N_15
REMARK   12  A    between atoms: C_19  and  S_20
REMARK   13  A    between atoms: S_20  and  N_21
REMARK                            x       y       z     vdW  Elec       q    Type
REMARK                         _______ _______ _______ _____ _____    ______ ____
ROOT
ATOM      1  C   UNL     1      44.388   5.412  12.232  0.00  0.00    +0.000 C 
ATOM      2  C   UNL     1      45.015   4.146  12.860  0.00  0.00    +0.000 C 
ATOM      3  C   UNL     1      43.196   5.853  13.120  0.00  0.00    +0.000 C 
ENDROOT
BRANCH   1   7
ATOM      4  C   UNL     1      47.347   8.642  12.219  0.00  0.00    +0.000 A 
ATOM      5  C   UNL     1      46.016   8.907  12.521  0.00  0.00    +0.000 A 
ATOM      6  C   UNL     1      45.071   7.879  12.527  0.00  0.00    +0.000 A 
ATOM      7  C   UNL     1      45.416   6.559  12.206  0.00  0.00    +0.000 A 
ATOM      8  C   UNL     1      46.763   6.315  11.874  0.00  0.00    +0.000 A 
ATOM      9  C   UNL     1      47.713   7.343  11.878  0.00  0.00    +0.000 A 
BRANCH   4  10
ATOM     10  O   UNL     1      48.353   9.572  12.204  0.00  0.00    +0.000 OA
BRANCH  10  11
ATOM     11  C   UNL     1      48.485  10.328  13.414  0.00  0.00    +0.000 C 
BRANCH  11  12
ATOM     12  C   UNL     1      49.891  10.122  13.991  0.00  0.00    +0.000 C 
BRANCH  12  14
ATOM     13  C   UNL     1      51.741   9.235  12.738  0.00  0.00    +0.000 C 
ATOM     14  N   UNL     1      50.560   8.888  13.531  0.00  0.00    +0.000 NA
ATOM     15  C   UNL     1      50.951   8.013  14.640  0.00  0.00    +0.000 C 
ENDBRANCH  12  14
ENDBRANCH  11  12
ENDBRANCH  10  11
ENDBRANCH   4  10
ENDBRANCH   1   7
BRANCH   1  16
ATOM     16  C   UNL     1      43.772   5.034  10.846  0.00  0.00    +0.000 C 
BRANCH  16  17
ATOM     17  N   UNL     1      43.825   3.594  10.552  0.00  0.00    +0.000 N 
ATOM     18  C   UNL     1      44.708   3.258   9.515  0.00  0.00    +0.000 A 
ATOM     19  C   UNL     1      44.867   1.913   9.185  0.00  0.00    +0.000 A 
ATOM     20  C   UNL     1      45.731   1.557   8.149  0.00  0.00    +0.000 A 
ATOM     21  C   UNL     1      46.422   2.565   7.486  0.00  0.00    +0.000 A 
ATOM     22  C   UNL     1      46.229   3.873   7.876  0.00  0.00    +0.000 A 
ATOM     23  N   UNL     1      45.399   4.228   8.885  0.00  0.00    +0.000 NA
ATOM     24  H   UNL     1      42.912   3.192  10.359  0.00  0.00    +0.000 HD
BRANCH  21  25
ATOM     25  S   UNL     1      47.456   2.233   6.115  0.00  0.00    +0.000 S 
ATOM     26  O   UNL     1      47.772   0.823   6.096  0.00  0.00    +0.000 OA
ATOM     27  O   UNL     1      46.949   2.925   4.955  0.00  0.00    +0.000 OA
BRANCH  25  28
ATOM     28  N   UNL     1      48.876   3.018   6.538  0.00  0.00    +0.000 NA
ATOM     29  H   UNL     1      49.064   3.772   5.877  0.00  0.00    +0.000 HD
ATOM     30  H   UNL     1      48.826   3.330   7.509  0.00  0.00    +0.000 HD
ENDBRANCH  25  28
ENDBRANCH  21  25
ENDBRANCH  16  17
ENDBRANCH   1  16
TORSDOF 9
ENDMDL
MODEL 7
REMARK VINA RESULT:    -6.007      3.963      9.138
REMARK INTER + INTRA:          -9.998
REMARK INTER:                  -8.886
REMARK INTRA:                  -1.112
REMARK UNBOUND:                -1.006
REMARK  Name = 
REMARK  13 active torsions:
REMARK  status: ('A' for Active; 'I' for Inactive)
REMARK    1  A    between atoms: C_1  and  N_2
REMARK    2  A    between atoms: N_2  and  C_3
REMARK    3  A    between atoms: N_2  and  C_4
REMARK    4  A    between atoms: C_4  and  C_5
REMARK    5  A    between atoms: C_5  and  O_6
REMARK    6  A    between atoms: O_6  and  C_7
REMARK    7  A    between atoms: C_10  and  C_11
REMARK    8  A    between atoms: C_11  and  C_12
REMARK    9  A    between atoms: C_11  and  C_13
REMARK   10  A    between atoms: C_11  and  C_14
REMARK   11  A    between atoms: C_14  and  N_15
REMARK   12  A    between atoms: C_19  and  S_20
REMARK   13  A    between atoms: S_20  and  N_21
REMARK                            x       y       z     vdW  Elec       q    Type
REMARK                         _______ _______ _______ _____ _____    ______ ____
ROOT
ATOM      1  C   UNL     1      48.651   7.635  12.680  0.00  0.00    +0.000 C 
ATOM      2  C   UNL     1      49.507   7.523  11.399  0.00  0.00    +0.000 C 
ATOM      3  C   UNL     1      48.132   9.092  12.792  0.00  0.00    +0.000 C 
ENDROOT
BRANCH   1   7
ATOM      4  C   UNL     1      45.137   5.029  12.453  0.00  0.00    +0.000 A 
ATOM      5  C   UNL     1      46.178   4.734  13.328  0.00  0.00    +0.000 A 
ATOM      6  C   UNL     1      47.299   5.563  13.402  0.00  0.00    +0.000 A 
ATOM      7  C   UNL     1      47.431   6.698  12.590  0.00  0.00    +0.000 A 
ATOM      8  C   UNL     1      46.380   6.965  11.691  0.00  0.00    +0.000 A 
ATOM      9  C   UNL     1      45.251   6.139  11.622  0.00  0.00    +0.000 A 
BRANCH   4  10
ATOM     10  O   UNL     1      43.989   4.293  12.317  0.00  0.00    +0.000 OA
BRANCH  10  11
ATOM     11  C   UNL     1      43.531   4.146  10.968  0.00  0.00    +0.000 C 
BRANCH  11  12
ATOM     12  C   UNL     1      44.081   2.839  10.384  0.00  0.00    +0.000 C 
BRANCH  12  14
ATOM     13  C   UNL     1      45.466   1.746   8.751  0.00  0.00    +0.000 C 
ATOM     14  N   UNL     1      45.168   3.024   9.401  0.00  0.00    +0.000 NA
ATOM     15  C   UNL     1      44.844   4.029   8.386  0.00  0.00    +0.000 C 
ENDBRANCH  12  14
ENDBRANCH  11  12
ENDBRANCH  10  11
ENDBRANCH   4  10
ENDBRANCH   1   7
BRANCH   1  16
ATOM     16  C   UNL     1      49.573   7.414  13.924  0.00  0.00    +0.000 C 
BRANCH  16  17
ATOM     17  N   UNL     1      49.154   8.177  15.109  0.00  0.00    +0.000 N 
ATOM     18  C   UNL     1      49.132   7.422  16.291  0.00  0.00    +0.000 A 
ATOM     19  C   UNL     1      48.789   8.061  17.483  0.00  0.00    +0.000 A 
ATOM     20  C   UNL     1      48.748   7.327  18.668  0.00  0.00    +0.000 A 
ATOM     21  C   UNL     1      49.070   5.975  18.623  0.00  0.00    +0.000 A 
ATOM     22  C   UNL     1      49.415   5.413  17.413  0.00  0.00    +0.000 A 
ATOM     23  N   UNL     1      49.465   6.117  16.258  0.00  0.00    +0.000 NA
ATOM     24  H   UNL     1      48.257   8.639  14.989  0.00  0.00    +0.000 HD
BRANCH  21  25
ATOM     25  S   UNL     1      48.960   4.949  20.035  0.00  0.00    +0.000 S 
ATOM     26  O   UNL     1      50.285   4.753  20.577  0.00  0.00    +0.000 OA
ATOM     27  O   UNL     1      47.849   5.374  20.850  0.00  0.00    +0.000 OA
BRANCH  25  28
ATOM     28  N   UNL     1      48.510   3.475  19.373  0.00  0.00    +0.000 NA
ATOM     29  H   UNL     1      48.926   2.714  19.910  0.00  0.00    +0.000 HD
ATOM     30  H   UNL     1      47.492   3.419  19.306  0.00  0.00    +0.000 HD
ENDBRANCH  25  28
ENDBRANCH  21  25
ENDBRANCH  16  17
ENDBRANCH   1  16
TORSDOF 9
ENDMDL
MODEL 8
REMARK VINA RESULT:    -5.965      1.432      1.794
REMARK INTER + INTRA:          -9.936
REMARK INTER:                  -9.395
REMARK INTRA:                  -0.541
REMARK UNBOUND:                -1.006
REMARK  Name = 
REMARK  13 active torsions:
REMARK  status: ('A' for Active; 'I' for Inactive)
REMARK    1  A    between atoms: C_1  and  N_2
REMARK    2  A    between atoms: N_2  and  C_3
REMARK    3  A    between atoms: N_2  and  C_4
REMARK    4  A    between atoms: C_4  and  C_5
REMARK    5  A    between atoms: C_5  and  O_6
REMARK    6  A    between atoms: O_6  and  C_7
REMARK    7  A    between atoms: C_10  and  C_11
REMARK    8  A    between atoms: C_11  and  C_12
REMARK    9  A    between atoms: C_11  and  C_13
REMARK   10  A    between atoms: C_11  and  C_14
REMARK   11  A    between atoms: C_14  and  N_15
REMARK   12  A    between atoms: C_19  and  S_20
REMARK   13  A    between atoms: S_20  and  N_21
REMARK                            x       y       z     vdW  Elec       q    Type
REMARK                         _______ _______ _______ _____ _____    ______ ____
ROOT
ATOM      1  C   UNL     1      43.777   6.209  11.691  0.00  0.00    +0.000 C 
ATOM      2  C   UNL     1      42.441   6.134  12.464  0.00  0.00    +0.000 C 
ATOM      3  C   UNL     1      44.105   7.702  11.433  0.00  0.00    +0.000 C 
ENDROOT
BRANCH   1   7
ATOM      4  C   UNL     1      46.968   4.493  14.152  0.00  0.00    +0.000 A 
ATOM      5  C   UNL     1      47.070   5.795  13.674  0.00  0.00    +0.000 A 
ATOM      6  C   UNL     1      46.054   6.344  12.889  0.00  0.00    +0.000 A 
ATOM      7  C   UNL     1      44.916   5.607  12.534  0.00  0.00    +0.000 A 
ATOM      8  C   UNL     1      44.844   4.281  13.005  0.00  0.00    +0.000 A 
ATOM      9  C   UNL     1      45.858   3.732  13.800  0.00  0.00    +0.000 A 
BRANCH   4  10
ATOM     10  O   UNL     1      47.897   3.869  14.942  0.00  0.00    +0.000 OA
BRANCH  10  11
ATOM     11  C   UNL     1      47.599   3.888  16.344  0.00  0.00    +0.000 C 
BRANCH  11  12
ATOM     12  C   UNL     1      48.269   2.687  17.022  0.00  0.00    +0.000 C 
BRANCH  12  14
ATOM     13  C   UNL     1      50.638   2.451  17.361  0.00  0.00    +0.000 C 
ATOM     14  N   UNL     1      49.409   3.040  17.895  0.00  0.00    +0.000 NA
ATOM     15  C   UNL     1      49.578   4.488  18.038  0.00  0.00    +0.000 C 
ENDBRANCH  12  14
ENDBRANCH  11  12
ENDBRANCH  10  11
ENDBRANCH   4  10
ENDBRANCH   1   7
BRANCH   1  16
ATOM     16  C   UNL     1      43.578   5.565  10.279  0.00  0.00    +0.000 C 
BRANCH  16  17
ATOM     17  N   UNL     1      43.662   4.097  10.287  0.00  0.00    +0.000 N 
ATOM     18  C   UNL     1      44.604   3.578   9.386  0.00  0.00    +0.000 A 
ATOM     19  C   UNL     1      44.794   2.197   9.343  0.00  0.00    +0.000 A 
ATOM     20  C   UNL     1      45.716   1.658   8.446  0.00  0.00    +0.000 A 
ATOM     21  C   UNL     1      46.432   2.525   7.629  0.00  0.00    +0.000 A 
ATOM     22  C   UNL     1      46.205   3.881   7.736  0.00  0.00    +0.000 A 
ATOM     23  N   UNL     1      45.318   4.415   8.608  0.00  0.00    +0.000 NA
ATOM     24  H   UNL     1      42.765   3.646  10.132  0.00  0.00    +0.000 HD
BRANCH  21  25
ATOM     25  S   UNL     1      47.543   1.945   6.409  0.00  0.00    +0.000 S 
ATOM     26  O   UNL     1      48.895   2.228   6.832  0.00  0.00    +0.000 OA
ATOM     27  O   UNL     1      47.130   0.634   5.972  0.00  0.00    +0.000 OA
BRANCH  25  28
ATOM     28  N   UNL     1      47.236   2.978   5.124  0.00  0.00    +0.000 NA
ATOM     29  H   UNL     1      48.093   3.133   4.594  0.00  0.00    +0.000 HD
ATOM     30  H   UNL     1      46.466   2.614   4.560  0.00  0.00    +0.000 HD
ENDBRANCH  25  28
ENDBRANCH  21  25
ENDBRANCH  16  17
ENDBRANCH   1  16
TORSDOF 9
ENDMDL
MODEL 9
REMARK VINA RESULT:    -5.602      3.344      5.935
REMARK INTER + INTRA:          -9.392
REMARK INTER:                  -8.303
REMARK INTRA:                  -1.089
REMARK UNBOUND:                -1.006
REMARK  Name = 
REMARK  13 active torsions:
REMARK  status: ('A' for Active; 'I' for Inactive)
REMARK    1  A    between atoms: C_1  and  N_2
REMARK    2  A    between atoms: N_2  and  C_3
REMARK    3  A    between atoms: N_2  and  C_4
REMARK    4  A    between atoms: C_4  and  C_5
REMARK    5  A    between atoms: C_5  and  O_6
REMARK    6  A    between atoms: O_6  and  C_7
REMARK    7  A    between atoms: C_10  and  C_11
REMARK    8  A    between atoms: C_11  and  C_12
REMARK    9  A    between atoms: C_11  and  C_13
REMARK   10  A    between atoms: C_11  and  C_14
REMARK   11  A    between atoms: C_14  and  N_15
REMARK   12  A    between atoms: C_19  and  S_20
REMARK   13  A    between atoms: S_20  and  N_21
REMARK                            x       y       z     vdW  Elec       q    Type
REMARK                         _______ _______ _______ _____ _____    ______ ____
ROOT
ATOM      1  C   UNL     1      48.413   3.445  17.182  0.00  0.00    +0.000 C 
ATOM      2  C   UNL     1      49.684   2.567  17.137  0.00  0.00    +0.000 C 
ATOM      3  C   UNL     1      47.441   2.838  18.227  0.00  0.00    +0.000 C 
ENDROOT
BRANCH   1   7
ATOM      4  C   UNL     1      49.475   7.482  18.510  0.00  0.00    +0.000 A 
ATOM      5  C   UNL     1      48.212   6.962  18.775  0.00  0.00    +0.000 A 
ATOM      6  C   UNL     1      47.871   5.676  18.353  0.00  0.00    +0.000 A 
ATOM      7  C   UNL     1      48.767   4.875  17.631  0.00  0.00    +0.000 A 
ATOM      8  C   UNL     1      50.031   5.429  17.348  0.00  0.00    +0.000 A 
ATOM      9  C   UNL     1      50.378   6.715  17.779  0.00  0.00    +0.000 A 
BRANCH   4  10
ATOM     10  O   UNL     1      49.914   8.721  18.894  0.00  0.00    +0.000 OA
BRANCH  10  11
ATOM     11  C   UNL     1      50.356   9.559  17.819  0.00  0.00    +0.000 C 
BRANCH  11  12
ATOM     12  C   UNL     1      49.138  10.070  17.040  0.00  0.00    +0.000 C 
BRANCH  12  14
ATOM     13  C   UNL     1      50.566   9.482  15.197  0.00  0.00    +0.000 C 
ATOM     14  N   UNL     1      49.192   9.805  15.587  0.00  0.00    +0.000 NA
ATOM     15  C   UNL     1      48.296   8.720  15.179  0.00  0.00    +0.000 C 
ENDBRANCH  12  14
ENDBRANCH  11  12
ENDBRANCH  10  11
ENDBRANCH   4  10
ENDBRANCH   1   7
BRANCH   1  16
ATOM     16  C   UNL     1      47.679   3.339  15.805  0.00  0.00    +0.000 C 
BRANCH  16  17
ATOM     17  N   UNL     1      47.438   4.642  15.167  0.00  0.00    +0.000 N 
ATOM     18  C   UNL     1      46.696   4.565  13.980  0.00  0.00    +0.000 A 
ATOM     19  C   UNL     1      46.374   5.748  13.316  0.00  0.00    +0.000 A 
ATOM     20  C   UNL     1      45.648   5.693  12.127  0.00  0.00    +0.000 A 
ATOM     21  C   UNL     1      45.251   4.449  11.648  0.00  0.00    +0.000 A 
ATOM     22  C   UNL     1      45.590   3.321  12.364  0.00  0.00    +0.000 A 
ATOM     23  N   UNL     1      46.288   3.364  13.523  0.00  0.00    +0.000 NA
ATOM     24  H   UNL     1      48.292   5.166  14.996  0.00  0.00    +0.000 HD
BRANCH  21  25
ATOM     25  S   UNL     1      44.418   4.266  10.121  0.00  0.00    +0.000 S 
ATOM     26  O   UNL     1      45.292   4.698   9.054  0.00  0.00    +0.000 OA
ATOM     27  O   UNL     1      43.742   2.992  10.096  0.00  0.00    +0.000 OA
BRANCH  25  28
ATOM     28  N   UNL     1      43.213   5.426  10.229  0.00  0.00    +0.000 NA
ATOM     29  H   UNL     1      42.556   5.175  10.968  0.00  0.00    +0.000 HD
ATOM     30  H   UNL     1      43.629   6.352  10.349  0.00  0.00    +0.000 HD
ENDBRANCH  25  28
ENDBRANCH  21  25
ENDBRANCH  16  17
ENDBRANCH   1  16
TORSDOF 9
ENDMDL
