MODEL 1
REMARK VINA RESULT:    -8.383      0.000      0.000
REMARK INTER + INTRA:         -12.326
REMARK INTER:                 -11.323
REMARK INTRA:                  -1.003
REMARK UNBOUND:                -1.003
REMARK  Name = 
REMARK  6 active torsions:
REMARK  status: ('A' for Active; 'I' for Inactive)
REMARK    1  A    between atoms: C_2  and  C_3
REMARK    2  A    between atoms: N_7  and  C_8
REMARK    3  A    between atoms: C_8  and  C_9
REMARK    4  A    between atoms: C_9  and  C_12
REMARK    5  A    between atoms: C_16  and  C_17
REMARK    6  A    between atoms: C_17  and  C_18
REMARK                            x       y       z     vdW  Elec       q    Type
REMARK                         _______ _______ _______ _____ _____    ______ ____
ROOT
ATOM      1  C   UNL     1      43.678   4.639  12.373  0.00  0.00    +0.000 C 
ATOM      2  F   UNL     1      42.717   5.498  12.821  0.00  0.00    +0.000 F 
ATOM      3  F   UNL     1      43.483   3.480  13.071  0.00  0.00    +0.000 F 
ENDROOT
BRANCH   1   4
ATOM      4  C   UNL     1      45.081   5.192  12.544  0.00  0.00    +0.000 A 
ATOM      5  C   UNL     1      45.609   6.069  11.587  0.00  0.00    +0.000 A 
ATOM      6  C   UNL     1      46.854   6.663  11.786  0.00  0.00    +0.000 A 
ATOM      7  C   UNL     1      47.580   6.392  12.946  0.00  0.00    +0.000 A 
ATOM      8  C   UNL     1      47.080   5.513  13.916  0.00  0.00    +0.000 A 
ATOM      9  C   UNL     1      45.830   4.910  13.701  0.00  0.00    +0.000 A 
BRANCH   8  10
ATOM     10  C   UNL     1      47.874   5.222  15.170  0.00  0.00    +0.000 C 
BRANCH  10  11
ATOM     11  C   UNL     1      47.146   4.233  16.074  0.00  0.00    +0.000 C 
ATOM     12  C   UNL     1      47.119   4.489  17.594  0.00  0.00    +0.000 C 
ATOM     13  N   UNL     1      47.534   3.097  17.830  0.00  0.00    +0.000 NA
ATOM     14  C   UNL     1      47.952   2.964  16.427  0.00  0.00    +0.000 C 
ATOM     15  H   UNL     1      46.768   2.475  18.091  0.00  0.00    +0.000 HD
ENDBRANCH  10  11
ENDBRANCH   8  10
ENDBRANCH   1   4
BRANCH   1  16
ATOM     16  C   UNL     1      43.444   4.360  10.869  0.00  0.00    +0.000 C 
BRANCH  16  21
ATOM     17  C   UNL     1      46.675   2.431   7.383  0.00  0.00    +0.000 A 
ATOM     18  C   UNL     1      46.277   3.735   7.646  0.00  0.00    +0.000 A 
ATOM     19  C   UNL     1      45.358   3.973   8.668  0.00  0.00    +0.000 A 
ATOM     20  C   UNL     1      44.845   2.909   9.407  0.00  0.00    +0.000 A 
ATOM     21  N   UNL     1      43.922   3.065  10.403  0.00  0.00    +0.000 N 
ATOM     22  N   UNL     1      45.230   1.643   9.161  0.00  0.00    +0.000 NA
ATOM     23  C   UNL     1      46.130   1.427   8.168  0.00  0.00    +0.000 A 
ATOM     24  H   UNL     1      43.636   2.213  10.873  0.00  0.00    +0.000 HD
BRANCH  17  26
ATOM     25  N   UNL     1      48.367   1.870   5.514  0.00  0.00    +0.000 NA
ATOM     26  C   UNL     1      47.604   2.126   6.351  0.00  0.00    +0.000 C 
ENDBRANCH  17  26
ENDBRANCH  16  21
ENDBRANCH   1  16
TORSDOF 6
ENDMDL
MODEL 2
REMARK VINA RESULT:    -7.940      2.205      3.684
REMARK INTER + INTRA:         -11.728
REMARK INTER:                 -10.897
REMARK INTRA:                  -0.832
REMARK UNBOUND:                -1.003
REMARK  Name = 
REMARK  6 active torsions:
REMARK  status: ('A' for Active; 'I' for Inactive)
REMARK    1  A    between atoms: C_2  and  C_3
REMARK    2  A    between atoms: N_7  and  C_8
REMARK    3  A    between atoms: C_8  and  C_9
REMARK    4  A    between atoms: C_9  and  C_12
REMARK    5  A    between atoms: C_16  and  C_17
REMARK    6  A    between atoms: C_17  and  C_18
REMARK                            x       y       z     vdW  Elec       q    Type
REMARK                         _______ _______ _______ _____ _____    ______ ____
ROOT
ATOM      1  C   UNL     1      43.428   4.724  12.289  0.00  0.00    +0.000 C 
ATOM      2  F   UNL     1      42.435   5.602  12.610  0.00  0.00    +0.000 F 
ATOM      3  F   UNL     1      43.092   3.552  12.906  0.00  0.00    +0.000 F 
ENDROOT
BRANCH   1   4
ATOM      4  C   UNL     1      44.802   5.222  12.697  0.00  0.00    +0.000 A 
ATOM      5  C   UNL     1      45.610   4.440  13.534  0.00  0.00    +0.000 A 
ATOM      6  C   UNL     1      46.912   4.839  13.831  0.00  0.00    +0.000 A 
ATOM      7  C   UNL     1      47.422   6.019  13.289  0.00  0.00    +0.000 A 
ATOM      8  C   UNL     1      46.634   6.824  12.455  0.00  0.00    +0.000 A 
ATOM      9  C   UNL     1      45.320   6.420  12.172  0.00  0.00    +0.000 A 
BRANCH   8  10
ATOM     10  C   UNL     1      47.193   8.103  11.873  0.00  0.00    +0.000 C 
BRANCH  10  11
ATOM     11  C   UNL     1      46.633   9.330  12.585  0.00  0.00    +0.000 C 
ATOM     12  C   UNL     1      45.308   9.944  12.088  0.00  0.00    +0.000 C 
ATOM     13  N   UNL     1      45.932  11.277  12.089  0.00  0.00    +0.000 NA
ATOM     14  C   UNL     1      47.270  10.671  12.159  0.00  0.00    +0.000 C 
ATOM     15  H   UNL     1      45.695  11.844  12.904  0.00  0.00    +0.000 HD
ENDBRANCH  10  11
ENDBRANCH   8  10
ENDBRANCH   1   4
BRANCH   1  16
ATOM     16  C   UNL     1      43.427   4.499  10.758  0.00  0.00    +0.000 C 
BRANCH  16  21
ATOM     17  C   UNL     1      46.676   2.448   7.360  0.00  0.00    +0.000 A 
ATOM     18  C   UNL     1      46.291   3.763   7.586  0.00  0.00    +0.000 A 
ATOM     19  C   UNL     1      45.362   4.037   8.591  0.00  0.00    +0.000 A 
ATOM     20  C   UNL     1      44.828   2.997   9.348  0.00  0.00    +0.000 A 
ATOM     21  N   UNL     1      43.894   3.188  10.329  0.00  0.00    +0.000 N 
ATOM     22  N   UNL     1      45.200   1.721   9.137  0.00  0.00    +0.000 NA
ATOM     23  C   UNL     1      46.109   1.470   8.161  0.00  0.00    +0.000 A 
ATOM     24  H   UNL     1      43.593   2.350  10.816  0.00  0.00    +0.000 HD
BRANCH  17  26
ATOM     25  N   UNL     1      48.383   1.821   5.525  0.00  0.00    +0.000 NA
ATOM     26  C   UNL     1      47.615   2.108   6.348  0.00  0.00    +0.000 C 
ENDBRANCH  17  26
ENDBRANCH  16  21
ENDBRANCH   1  16
TORSDOF 6
ENDMDL
MODEL 3
REMARK VINA RESULT:    -7.758      3.051      7.171
REMARK INTER + INTRA:         -11.482
REMARK INTER:                 -10.590
REMARK INTRA:                  -0.892
REMARK UNBOUND:                -1.003
REMARK  Name = 
REMARK  6 active torsions:
REMARK  status: ('A' for Active; 'I' for Inactive)
REMARK    1  A    between atoms: C_2  and  C_3
REMARK    2  A    between atoms: N_7  and  C_8
REMARK    3  A    between atoms: C_8  and  C_9
REMARK    4  A    between atoms: C_9  and  C_12
REMARK    5  A    between atoms: C_16  and  C_17
REMARK    6  A    between atoms: C_17  and  C_18
REMARK                            x       y       z     vdW  Elec       q    Type
REMARK                         _______ _______ _______ _____ _____    ______ ____
ROOT
ATOM      1  C   UNL     1      43.451   5.404  11.432  0.00  0.00    +0.000 C 
ATOM      2  F   UNL     1      42.199   5.094  11.875  0.00  0.00    +0.000 F 
ATOM      3  F   UNL     1      43.313   6.574  10.740  0.00  0.00    +0.000 F 
ENDROOT
BRANCH   1   4
ATOM      4  C   UNL     1      44.064   4.299  10.591  0.00  0.00    +0.000 A 
ATOM      5  C   UNL     1      43.717   2.962  10.831  0.00  0.00    +0.000 A 
ATOM      6  C   UNL     1      44.193   1.951   9.999  0.00  0.00    +0.000 A 
ATOM      7  C   UNL     1      45.013   2.264   8.915  0.00  0.00    +0.000 A 
ATOM      8  C   UNL     1      45.381   3.592   8.655  0.00  0.00    +0.000 A 
ATOM      9  C   UNL     1      44.908   4.603   9.507  0.00  0.00    +0.000 A 
BRANCH   8  10
ATOM     10  C   UNL     1      46.272   3.924   7.480  0.00  0.00    +0.000 C 
BRANCH  10  11
ATOM     11  C   UNL     1      46.642   2.673   6.691  0.00  0.00    +0.000 C 
ATOM     12  C   UNL     1      47.974   1.958   7.001  0.00  0.00    +0.000 C 
ATOM     13  N   UNL     1      48.287   1.929   5.564  0.00  0.00    +0.000 NA
ATOM     14  C   UNL     1      47.255   2.943   5.299  0.00  0.00    +0.000 C 
ATOM     15  H   UNL     1      48.102   1.030   5.118  0.00  0.00    +0.000 HD
ENDBRANCH  10  11
ENDBRANCH   8  10
ENDBRANCH   1   4
BRANCH   1  16
ATOM     16  C   UNL     1      44.370   5.652  12.652  0.00  0.00    +0.000 C 
BRANCH  16  21
ATOM     17  C   UNL     1      48.333   8.816  11.878  0.00  0.00    +0.000 A 
ATOM     18  C   UNL     1      48.189   7.451  11.660  0.00  0.00    +0.000 A 
ATOM     19  C   UNL     1      46.978   6.836  11.978  0.00  0.00    +0.000 A 
ATOM     20  C   UNL     1      45.934   7.587  12.514  0.00  0.00    +0.000 A 
ATOM     21  N   UNL     1      44.731   7.046  12.876  0.00  0.00    +0.000 N 
ATOM     22  N   UNL     1      46.066   8.910  12.724  0.00  0.00    +0.000 NA
ATOM     23  C   UNL     1      47.247   9.496  12.403  0.00  0.00    +0.000 A 
ATOM     24  H   UNL     1      44.049   7.701  13.244  0.00  0.00    +0.000 HD
BRANCH  17  26
ATOM     25  N   UNL     1      50.539  10.048  11.338  0.00  0.00    +0.000 NA
ATOM     26  C   UNL     1      49.545   9.497  11.577  0.00  0.00    +0.000 C 
ENDBRANCH  17  26
ENDBRANCH  16  21
ENDBRANCH   1  16
TORSDOF 6
ENDMDL
MODEL 4
REMARK VINA RESULT:    -7.576      1.795      7.856
REMARK INTER + INTRA:         -11.236
REMARK INTER:                 -10.627
REMARK INTRA:                  -0.609
REMARK UNBOUND:                -1.003
REMARK  Name = 
REMARK  6 active torsions:
REMARK  status: ('A' for Active; 'I' for Inactive)
REMARK    1  A    between atoms: C_2  and  C_3
REMARK    2  A    between atoms: N_7  and  C_8
REMARK    3  A    between atoms: C_8  and  C_9
REMARK    4  A    between atoms: C_9  and  C_12
REMARK    5  A    between atoms: C_16  and  C_17
REMARK    6  A    between atoms: C_17  and  C_18
REMARK                            x       y       z     vdW  Elec       q    Type
REMARK                         _______ _______ _______ _____ _____    ______ ____
ROOT
ATOM      1  C   UNL     1      44.963   5.937  11.733  0.00  0.00    +0.000 C 
ATOM      2  F   UNL     1      43.913   5.863  12.600  0.00  0.00    +0.000 F 
ATOM      3  F   UNL     1      44.864   7.166  11.145  0.00  0.00    +0.000 F 
ENDROOT
BRANCH   1   4
ATOM      4  C   UNL     1      44.965   4.806  10.720  0.00  0.00    +0.000 A 
ATOM      5  C   UNL     1      44.183   3.664  10.945  0.00  0.00    +0.000 A 
ATOM      6  C   UNL     1      44.097   2.668   9.974  0.00  0.00    +0.000 A 
ATOM      7  C   UNL     1      44.784   2.805   8.768  0.00  0.00    +0.000 A 
ATOM      8  C   UNL     1      45.579   3.933   8.520  0.00  0.00    +0.000 A 
ATOM      9  C   UNL     1      45.670   4.925   9.509  0.00  0.00    +0.000 A 
BRANCH   8  10
ATOM     10  C   UNL     1      46.323   4.073   7.211  0.00  0.00    +0.000 C 
BRANCH  10  11
ATOM     11  C   UNL     1      46.636   2.712   6.600  0.00  0.00    +0.000 C 
ATOM     12  C   UNL     1      47.893   1.952   7.071  0.00  0.00    +0.000 C 
ATOM     13  N   UNL     1      48.274   1.724   5.668  0.00  0.00    +0.000 NA
ATOM     14  C   UNL     1      47.336   2.766   5.224  0.00  0.00    +0.000 C 
ATOM     15  H   UNL     1      48.044   0.792   5.323  0.00  0.00    +0.000 HD
ENDBRANCH  10  11
ENDBRANCH   8  10
ENDBRANCH   1   4
BRANCH   1  16
ATOM     16  C   UNL     1      46.285   5.873  12.535  0.00  0.00    +0.000 C 
BRANCH  16  21
ATOM     17  C   UNL     1      48.529   4.742  17.007  0.00  0.00    +0.000 A 
ATOM     18  C   UNL     1      48.612   5.865  16.194  0.00  0.00    +0.000 A 
ATOM     19  C   UNL     1      47.886   5.898  15.004  0.00  0.00    +0.000 A 
ATOM     20  C   UNL     1      47.095   4.810  14.638  0.00  0.00    +0.000 A 
ATOM     21  N   UNL     1      46.380   4.762  13.474  0.00  0.00    +0.000 N 
ATOM     22  N   UNL     1      47.007   3.721  15.423  0.00  0.00    +0.000 NA
ATOM     23  C   UNL     1      47.713   3.705  16.582  0.00  0.00    +0.000 A 
ATOM     24  H   UNL     1      45.835   3.919  13.329  0.00  0.00    +0.000 HD
BRANCH  17  26
ATOM     25  N   UNL     1      49.844   4.570  19.224  0.00  0.00    +0.000 NA
ATOM     26  C   UNL     1      49.249   4.649  18.230  0.00  0.00    +0.000 C 
ENDBRANCH  17  26
ENDBRANCH  16  21
ENDBRANCH   1  16
TORSDOF 6
ENDMDL
MODEL 5
REMARK VINA RESULT:    -7.575      1.953      2.532
REMARK INTER + INTRA:         -11.235
REMARK INTER:                 -10.379
REMARK INTRA:                  -0.856
REMARK UNBOUND:                -1.003
REMARK  Name = 
REMARK  6 active torsions:
REMARK  status: ('A' for Active; 'I' for Inactive)
REMARK    1  A    between atoms: C_2  and  C_3
REMARK    2  A    between atoms: N_7  and  C_8
REMARK    3  A    between atoms: C_8  and  C_9
REMARK    4  A    between atoms: C_9  and  C_12
REMARK    5  A    between atoms: C_16  and  C_17
REMARK    6  A    between atoms: C_17  and  C_18
REMARK                            x       y       z     vdW  Elec       q    Type
REMARK                         _______ _______ _______ _____ _____    ______ ____
ROOT
ATOM      1  C   UNL     1      43.924   5.343  12.232  0.00  0.00    +0.000 C 
ATOM      2  F   UNL     1      42.850   5.363  13.072  0.00  0.00    +0.000 F 
ATOM      3  F   UNL     1      44.752   4.373  12.723  0.00  0.00    +0.000 F 
ENDROOT
BRANCH   1   4
ATOM      4  C   UNL     1      44.609   6.693  12.128  0.00  0.00    +0.000 A 
ATOM      5  C   UNL     1      44.050   7.701  11.329  0.00  0.00    +0.000 A 
ATOM      6  C   UNL     1      44.613   8.976  11.308  0.00  0.00    +0.000 A 
ATOM      7  C   UNL     1      45.734   9.259  12.089  0.00  0.00    +0.000 A 
ATOM      8  C   UNL     1      46.318   8.268  12.891  0.00  0.00    +0.000 A 
ATOM      9  C   UNL     1      45.751   6.983  12.896  0.00  0.00    +0.000 A 
BRANCH   8  10
ATOM     10  C   UNL     1      47.534   8.581  13.733  0.00  0.00    +0.000 C 
BRANCH  10  11
ATOM     11  C   UNL     1      48.472   7.382  13.824  0.00  0.00    +0.000 C 
ATOM     12  C   UNL     1      48.668   6.688  15.187  0.00  0.00    +0.000 C 
ATOM     13  N   UNL     1      50.127   6.740  14.998  0.00  0.00    +0.000 NA
ATOM     14  C   UNL     1      49.970   7.740  13.930  0.00  0.00    +0.000 C 
ATOM     15  H   UNL     1      50.535   5.861  14.680  0.00  0.00    +0.000 HD
ENDBRANCH  10  11
ENDBRANCH   8  10
ENDBRANCH   1   4
BRANCH   1  16
ATOM     16  C   UNL     1      43.452   4.926  10.819  0.00  0.00    +0.000 C 
BRANCH  16  21
ATOM     17  C   UNL     1      46.574   2.507   7.546  0.00  0.00    +0.000 A 
ATOM     18  C   UNL     1      46.308   3.857   7.735  0.00  0.00    +0.000 A 
ATOM     19  C   UNL     1      45.386   4.237   8.710  0.00  0.00    +0.000 A 
ATOM     20  C   UNL     1      44.740   3.269   9.476  0.00  0.00    +0.000 A 
ATOM     21  N   UNL     1      43.806   3.567  10.429  0.00  0.00    +0.000 N 
ATOM     22  N   UNL     1      44.997   1.960   9.301  0.00  0.00    +0.000 NA
ATOM     23  C   UNL     1      45.901   1.604   8.353  0.00  0.00    +0.000 A 
ATOM     24  H   UNL     1      43.417   2.773  10.925  0.00  0.00    +0.000 HD
BRANCH  17  26
ATOM     25  N   UNL     1      48.250   1.694   5.756  0.00  0.00    +0.000 NA
ATOM     26  C   UNL     1      47.500   2.058   6.564  0.00  0.00    +0.000 C 
ENDBRANCH  17  26
ENDBRANCH  16  21
ENDBRANCH   1  16
TORSDOF 6
ENDMDL
MODEL 6
REMARK VINA RESULT:    -7.131      2.530      7.781
REMARK INTER + INTRA:         -10.636
REMARK INTER:                 -10.075
REMARK INTRA:                  -0.561
REMARK UNBOUND:                -1.003
REMARK  Name = 
REMARK  6 active torsions:
REMARK  status: ('A' for Active; 'I' for Inactive)
REMARK    1  A    between atoms: C_2  and  C_3
REMARK    2  A    between atoms: N_7  and  C_8
REMARK    3  A    between atoms: C_8  and  C_9
REMARK    4  A    between atoms: C_9  and  C_12
REMARK    5  A    between atoms: C_16  and  C_17
REMARK    6  A    between atoms: C_17  and  C_18
REMARK                            x       y       z     vdW  Elec       q    Type
REMARK                         _______ _______ _______ _____ _____    ______ ____
ROOT
ATOM      1  C   UNL     1      44.091   5.682  11.454  0.00  0.00    +0.000 C 
ATOM      2  F   UNL     1      43.745   5.267  12.707  0.00  0.00    +0.000 F 
ATOM      3  F   UNL     1      43.010   6.376  10.989  0.00  0.00    +0.000 F 
ENDROOT
BRANCH   1   4
ATOM      4  C   UNL     1      44.477   4.530  10.544  0.00  0.00    +0.000 A 
ATOM      5  C   UNL     1      43.970   3.246  10.787  0.00  0.00    +0.000 A 
ATOM      6  C   UNL     1      44.235   2.205   9.899  0.00  0.00    +0.000 A 
ATOM      7  C   UNL     1      45.002   2.437   8.757  0.00  0.00    +0.000 A 
ATOM      8  C   UNL     1      45.528   3.710   8.494  0.00  0.00    +0.000 A 
ATOM      9  C   UNL     1      45.266   4.749   9.401  0.00  0.00    +0.000 A 
BRANCH   8  10
ATOM     10  C   UNL     1      46.361   3.954   7.255  0.00  0.00    +0.000 C 
BRANCH  10  11
ATOM     11  C   UNL     1      46.703   2.646   6.548  0.00  0.00    +0.000 C 
ATOM     12  C   UNL     1      48.000   1.906   6.932  0.00  0.00    +0.000 C 
ATOM     13  N   UNL     1      48.345   1.782   5.507  0.00  0.00    +0.000 NA
ATOM     14  C   UNL     1      47.357   2.814   5.160  0.00  0.00    +0.000 C 
ATOM     15  H   UNL     1      48.138   0.865   5.109  0.00  0.00    +0.000 HD
ENDBRANCH  10  11
ENDBRANCH   8  10
ENDBRANCH   1   4
BRANCH   1  16
ATOM     16  C   UNL     1      45.297   6.646  11.557  0.00  0.00    +0.000 C 
BRANCH  16  21
ATOM     17  C   UNL     1      48.762   8.220  14.996  0.00  0.00    +0.000 A 
ATOM     18  C   UNL     1      47.753   8.902  14.329  0.00  0.00    +0.000 A 
ATOM     19  C   UNL     1      46.951   8.211  13.421  0.00  0.00    +0.000 A 
ATOM     20  C   UNL     1      47.170   6.855  13.187  0.00  0.00    +0.000 A 
ATOM     21  N   UNL     1      46.441   6.122  12.292  0.00  0.00    +0.000 N 
ATOM     22  N   UNL     1      48.143   6.187  13.834  0.00  0.00    +0.000 NA
ATOM     23  C   UNL     1      48.911   6.871  14.719  0.00  0.00    +0.000 A 
ATOM     24  H   UNL     1      46.691   5.141  12.222  0.00  0.00    +0.000 HD
BRANCH  17  26
ATOM     25  N   UNL     1      50.315   9.409  16.684  0.00  0.00    +0.000 NA
ATOM     26  C   UNL     1      49.615   8.872  15.929  0.00  0.00    +0.000 C 
ENDBRANCH  17  26
ENDBRANCH  16  21
ENDBRANCH   1  16
TORSDOF 6
ENDMDL
MODEL 7
REMARK VINA RESULT:    -6.541      3.197      6.857
REMARK INTER + INTRA:          -9.839
REMARK INTER:                  -8.875
REMARK INTRA:                  -0.963
REMARK UNBOUND:                -1.003
REMARK  Name = 
REMARK  6 active torsions:
REMARK  status: ('A' for Active; 'I' for Inactive)
REMARK    1  A    between atoms: C_2  and  C_3
REMARK    2  A    between atoms: N_7  and  C_8
REMARK    3  A    between atoms: C_8  and  C_9
REMARK    4  A    between atoms: C_9  and  C_12
REMARK    5  A    between atoms: C_16  and  C_17
REMARK    6  A    between atoms: C_17  and  C_18
REMARK                            x       y       z     vdW  Elec       q    Type
REMARK                         _______ _______ _______ _____ _____    ______ ____
ROOT
ATOM      1  C   UNL     1      46.550   4.306  13.842  0.00  0.00    +0.000 C 
ATOM      2  F   UNL     1      47.291   3.176  14.031  0.00  0.00    +0.000 F 
ATOM      3  F   UNL     1      46.208   4.731  15.095  0.00  0.00    +0.000 F 
ENDROOT
BRANCH   1   4
ATOM      4  C   UNL     1      45.340   4.070  12.957  0.00  0.00    +0.000 A 
ATOM      5  C   UNL     1      44.104   4.639  13.296  0.00  0.00    +0.000 A 
ATOM      6  C   UNL     1      43.013   4.514  12.437  0.00  0.00    +0.000 A 
ATOM      7  C   UNL     1      43.147   3.827  11.231  0.00  0.00    +0.000 A 
ATOM      8  C   UNL     1      44.369   3.242  10.871  0.00  0.00    +0.000 A 
ATOM      9  C   UNL     1      45.459   3.362  11.747  0.00  0.00    +0.000 A 
BRANCH   8  10
ATOM     10  C   UNL     1      44.506   2.497   9.562  0.00  0.00    +0.000 C 
BRANCH  10  11
ATOM     11  C   UNL     1      44.787   3.450   8.405  0.00  0.00    +0.000 C 
ATOM     12  C   UNL     1      45.932   3.122   7.426  0.00  0.00    +0.000 C 
ATOM     13  N   UNL     1      46.440   4.496   7.569  0.00  0.00    +0.000 NA
ATOM     14  C   UNL     1      45.627   4.691   8.778  0.00  0.00    +0.000 C 
ATOM     15  H   UNL     1      46.183   5.114   6.798  0.00  0.00    +0.000 HD
ENDBRANCH  10  11
ENDBRANCH   8  10
ENDBRANCH   1   4
BRANCH   1  16
ATOM     16  C   UNL     1      47.437   5.385  13.175  0.00  0.00    +0.000 C 
BRANCH  16  21
ATOM     17  C   UNL     1      44.503   9.215  11.433  0.00  0.00    +0.000 A 
ATOM     18  C   UNL     1      44.771   7.953  10.917  0.00  0.00    +0.000 A 
ATOM     19  C   UNL     1      45.633   7.104  11.610  0.00  0.00    +0.000 A 
ATOM     20  C   UNL     1      46.220   7.526  12.801  0.00  0.00    +0.000 A 
ATOM     21  N   UNL     1      47.096   6.759  13.519  0.00  0.00    +0.000 N 
ATOM     22  N   UNL     1      45.962   8.746  13.309  0.00  0.00    +0.000 NA
ATOM     23  C   UNL     1      45.115   9.559  12.627  0.00  0.00    +0.000 A 
ATOM     24  H   UNL     1      47.444   7.176  14.375  0.00  0.00    +0.000 HD
BRANCH  17  26
ATOM     25  N   UNL     1      42.932  10.867  10.218  0.00  0.00    +0.000 NA
ATOM     26  C   UNL     1      43.636  10.125  10.768  0.00  0.00    +0.000 C 
ENDBRANCH  17  26
ENDBRANCH  16  21
ENDBRANCH   1  16
TORSDOF 6
ENDMDL
MODEL 8
REMARK VINA RESULT:    -6.066      3.699      5.301
REMARK INTER + INTRA:          -9.197
REMARK INTER:                  -8.024
REMARK INTRA:                  -1.173
REMARK UNBOUND:                -1.003
REMARK  Name = 
REMARK  6 active torsions:
REMARK  status: ('A' for Active; 'I' for Inactive)
REMARK    1  A    between atoms: C_2  and  C_3
REMARK    2  A    between atoms: N_7  and  C_8
REMARK    3  A    between atoms: C_8  and  C_9
REMARK    4  A    between atoms: C_9  and  C_12
REMARK    5  A    between atoms: C_16  and  C_17
REMARK    6  A    between atoms: C_17  and  C_18
REMARK                            x       y       z     vdW  Elec       q    Type
REMARK                         _______ _______ _______ _____ _____    ______ ____
ROOT
ATOM      1  C   UNL     1      48.507   8.491  13.064  0.00  0.00    +0.000 C 
ATOM      2  F   UNL     1      48.548   7.874  11.848  0.00  0.00    +0.000 F 
ATOM      3  F   UNL     1      48.760   9.810  12.811  0.00  0.00    +0.000 F 
ENDROOT
BRANCH   1   4
ATOM      4  C   UNL     1      49.485   7.891  14.057  0.00  0.00    +0.000 A 
ATOM      5  C   UNL     1      50.808   8.352  14.102  0.00  0.00    +0.000 A 
ATOM      6  C   UNL     1      51.685   7.882  15.078  0.00  0.00    +0.000 A 
ATOM      7  C   UNL     1      51.247   6.953  16.022  0.00  0.00    +0.000 A 
ATOM      8  C   UNL     1      49.932   6.469  15.997  0.00  0.00    +0.000 A 
ATOM      9  C   UNL     1      49.059   6.939  15.002  0.00  0.00    +0.000 A 
BRANCH   8  10
ATOM     10  C   UNL     1      49.465   5.461  17.022  0.00  0.00    +0.000 C 
BRANCH  10  11
ATOM     11  C   UNL     1      48.027   5.026  16.761  0.00  0.00    +0.000 C 
ATOM     12  C   UNL     1      47.090   4.780  17.962  0.00  0.00    +0.000 C 
ATOM     13  N   UNL     1      46.691   3.489  17.379  0.00  0.00    +0.000 NA
ATOM     14  C   UNL     1      47.849   3.520  16.473  0.00  0.00    +0.000 C 
ATOM     15  H   UNL     1      45.792   3.513  16.897  0.00  0.00    +0.000 HD
ENDBRANCH  10  11
ENDBRANCH   8  10
ENDBRANCH   1   4
BRANCH   1  16
ATOM     16  C   UNL     1      47.079   8.360  13.647  0.00  0.00    +0.000 C 
BRANCH  16  21
ATOM     17  C   UNL     1      44.227   4.395  12.081  0.00  0.00    +0.000 A 
ATOM     18  C   UNL     1      45.256   4.478  13.011  0.00  0.00    +0.000 A 
ATOM     19  C   UNL     1      45.874   5.708  13.233  0.00  0.00    +0.000 A 
ATOM     20  C   UNL     1      45.463   6.834  12.522  0.00  0.00    +0.000 A 
ATOM     21  N   UNL     1      46.041   8.065  12.669  0.00  0.00    +0.000 N 
ATOM     22  N   UNL     1      44.464   6.762  11.624  0.00  0.00    +0.000 NA
ATOM     23  C   UNL     1      43.867   5.559  11.422  0.00  0.00    +0.000 A 
ATOM     24  H   UNL     1      45.643   8.806  12.102  0.00  0.00    +0.000 HD
BRANCH  17  26
ATOM     25  N   UNL     1      43.021   2.166  11.577  0.00  0.00    +0.000 NA
ATOM     26  C   UNL     1      43.563   3.167  11.809  0.00  0.00    +0.000 C 
ENDBRANCH  17  26
ENDBRANCH  16  21
ENDBRANCH   1  16
TORSDOF 6
ENDMDL
MODEL 9
REMARK VINA RESULT:    -6.055      2.779      8.263
REMARK INTER + INTRA:          -9.182
REMARK INTER:                  -8.585
REMARK INTRA:                  -0.597
REMARK UNBOUND:                -1.003
REMARK  Name = 
REMARK  6 active torsions:
REMARK  status: ('A' for Active; 'I' for Inactive)
REMARK    1  A    between atoms: C_2  and  C_3
REMARK    2  A    between atoms: N_7  and  C_8
REMARK    3  A    between atoms: C_8  and  C_9
REMARK    4  A    between atoms: C_9  and  C_12
REMARK    5  A    between atoms: C_16  and  C_17
REMARK    6  A    between atoms: C_17  and  C_18
REMARK                            x       y       z     vdW  Elec       q    Type
REMARK                         _______ _______ _______ _____ _____    ______ ____
ROOT
ATOM      1  C   UNL     1      45.701   6.336  11.705  0.00  0.00    +0.000 C 
ATOM      2  F   UNL     1      44.699   6.911  12.430  0.00  0.00    +0.000 F 
ATOM      3  F   UNL     1      46.081   7.282  10.795  0.00  0.00    +0.000 F 
ENDROOT
BRANCH   1   4
ATOM      4  C   UNL     1      45.276   5.035  11.049  0.00  0.00    +0.000 A 
ATOM      5  C   UNL     1      44.534   4.094  11.777  0.00  0.00    +0.000 A 
ATOM      6  C   UNL     1      44.050   2.945  11.155  0.00  0.00    +0.000 A 
ATOM      7  C   UNL     1      44.296   2.727   9.799  0.00  0.00    +0.000 A 
ATOM      8  C   UNL     1      45.041   3.648   9.049  0.00  0.00    +0.000 A 
ATOM      9  C   UNL     1      45.535   4.796   9.687  0.00  0.00    +0.000 A 
BRANCH   8  10
ATOM     10  C   UNL     1      45.305   3.404   7.580  0.00  0.00    +0.000 C 
BRANCH  10  11
ATOM     11  C   UNL     1      46.748   2.975   7.338  0.00  0.00    +0.000 C 
ATOM     12  C   UNL     1      47.226   2.740   5.890  0.00  0.00    +0.000 C 
ATOM     13  N   UNL     1      47.802   1.448   6.295  0.00  0.00    +0.000 NA
ATOM     14  C   UNL     1      47.018   1.468   7.539  0.00  0.00    +0.000 C 
ATOM     15  H   UNL     1      48.811   1.474   6.446  0.00  0.00    +0.000 HD
ENDBRANCH  10  11
ENDBRANCH   8  10
ENDBRANCH   1   4
BRANCH   1  16
ATOM     16  C   UNL     1      46.896   6.040  12.644  0.00  0.00    +0.000 C 
BRANCH  16  21
ATOM     17  C   UNL     1      49.420   7.142  16.971  0.00  0.00    +0.000 A 
ATOM     18  C   UNL     1      48.915   5.945  16.480  0.00  0.00    +0.000 A 
ATOM     19  C   UNL     1      48.249   5.939  15.254  0.00  0.00    +0.000 A 
ATOM     20  C   UNL     1      48.090   7.126  14.541  0.00  0.00    +0.000 A 
ATOM     21  N   UNL     1      47.425   7.200  13.348  0.00  0.00    +0.000 N 
ATOM     22  N   UNL     1      48.580   8.289  15.009  0.00  0.00    +0.000 NA
ATOM     23  C   UNL     1      49.232   8.278  16.199  0.00  0.00    +0.000 A 
ATOM     24  H   UNL     1      47.388   8.120  12.924  0.00  0.00    +0.000 HD
BRANCH  17  26
ATOM     25  N   UNL     1      50.668   7.272  19.228  0.00  0.00    +0.000 NA
ATOM     26  C   UNL     1      50.103   7.211  18.216  0.00  0.00    +0.000 C 
ENDBRANCH  17  26
ENDBRANCH  16  21
ENDBRANCH   1  16
TORSDOF 6
ENDMDL
