MODEL 1
REMARK VINA RESULT:    -7.120      0.000      0.000
REMARK INTER + INTRA:          -9.198
REMARK INTER:                  -8.577
REMARK INTRA:                  -0.621
REMARK UNBOUND:                -0.621
REMARK  Name = 
REMARK  4 active torsions:
REMARK  status: ('A' for Active; 'I' for Inactive)
REMARK    1  A    between atoms: N_1  and  C_2
REMARK    2  A    between atoms: C_2  and  C_3
REMARK    3  A    between atoms: N_5  and  C_6
REMARK    4  A    between atoms: C_6  and  C_7
REMARK                            x       y       z     vdW  Elec       q    Type
REMARK                         _______ _______ _______ _____ _____    ______ ____
ROOT
ATOM      1  C   UNL     1      45.972   5.862  10.944  0.00  0.00    +0.000 A 
ATOM      2  C   UNL     1      45.899   5.605   9.589  0.00  0.00    +0.000 A 
ATOM      3  N   UNL     1      45.077   4.526   9.386  0.00  0.00    +0.000 N 
ATOM      4  C   UNL     1      44.580   4.076  10.594  0.00  0.00    +0.000 A 
ATOM      5  C   UNL     1      43.694   3.029  10.899  0.00  0.00    +0.000 A 
ATOM      6  C   UNL     1      43.368   2.808  12.239  0.00  0.00    +0.000 A 
ATOM      7  C   UNL     1      43.903   3.605  13.246  0.00  0.00    +0.000 A 
ATOM      8  C   UNL     1      44.781   4.648  12.932  0.00  0.00    +0.000 A 
ATOM      9  C   UNL     1      45.124   4.900  11.588  0.00  0.00    +0.000 A 
ENDROOT
BRANCH   1  10
ATOM     10  C   UNL     1      46.795   6.918  11.600  0.00  0.00    +0.000 C 
BRANCH  10  11
ATOM     11  N   UNL     1      45.923   8.004  12.025  0.00  0.00    +0.000 NA
ATOM     12  H   UNL     1      45.794   7.948  13.032  0.00  0.00    +0.000 HD
ATOM     13  H   UNL     1      45.002   7.860  11.604  0.00  0.00    +0.000 HD
ENDBRANCH  10  11
ENDBRANCH   1  10
BRANCH   3  14
ATOM     14  C   UNL     1      44.826   3.927   8.079  0.00  0.00    +0.000 C 
BRANCH  14  15
ATOM     15  C   UNL     1      45.920   2.965   7.691  0.00  0.00    +0.000 A 
ATOM     16  C   UNL     1      46.958   3.361   6.839  0.00  0.00    +0.000 A 
ATOM     17  C   UNL     1      47.903   2.423   6.457  0.00  0.00    +0.000 A 
ATOM     18  N   UNL     1      47.901   1.142   6.880  0.00  0.00    +0.000 NA
ATOM     19  C   UNL     1      46.908   0.784   7.720  0.00  0.00    +0.000 A 
ATOM     20  C   UNL     1      45.912   1.647   8.154  0.00  0.00    +0.000 A 
ENDBRANCH  14  15
ENDBRANCH   3  14
TORSDOF 4
ENDMDL
MODEL 2
REMARK VINA RESULT:    -6.737      2.135      3.559
REMARK INTER + INTRA:          -8.736
REMARK INTER:                  -8.150
REMARK INTRA:                  -0.587
REMARK UNBOUND:                -0.621
REMARK  Name = 
REMARK  4 active torsions:
REMARK  status: ('A' for Active; 'I' for Inactive)
REMARK    1  A    between atoms: N_1  and  C_2
REMARK    2  A    between atoms: C_2  and  C_3
REMARK    3  A    between atoms: N_5  and  C_6
REMARK    4  A    between atoms: C_6  and  C_7
REMARK                            x       y       z     vdW  Elec       q    Type
REMARK                         _______ _______ _______ _____ _____    ______ ____
ROOT
ATOM      1  C   UNL     1      46.212   4.998  13.364  0.00  0.00    +0.000 A 
ATOM      2  C   UNL     1      45.574   4.121  12.508  0.00  0.00    +0.000 A 
ATOM      3  N   UNL     1      44.863   4.843  11.583  0.00  0.00    +0.000 N 
ATOM      4  C   UNL     1      45.043   6.196  11.799  0.00  0.00    +0.000 A 
ATOM      5  C   UNL     1      44.549   7.317  11.111  0.00  0.00    +0.000 A 
ATOM      6  C   UNL     1      44.909   8.586  11.571  0.00  0.00    +0.000 A 
ATOM      7  C   UNL     1      45.739   8.737  12.677  0.00  0.00    +0.000 A 
ATOM      8  C   UNL     1      46.230   7.614  13.353  0.00  0.00    +0.000 A 
ATOM      9  C   UNL     1      45.888   6.320  12.909  0.00  0.00    +0.000 A 
ENDROOT
BRANCH   1  10
ATOM     10  C   UNL     1      47.049   4.631  14.542  0.00  0.00    +0.000 C 
BRANCH  10  11
ATOM     11  N   UNL     1      47.413   3.224  14.445  0.00  0.00    +0.000 NA
ATOM     12  H   UNL     1      46.582   2.658  14.596  0.00  0.00    +0.000 HD
ATOM     13  H   UNL     1      48.057   3.006  15.209  0.00  0.00    +0.000 HD
ENDBRANCH  10  11
ENDBRANCH   1  10
BRANCH   3  14
ATOM     14  C   UNL     1      44.006   4.243  10.565  0.00  0.00    +0.000 C 
BRANCH  14  15
ATOM     15  C   UNL     1      44.815   3.583   9.478  0.00  0.00    +0.000 A 
ATOM     16  C   UNL     1      44.934   2.189   9.415  0.00  0.00    +0.000 A 
ATOM     17  C   UNL     1      45.743   1.631   8.439  0.00  0.00    +0.000 A 
ATOM     18  N   UNL     1      46.413   2.354   7.518  0.00  0.00    +0.000 NA
ATOM     19  C   UNL     1      46.269   3.694   7.578  0.00  0.00    +0.000 A 
ATOM     20  C   UNL     1      45.488   4.347   8.521  0.00  0.00    +0.000 A 
ENDBRANCH  14  15
ENDBRANCH   3  14
TORSDOF 4
ENDMDL
MODEL 3
REMARK VINA RESULT:    -6.718      1.256      3.001
REMARK INTER + INTRA:          -8.714
REMARK INTER:                  -8.811
REMARK INTRA:                   0.097
REMARK UNBOUND:                -0.621
REMARK  Name = 
REMARK  4 active torsions:
REMARK  status: ('A' for Active; 'I' for Inactive)
REMARK    1  A    between atoms: N_1  and  C_2
REMARK    2  A    between atoms: C_2  and  C_3
REMARK    3  A    between atoms: N_5  and  C_6
REMARK    4  A    between atoms: C_6  and  C_7
REMARK                            x       y       z     vdW  Elec       q    Type
REMARK                         _______ _______ _______ _____ _____    ______ ____
ROOT
ATOM      1  C   UNL     1      44.187   3.494  11.447  0.00  0.00    +0.000 A 
ATOM      2  C   UNL     1      44.319   3.270  10.091  0.00  0.00    +0.000 A 
ATOM      3  N   UNL     1      45.101   4.261   9.552  0.00  0.00    +0.000 N 
ATOM      4  C   UNL     1      45.512   5.130  10.545  0.00  0.00    +0.000 A 
ATOM      5  C   UNL     1      46.332   6.270  10.496  0.00  0.00    +0.000 A 
ATOM      6  C   UNL     1      46.577   6.960  11.685  0.00  0.00    +0.000 A 
ATOM      7  C   UNL     1      46.028   6.528  12.888  0.00  0.00    +0.000 A 
ATOM      8  C   UNL     1      45.216   5.389  12.928  0.00  0.00    +0.000 A 
ATOM      9  C   UNL     1      44.955   4.669  11.745  0.00  0.00    +0.000 A 
ENDROOT
BRANCH   1  10
ATOM     10  C   UNL     1      43.380   2.681  12.402  0.00  0.00    +0.000 C 
BRANCH  10  11
ATOM     11  N   UNL     1      42.968   1.447  11.745  0.00  0.00    +0.000 NA
ATOM     12  H   UNL     1      43.325   0.657  12.276  0.00  0.00    +0.000 HD
ATOM     13  H   UNL     1      43.416   1.408  10.827  0.00  0.00    +0.000 HD
ENDBRANCH  10  11
ENDBRANCH   1  10
BRANCH   3  14
ATOM     14  C   UNL     1      45.391   4.386   8.127  0.00  0.00    +0.000 C 
BRANCH  14  15
ATOM     15  C   UNL     1      46.233   3.239   7.631  0.00  0.00    +0.000 A 
ATOM     16  C   UNL     1      47.139   3.413   6.578  0.00  0.00    +0.000 A 
ATOM     17  C   UNL     1      47.841   2.313   6.112  0.00  0.00    +0.000 A 
ATOM     18  N   UNL     1      47.724   1.074   6.632  0.00  0.00    +0.000 NA
ATOM     19  C   UNL     1      46.864   0.929   7.661  0.00  0.00    +0.000 A 
ATOM     20  C   UNL     1      46.112   1.965   8.194  0.00  0.00    +0.000 A 
ENDBRANCH  14  15
ENDBRANCH   3  14
TORSDOF 4
ENDMDL
MODEL 4
REMARK VINA RESULT:    -6.687      1.681      2.395
REMARK INTER + INTRA:          -8.677
REMARK INTER:                  -8.216
REMARK INTRA:                  -0.461
REMARK UNBOUND:                -0.621
REMARK  Name = 
REMARK  4 active torsions:
REMARK  status: ('A' for Active; 'I' for Inactive)
REMARK    1  A    between atoms: N_1  and  C_2
REMARK    2  A    between atoms: C_2  and  C_3
REMARK    3  A    between atoms: N_5  and  C_6
REMARK    4  A    between atoms: C_6  and  C_7
REMARK                            x       y       z     vdW  Elec       q    Type
REMARK                         _______ _______ _______ _____ _____    ______ ____
ROOT
ATOM      1  C   UNL     1      44.671   6.512  11.468  0.00  0.00    +0.000 A 
ATOM      2  C   UNL     1      44.066   5.652  10.572  0.00  0.00    +0.000 A 
ATOM      3  N   UNL     1      44.476   4.371  10.841  0.00  0.00    +0.000 N 
ATOM      4  C   UNL     1      45.332   4.367  11.926  0.00  0.00    +0.000 A 
ATOM      5  C   UNL     1      45.986   3.313  12.585  0.00  0.00    +0.000 A 
ATOM      6  C   UNL     1      46.805   3.620  13.675  0.00  0.00    +0.000 A 
ATOM      7  C   UNL     1      46.964   4.935  14.099  0.00  0.00    +0.000 A 
ATOM      8  C   UNL     1      46.305   5.978  13.440  0.00  0.00    +0.000 A 
ATOM      9  C   UNL     1      45.468   5.698  12.340  0.00  0.00    +0.000 A 
ENDROOT
BRANCH   1  10
ATOM     10  C   UNL     1      44.536   7.997  11.496  0.00  0.00    +0.000 C 
BRANCH  10  11
ATOM     11  N   UNL     1      43.229   8.364  10.968  0.00  0.00    +0.000 NA
ATOM     12  H   UNL     1      42.523   8.171  11.674  0.00  0.00    +0.000 HD
ATOM     13  H   UNL     1      43.022   7.756  10.173  0.00  0.00    +0.000 HD
ENDBRANCH  10  11
ENDBRANCH   1  10
BRANCH   3  14
ATOM     14  C   UNL     1      44.094   3.209  10.045  0.00  0.00    +0.000 C 
BRANCH  14  15
ATOM     15  C   UNL     1      45.105   2.919   8.966  0.00  0.00    +0.000 A 
ATOM     16  C   UNL     1      45.585   1.620   8.760  0.00  0.00    +0.000 A 
ATOM     17  C   UNL     1      46.564   1.414   7.801  0.00  0.00    +0.000 A 
ATOM     18  N   UNL     1      47.072   2.395   7.027  0.00  0.00    +0.000 NA
ATOM     19  C   UNL     1      46.581   3.636   7.222  0.00  0.00    +0.000 A 
ATOM     20  C   UNL     1      45.607   3.944   8.161  0.00  0.00    +0.000 A 
ENDBRANCH  14  15
ENDBRANCH   3  14
TORSDOF 4
ENDMDL
MODEL 5
REMARK VINA RESULT:    -6.423      2.386      4.363
REMARK INTER + INTRA:          -8.358
REMARK INTER:                  -7.751
REMARK INTRA:                  -0.608
REMARK UNBOUND:                -0.621
REMARK  Name = 
REMARK  4 active torsions:
REMARK  status: ('A' for Active; 'I' for Inactive)
REMARK    1  A    between atoms: N_1  and  C_2
REMARK    2  A    between atoms: C_2  and  C_3
REMARK    3  A    between atoms: N_5  and  C_6
REMARK    4  A    between atoms: C_6  and  C_7
REMARK                            x       y       z     vdW  Elec       q    Type
REMARK                         _______ _______ _______ _____ _____    ______ ____
ROOT
ATOM      1  C   UNL     1      46.780   4.800  14.104  0.00  0.00    +0.000 A 
ATOM      2  C   UNL     1      45.695   4.479  13.311  0.00  0.00    +0.000 A 
ATOM      3  N   UNL     1      45.693   5.298  12.211  0.00  0.00    +0.000 N 
ATOM      4  C   UNL     1      46.783   6.146  12.250  0.00  0.00    +0.000 A 
ATOM      5  C   UNL     1      47.220   7.134  11.353  0.00  0.00    +0.000 A 
ATOM      6  C   UNL     1      48.381   7.845  11.665  0.00  0.00    +0.000 A 
ATOM      7  C   UNL     1      49.089   7.579  12.832  0.00  0.00    +0.000 A 
ATOM      8  C   UNL     1      48.649   6.589  13.718  0.00  0.00    +0.000 A 
ATOM      9  C   UNL     1      47.483   5.852  13.427  0.00  0.00    +0.000 A 
ENDROOT
BRANCH   1  10
ATOM     10  C   UNL     1      47.127   4.185  15.418  0.00  0.00    +0.000 C 
BRANCH  10  11
ATOM     11  N   UNL     1      47.838   2.935  15.183  0.00  0.00    +0.000 NA
ATOM     12  H   UNL     1      48.787   3.026  15.538  0.00  0.00    +0.000 HD
ATOM     13  H   UNL     1      47.915   2.795  14.174  0.00  0.00    +0.000 HD
ENDBRANCH  10  11
ENDBRANCH   1  10
BRANCH   3  14
ATOM     14  C   UNL     1      44.648   5.290  11.192  0.00  0.00    +0.000 C 
BRANCH  14  15
ATOM     15  C   UNL     1      44.978   4.343  10.067  0.00  0.00    +0.000 A 
ATOM     16  C   UNL     1      44.651   2.985  10.149  0.00  0.00    +0.000 A 
ATOM     17  C   UNL     1      45.035   2.141   9.120  0.00  0.00    +0.000 A 
ATOM     18  N   UNL     1      45.691   2.556   8.016  0.00  0.00    +0.000 NA
ATOM     19  C   UNL     1      45.978   3.872   7.942  0.00  0.00    +0.000 A 
ATOM     20  C   UNL     1      45.642   4.794   8.923  0.00  0.00    +0.000 A 
ENDBRANCH  14  15
ENDBRANCH   3  14
TORSDOF 4
ENDMDL
MODEL 6
REMARK VINA RESULT:    -6.050      1.814      5.292
REMARK INTER + INTRA:          -7.909
REMARK INTER:                  -7.350
REMARK INTRA:                  -0.560
REMARK UNBOUND:                -0.621
REMARK  Name = 
REMARK  4 active torsions:
REMARK  status: ('A' for Active; 'I' for Inactive)
REMARK    1  A    between atoms: N_1  and  C_2
REMARK    2  A    between atoms: C_2  and  C_3
REMARK    3  A    between atoms: N_5  and  C_6
REMARK    4  A    between atoms: C_6  and  C_7
REMARK                            x       y       z     vdW  Elec       q    Type
REMARK                         _______ _______ _______ _____ _____    ______ ____
ROOT
ATOM      1  C   UNL     1      45.469   4.342   9.065  0.00  0.00    +0.000 A 
ATOM      2  C   UNL     1      45.967   5.571   9.449  0.00  0.00    +0.000 A 
ATOM      3  N   UNL     1      45.544   5.843  10.725  0.00  0.00    +0.000 N 
ATOM      4  C   UNL     1      44.786   4.791  11.206  0.00  0.00    +0.000 A 
ATOM      5  C   UNL     1      44.161   4.592  12.447  0.00  0.00    +0.000 A 
ATOM      6  C   UNL     1      43.450   3.406  12.647  0.00  0.00    +0.000 A 
ATOM      7  C   UNL     1      43.368   2.445  11.646  0.00  0.00    +0.000 A 
ATOM      8  C   UNL     1      43.998   2.650  10.413  0.00  0.00    +0.000 A 
ATOM      9  C   UNL     1      44.726   3.835  10.183  0.00  0.00    +0.000 A 
ENDROOT
BRANCH   1  10
ATOM     10  C   UNL     1      45.650   3.691   7.736  0.00  0.00    +0.000 C 
BRANCH  10  11
ATOM     11  N   UNL     1      46.778   4.311   7.054  0.00  0.00    +0.000 NA
ATOM     12  H   UNL     1      47.631   4.092   7.564  0.00  0.00    +0.000 HD
ATOM     13  H   UNL     1      46.663   5.326   7.100  0.00  0.00    +0.000 HD
ENDBRANCH  10  11
ENDBRANCH   1  10
BRANCH   3  14
ATOM     14  C   UNL     1      45.820   7.092  11.428  0.00  0.00    +0.000 C 
BRANCH  14  15
ATOM     15  C   UNL     1      47.074   6.995  12.258  0.00  0.00    +0.000 A 
ATOM     16  C   UNL     1      47.044   6.452  13.547  0.00  0.00    +0.000 A 
ATOM     17  C   UNL     1      48.208   6.446  14.298  0.00  0.00    +0.000 A 
ATOM     18  N   UNL     1      49.392   6.913  13.848  0.00  0.00    +0.000 NA
ATOM     19  C   UNL     1      49.409   7.410  12.595  0.00  0.00    +0.000 A 
ATOM     20  C   UNL     1      48.295   7.467  11.769  0.00  0.00    +0.000 A 
ENDBRANCH  14  15
ENDBRANCH   3  14
TORSDOF 4
ENDMDL
MODEL 7
REMARK VINA RESULT:    -6.044      2.145      5.655
REMARK INTER + INTRA:          -7.902
REMARK INTER:                  -7.455
REMARK INTRA:                  -0.447
REMARK UNBOUND:                -0.621
REMARK  Name = 
REMARK  4 active torsions:
REMARK  status: ('A' for Active; 'I' for Inactive)
REMARK    1  A    between atoms: N_1  and  C_2
REMARK    2  A    between atoms: C_2  and  C_3
REMARK    3  A    between atoms: N_5  and  C_6
REMARK    4  A    between atoms: C_6  and  C_7
REMARK                            x       y       z     vdW  Elec       q    Type
REMARK                         _______ _______ _______ _____ _____    ______ ____
ROOT
ATOM      1  C   UNL     1      43.996   3.614  10.903  0.00  0.00    +0.000 A 
ATOM      2  C   UNL     1      44.209   4.841  11.501  0.00  0.00    +0.000 A 
ATOM      3  N   UNL     1      45.090   5.561  10.735  0.00  0.00    +0.000 N 
ATOM      4  C   UNL     1      45.448   4.833   9.616  0.00  0.00    +0.000 A 
ATOM      5  C   UNL     1      46.293   5.146   8.539  0.00  0.00    +0.000 A 
ATOM      6  C   UNL     1      46.465   4.191   7.533  0.00  0.00    +0.000 A 
ATOM      7  C   UNL     1      45.813   2.964   7.595  0.00  0.00    +0.000 A 
ATOM      8  C   UNL     1      44.970   2.662   8.669  0.00  0.00    +0.000 A 
ATOM      9  C   UNL     1      44.772   3.608   9.696  0.00  0.00    +0.000 A 
ENDROOT
BRANCH   1  10
ATOM     10  C   UNL     1      43.146   2.509  11.432  0.00  0.00    +0.000 C 
BRANCH  10  11
ATOM     11  N   UNL     1      43.552   2.211  12.799  0.00  0.00    +0.000 NA
ATOM     12  H   UNL     1      42.722   2.164  13.385  0.00  0.00    +0.000 HD
ATOM     13  H   UNL     1      44.110   2.994  13.146  0.00  0.00    +0.000 HD
ENDBRANCH  10  11
ENDBRANCH   1  10
BRANCH   3  14
ATOM     14  C   UNL     1      45.602   6.878  11.101  0.00  0.00    +0.000 C 
BRANCH  14  15
ATOM     15  C   UNL     1      46.819   6.774  11.983  0.00  0.00    +0.000 A 
ATOM     16  C   UNL     1      46.748   6.158  13.238  0.00  0.00    +0.000 A 
ATOM     17  C   UNL     1      47.877   6.146  14.041  0.00  0.00    +0.000 A 
ATOM     18  N   UNL     1      49.063   6.676  13.675  0.00  0.00    +0.000 NA
ATOM     19  C   UNL     1      49.120   7.245  12.453  0.00  0.00    +0.000 A 
ATOM     20  C   UNL     1      48.044   7.312  11.580  0.00  0.00    +0.000 A 
ENDBRANCH  14  15
ENDBRANCH   3  14
TORSDOF 4
ENDMDL
MODEL 8
REMARK VINA RESULT:    -5.744      2.034      3.463
REMARK INTER + INTRA:          -7.541
REMARK INTER:                  -7.085
REMARK INTRA:                  -0.456
REMARK UNBOUND:                -0.621
REMARK  Name = 
REMARK  4 active torsions:
REMARK  status: ('A' for Active; 'I' for Inactive)
REMARK    1  A    between atoms: N_1  and  C_2
REMARK    2  A    between atoms: C_2  and  C_3
REMARK    3  A    between atoms: N_5  and  C_6
REMARK    4  A    between atoms: C_6  and  C_7
REMARK                            x       y       z     vdW  Elec       q    Type
REMARK                         _______ _______ _______ _____ _____    ______ ____
ROOT
ATOM      1  C   UNL     1      44.974   8.209  11.740  0.00  0.00    +0.000 A 
ATOM      2  C   UNL     1      44.035   7.306  11.284  0.00  0.00    +0.000 A 
ATOM      3  N   UNL     1      44.378   6.051  11.720  0.00  0.00    +0.000 N 
ATOM      4  C   UNL     1      45.526   6.115  12.486  0.00  0.00    +0.000 A 
ATOM      5  C   UNL     1      46.245   5.115  13.162  0.00  0.00    +0.000 A 
ATOM      6  C   UNL     1      47.390   5.487  13.870  0.00  0.00    +0.000 A 
ATOM      7  C   UNL     1      47.807   6.813  13.907  0.00  0.00    +0.000 A 
ATOM      8  C   UNL     1      47.083   7.803  13.235  0.00  0.00    +0.000 A 
ATOM      9  C   UNL     1      45.919   7.459  12.517  0.00  0.00    +0.000 A 
ENDROOT
BRANCH   1  10
ATOM     10  C   UNL     1      45.006   9.672  11.453  0.00  0.00    +0.000 C 
BRANCH  10  11
ATOM     11  N   UNL     1      43.883  10.312  12.126  0.00  0.00    +0.000 NA
ATOM     12  H   UNL     1      44.166  11.242  12.426  0.00  0.00    +0.000 HD
ATOM     13  H   UNL     1      43.675   9.783  12.976  0.00  0.00    +0.000 HD
ENDBRANCH  10  11
ENDBRANCH   1  10
BRANCH   3  14
ATOM     14  C   UNL     1      43.650   4.837  11.365  0.00  0.00    +0.000 C 
BRANCH  14  15
ATOM     15  C   UNL     1      44.341   4.079  10.262  0.00  0.00    +0.000 A 
ATOM     16  C   UNL     1      45.081   4.750   9.281  0.00  0.00    +0.000 A 
ATOM     17  C   UNL     1      45.642   4.017   8.248  0.00  0.00    +0.000 A 
ATOM     18  N   UNL     1      45.541   2.676   8.141  0.00  0.00    +0.000 NA
ATOM     19  C   UNL     1      44.846   2.042   9.107  0.00  0.00    +0.000 A 
ATOM     20  C   UNL     1      44.242   2.688  10.176  0.00  0.00    +0.000 A 
ENDBRANCH  14  15
ENDBRANCH   3  14
TORSDOF 4
ENDMDL
MODEL 9
REMARK VINA RESULT:    -5.579      2.833      5.541
REMARK INTER + INTRA:          -7.341
REMARK INTER:                  -6.873
REMARK INTRA:                  -0.469
REMARK UNBOUND:                -0.621
REMARK  Name = 
REMARK  4 active torsions:
REMARK  status: ('A' for Active; 'I' for Inactive)
REMARK    1  A    between atoms: N_1  and  C_2
REMARK    2  A    between atoms: C_2  and  C_3
REMARK    3  A    between atoms: N_5  and  C_6
REMARK    4  A    between atoms: C_6  and  C_7
REMARK                            x       y       z     vdW  Elec       q    Type
REMARK                         _______ _______ _______ _____ _____    ______ ____
ROOT
ATOM      1  C   UNL     1      45.901   9.053  12.260  0.00  0.00    +0.000 A 
ATOM      2  C   UNL     1      45.292   7.913  12.747  0.00  0.00    +0.000 A 
ATOM      3  N   UNL     1      46.241   6.935  12.904  0.00  0.00    +0.000 N 
ATOM      4  C   UNL     1      47.485   7.422  12.549  0.00  0.00    +0.000 A 
ATOM      5  C   UNL     1      48.752   6.819  12.560  0.00  0.00    +0.000 A 
ATOM      6  C   UNL     1      49.849   7.574  12.138  0.00  0.00    +0.000 A 
ATOM      7  C   UNL     1      49.690   8.891  11.721  0.00  0.00    +0.000 A 
ATOM      8  C   UNL     1      48.424   9.487  11.718  0.00  0.00    +0.000 A 
ATOM      9  C   UNL     1      47.299   8.751  12.144  0.00  0.00    +0.000 A 
ENDROOT
BRANCH   1  10
ATOM     10  C   UNL     1      45.225  10.333  11.902  0.00  0.00    +0.000 C 
BRANCH  10  11
ATOM     11  N   UNL     1      43.813  10.237  12.250  0.00  0.00    +0.000 NA
ATOM     12  H   UNL     1      43.696   9.508  12.949  0.00  0.00    +0.000 HD
ATOM     13  H   UNL     1      43.298   9.933  11.422  0.00  0.00    +0.000 HD
ENDBRANCH  10  11
ENDBRANCH   1  10
BRANCH   3  14
ATOM     14  C   UNL     1      45.943   5.572  13.332  0.00  0.00    +0.000 C 
BRANCH  14  15
ATOM     15  C   UNL     1      45.093   4.847  12.321  0.00  0.00    +0.000 A 
ATOM     16  C   UNL     1      44.057   3.998  12.727  0.00  0.00    +0.000 A 
ATOM     17  C   UNL     1      43.347   3.301  11.763  0.00  0.00    +0.000 A 
ATOM     18  N   UNL     1      43.578   3.410  10.438  0.00  0.00    +0.000 NA
ATOM     19  C   UNL     1      44.563   4.250  10.063  0.00  0.00    +0.000 A 
ATOM     20  C   UNL     1      45.334   4.986  10.951  0.00  0.00    +0.000 A 
ENDBRANCH  14  15
ENDBRANCH   3  14
TORSDOF 4
ENDMDL
