MODEL 1
REMARK VINA RESULT:    -7.757      0.000      0.000
REMARK INTER + INTRA:         -10.947
REMARK INTER:                 -10.024
REMARK INTRA:                  -0.923
REMARK UNBOUND:                -0.923
REMARK  Name = 
REMARK  6 active torsions:
REMARK  status: ('A' for Active; 'I' for Inactive)
REMARK    1  A    between atoms: C_1  and  C_2
REMARK    2  A    between atoms: C_4  and  C_5
REMARK    3  A    between atoms: C_10  and  N_11
REMARK    4  A    between atoms: N_11  and  C_12
REMARK    5  A    between atoms: C_12  and  C_13
REMARK    6  A    between atoms: C_17  and  C_18
REMARK                            x       y       z     vdW  Elec       q    Type
REMARK                         _______ _______ _______ _____ _____    ______ ____
ROOT
ATOM      1  N   UNL     1      44.079   5.015  10.107  0.00  0.00    +0.000 N 
ATOM      2  H   UNL     1      43.181   5.177   9.660  0.00  0.00    +0.000 HD
ENDROOT
BRANCH   1   9
ATOM      3  C   UNL     1      44.026   2.174  10.509  0.00  0.00    +0.000 C 
ATOM      4  C   UNL     1      44.872   2.832   9.456  0.00  0.00    +0.000 A 
ATOM      5  C   UNL     1      45.720   2.048   8.661  0.00  0.00    +0.000 A 
ATOM      6  C   UNL     1      46.540   2.645   7.703  0.00  0.00    +0.000 A 
ATOM      7  C   UNL     1      46.458   4.021   7.582  0.00  0.00    +0.000 A 
ATOM      8  N   UNL     1      45.659   4.812   8.344  0.00  0.00    +0.000 NA
ATOM      9  C   UNL     1      44.878   4.223   9.276  0.00  0.00    +0.000 A 
BRANCH   6  10
ATOM     10  C   UNL     1      47.444   1.787   6.898  0.00  0.00    +0.000 C 
ATOM     11  N   UNL     1      48.511   2.354   6.259  0.00  0.00    +0.000 N 
ATOM     12  O   UNL     1      47.249   0.580   6.802  0.00  0.00    +0.000 OA
ATOM     13  H   UNL     1      48.775   3.326   6.283  0.00  0.00    +0.000 HD
ATOM     14  H   UNL     1      49.107   1.721   5.734  0.00  0.00    +0.000 HD
ENDBRANCH   6  10
ENDBRANCH   1   9
BRANCH   1  15
ATOM     15  C   UNL     1      44.682   6.247  10.595  0.00  0.00    +0.000 C 
BRANCH  15  16
ATOM     16  C   UNL     1      45.624   5.957  11.752  0.00  0.00    +0.000 A 
ATOM     17  C   UNL     1      45.266   4.999  12.712  0.00  0.00    +0.000 A 
ATOM     18  C   UNL     1      46.093   4.742  13.808  0.00  0.00    +0.000 A 
ATOM     19  C   UNL     1      47.297   5.432  13.957  0.00  0.00    +0.000 A 
ATOM     20  C   UNL     1      47.679   6.396  13.016  0.00  0.00    +0.000 A 
ATOM     21  C   UNL     1      46.822   6.668  11.937  0.00  0.00    +0.000 A 
BRANCH  20  22
ATOM     22  C   UNL     1      48.992   7.130  13.131  0.00  0.00    +0.000 C 
ATOM     23  F   UNL     1      49.858   6.862  12.115  0.00  0.00    +0.000 F 
ATOM     24  F   UNL     1      48.829   8.485  13.127  0.00  0.00    +0.000 F 
ATOM     25  F   UNL     1      49.662   6.841  14.279  0.00  0.00    +0.000 F 
ENDBRANCH  20  22
ENDBRANCH  15  16
ENDBRANCH   1  15
TORSDOF 5
ENDMDL
MODEL 2
REMARK VINA RESULT:    -7.565      4.433      6.831
REMARK INTER + INTRA:         -10.699
REMARK INTER:                 -10.645
REMARK INTRA:                  -0.053
REMARK UNBOUND:                -0.923
REMARK  Name = 
REMARK  6 active torsions:
REMARK  status: ('A' for Active; 'I' for Inactive)
REMARK    1  A    between atoms: C_1  and  C_2
REMARK    2  A    between atoms: C_4  and  C_5
REMARK    3  A    between atoms: C_10  and  N_11
REMARK    4  A    between atoms: N_11  and  C_12
REMARK    5  A    between atoms: C_12  and  C_13
REMARK    6  A    between atoms: C_17  and  C_18
REMARK                            x       y       z     vdW  Elec       q    Type
REMARK                         _______ _______ _______ _____ _____    ______ ____
ROOT
ATOM      1  N   UNL     1      44.397   3.029  12.168  0.00  0.00    +0.000 N 
ATOM      2  H   UNL     1      45.204   2.445  12.364  0.00  0.00    +0.000 HD
ENDROOT
BRANCH   1   9
ATOM      3  C   UNL     1      46.927   3.618  13.387  0.00  0.00    +0.000 C 
ATOM      4  C   UNL     1      45.970   4.687  12.939  0.00  0.00    +0.000 A 
ATOM      5  C   UNL     1      46.283   6.034  13.167  0.00  0.00    +0.000 A 
ATOM      6  C   UNL     1      45.391   7.039  12.791  0.00  0.00    +0.000 A 
ATOM      7  C   UNL     1      44.214   6.634  12.186  0.00  0.00    +0.000 A 
ATOM      8  N   UNL     1      43.873   5.337  11.963  0.00  0.00    +0.000 NA
ATOM      9  C   UNL     1      44.740   4.374  12.342  0.00  0.00    +0.000 A 
BRANCH   6  10
ATOM     10  C   UNL     1      45.743   8.453  13.069  0.00  0.00    +0.000 C 
ATOM     11  N   UNL     1      46.702   8.732  14.002  0.00  0.00    +0.000 N 
ATOM     12  O   UNL     1      45.191   9.371  12.472  0.00  0.00    +0.000 OA
ATOM     13  H   UNL     1      47.230   8.061  14.537  0.00  0.00    +0.000 HD
ATOM     14  H   UNL     1      46.917   9.714  14.144  0.00  0.00    +0.000 HD
ENDBRANCH   6  10
ENDBRANCH   1   9
BRANCH   1  15
ATOM     15  C   UNL     1      43.761   2.687  10.904  0.00  0.00    +0.000 C 
BRANCH  15  16
ATOM     16  C   UNL     1      44.699   2.973   9.742  0.00  0.00    +0.000 A 
ATOM     17  C   UNL     1      44.856   4.291   9.289  0.00  0.00    +0.000 A 
ATOM     18  C   UNL     1      45.680   4.577   8.197  0.00  0.00    +0.000 A 
ATOM     19  C   UNL     1      46.368   3.552   7.548  0.00  0.00    +0.000 A 
ATOM     20  C   UNL     1      46.228   2.226   7.976  0.00  0.00    +0.000 A 
ATOM     21  C   UNL     1      45.370   1.948   9.054  0.00  0.00    +0.000 A 
BRANCH  20  22
ATOM     22  C   UNL     1      46.987   1.101   7.317  0.00  0.00    +0.000 C 
ATOM     23  F   UNL     1      46.765  -0.115   7.887  0.00  0.00    +0.000 F 
ATOM     24  F   UNL     1      46.656   0.956   6.001  0.00  0.00    +0.000 F 
ATOM     25  F   UNL     1      48.334   1.286   7.343  0.00  0.00    +0.000 F 
ENDBRANCH  20  22
ENDBRANCH  15  16
ENDBRANCH   1  15
TORSDOF 5
ENDMDL
MODEL 3
REMARK VINA RESULT:    -7.276      1.625      2.253
REMARK INTER + INTRA:         -10.326
REMARK INTER:                  -9.243
REMARK INTRA:                  -1.082
REMARK UNBOUND:                -0.923
REMARK  Name = 
REMARK  6 active torsions:
REMARK  status: ('A' for Active; 'I' for Inactive)
REMARK    1  A    between atoms: C_1  and  C_2
REMARK    2  A    between atoms: C_4  and  C_5
REMARK    3  A    between atoms: C_10  and  N_11
REMARK    4  A    between atoms: N_11  and  C_12
REMARK    5  A    between atoms: C_12  and  C_13
REMARK    6  A    between atoms: C_17  and  C_18
REMARK                            x       y       z     vdW  Elec       q    Type
REMARK                         _______ _______ _______ _____ _____    ______ ____
ROOT
ATOM      1  N   UNL     1      43.637   4.590  10.060  0.00  0.00    +0.000 N 
ATOM      2  H   UNL     1      43.928   5.522   9.781  0.00  0.00    +0.000 HD
ENDROOT
BRANCH   1   9
ATOM      3  C   UNL     1      46.021   5.533   8.770  0.00  0.00    +0.000 C 
ATOM      4  C   UNL     1      45.646   4.079   8.826  0.00  0.00    +0.000 A 
ATOM      5  C   UNL     1      46.453   3.132   8.179  0.00  0.00    +0.000 A 
ATOM      6  C   UNL     1      46.102   1.782   8.190  0.00  0.00    +0.000 A 
ATOM      7  C   UNL     1      44.945   1.443   8.868  0.00  0.00    +0.000 A 
ATOM      8  N   UNL     1      44.132   2.336   9.492  0.00  0.00    +0.000 NA
ATOM      9  C   UNL     1      44.477   3.642   9.466  0.00  0.00    +0.000 A 
BRANCH   6  10
ATOM     10  C   UNL     1      46.966   0.811   7.474  0.00  0.00    +0.000 C 
ATOM     11  N   UNL     1      46.788  -0.527   7.688  0.00  0.00    +0.000 N 
ATOM     12  O   UNL     1      47.831   1.192   6.692  0.00  0.00    +0.000 OA
ATOM     13  H   UNL     1      46.101  -0.950   8.291  0.00  0.00    +0.000 HD
ATOM     14  H   UNL     1      47.394  -1.149   7.163  0.00  0.00    +0.000 HD
ENDBRANCH   6  10
ENDBRANCH   1   9
BRANCH   1  15
ATOM     15  C   UNL     1      43.458   4.476  11.500  0.00  0.00    +0.000 C 
BRANCH  15  16
ATOM     16  C   UNL     1      44.746   4.828  12.226  0.00  0.00    +0.000 A 
ATOM     17  C   UNL     1      45.489   3.815  12.849  0.00  0.00    +0.000 A 
ATOM     18  C   UNL     1      46.655   4.116  13.558  0.00  0.00    +0.000 A 
ATOM     19  C   UNL     1      47.101   5.435  13.648  0.00  0.00    +0.000 A 
ATOM     20  C   UNL     1      46.378   6.468  13.039  0.00  0.00    +0.000 A 
ATOM     21  C   UNL     1      45.190   6.155  12.358  0.00  0.00    +0.000 A 
BRANCH  20  22
ATOM     22  C   UNL     1      46.856   7.898  13.089  0.00  0.00    +0.000 C 
ATOM     23  F   UNL     1      47.939   8.083  13.894  0.00  0.00    +0.000 F 
ATOM     24  F   UNL     1      47.228   8.362  11.861  0.00  0.00    +0.000 F 
ATOM     25  F   UNL     1      45.904   8.759  13.538  0.00  0.00    +0.000 F 
ENDBRANCH  20  22
ENDBRANCH  15  16
ENDBRANCH   1  15
TORSDOF 5
ENDMDL
MODEL 4
REMARK VINA RESULT:    -7.276      1.609      2.246
REMARK INTER + INTRA:         -10.325
REMARK INTER:                  -9.540
REMARK INTRA:                  -0.785
REMARK UNBOUND:                -0.923
REMARK  Name = 
REMARK  6 active torsions:
REMARK  status: ('A' for Active; 'I' for Inactive)
REMARK    1  A    between atoms: C_1  and  C_2
REMARK    2  A    between atoms: C_4  and  C_5
REMARK    3  A    between atoms: C_10  and  N_11
REMARK    4  A    between atoms: N_11  and  C_12
REMARK    5  A    between atoms: C_12  and  C_13
REMARK    6  A    between atoms: C_17  and  C_18
REMARK                            x       y       z     vdW  Elec       q    Type
REMARK                         _______ _______ _______ _____ _____    ______ ____
ROOT
ATOM      1  N   UNL     1      44.346   5.159  10.270  0.00  0.00    +0.000 N 
ATOM      2  H   UNL     1      43.373   5.207   9.981  0.00  0.00    +0.000 HD
ENDROOT
BRANCH   1   9
ATOM      3  C   UNL     1      44.103   2.313  10.556  0.00  0.00    +0.000 C 
ATOM      4  C   UNL     1      44.959   2.956   9.501  0.00  0.00    +0.000 A 
ATOM      5  C   UNL     1      45.723   2.150   8.645  0.00  0.00    +0.000 A 
ATOM      6  C   UNL     1      46.552   2.729   7.684  0.00  0.00    +0.000 A 
ATOM      7  C   UNL     1      46.564   4.112   7.622  0.00  0.00    +0.000 A 
ATOM      8  N   UNL     1      45.849   4.923   8.445  0.00  0.00    +0.000 NA
ATOM      9  C   UNL     1      45.059   4.350   9.379  0.00  0.00    +0.000 A 
BRANCH   6  10
ATOM     10  C   UNL     1      47.365   1.847   6.811  0.00  0.00    +0.000 C 
ATOM     11  N   UNL     1      48.420   2.375   6.122  0.00  0.00    +0.000 N 
ATOM     12  O   UNL     1      47.107   0.653   6.706  0.00  0.00    +0.000 OA
ATOM     13  H   UNL     1      48.732   3.333   6.148  0.00  0.00    +0.000 HD
ATOM     14  H   UNL     1      48.953   1.726   5.552  0.00  0.00    +0.000 HD
ENDBRANCH   6  10
ENDBRANCH   1   9
BRANCH   1  15
ATOM     15  C   UNL     1      44.909   6.475  10.534  0.00  0.00    +0.000 C 
BRANCH  15  16
ATOM     16  C   UNL     1      46.068   6.372  11.512  0.00  0.00    +0.000 A 
ATOM     17  C   UNL     1      47.215   7.153  11.310  0.00  0.00    +0.000 A 
ATOM     18  C   UNL     1      48.311   7.049  12.170  0.00  0.00    +0.000 A 
ATOM     19  C   UNL     1      48.275   6.168  13.251  0.00  0.00    +0.000 A 
ATOM     20  C   UNL     1      47.144   5.373  13.476  0.00  0.00    +0.000 A 
ATOM     21  C   UNL     1      46.062   5.464  12.584  0.00  0.00    +0.000 A 
BRANCH  20  22
ATOM     22  C   UNL     1      47.061   4.439  14.658  0.00  0.00    +0.000 C 
ATOM     23  F   UNL     1      47.385   3.150  14.358  0.00  0.00    +0.000 F 
ATOM     24  F   UNL     1      47.904   4.805  15.666  0.00  0.00    +0.000 F 
ATOM     25  F   UNL     1      45.819   4.393  15.210  0.00  0.00    +0.000 F 
ENDBRANCH  20  22
ENDBRANCH  15  16
ENDBRANCH   1  15
TORSDOF 5
ENDMDL
MODEL 5
REMARK VINA RESULT:    -7.048      4.050      6.796
REMARK INTER + INTRA:         -10.030
REMARK INTER:                  -9.585
REMARK INTRA:                  -0.445
REMARK UNBOUND:                -0.923
REMARK  Name = 
REMARK  6 active torsions:
REMARK  status: ('A' for Active; 'I' for Inactive)
REMARK    1  A    between atoms: C_1  and  C_2
REMARK    2  A    between atoms: C_4  and  C_5
REMARK    3  A    between atoms: C_10  and  N_11
REMARK    4  A    between atoms: N_11  and  C_12
REMARK    5  A    between atoms: C_12  and  C_13
REMARK    6  A    between atoms: C_17  and  C_18
REMARK                            x       y       z     vdW  Elec       q    Type
REMARK                         _______ _______ _______ _____ _____    ______ ____
ROOT
ATOM      1  N   UNL     1      45.862   6.049  10.777  0.00  0.00    +0.000 N 
ATOM      2  H   UNL     1      45.865   7.061  10.694  0.00  0.00    +0.000 HD
ENDROOT
BRANCH   1   9
ATOM      3  C   UNL     1      47.962   7.552  12.027  0.00  0.00    +0.000 C 
ATOM      4  C   UNL     1      47.270   6.403  12.703  0.00  0.00    +0.000 A 
ATOM      5  C   UNL     1      47.691   5.995  13.977  0.00  0.00    +0.000 A 
ATOM      6  C   UNL     1      47.086   4.906  14.605  0.00  0.00    +0.000 A 
ATOM      7  C   UNL     1      46.064   4.277  13.915  0.00  0.00    +0.000 A 
ATOM      8  N   UNL     1      45.642   4.636  12.675  0.00  0.00    +0.000 NA
ATOM      9  C   UNL     1      46.244   5.684  12.073  0.00  0.00    +0.000 A 
BRANCH   6  10
ATOM     10  C   UNL     1      47.573   4.487  15.942  0.00  0.00    +0.000 C 
ATOM     11  N   UNL     1      47.337   5.290  17.023  0.00  0.00    +0.000 N 
ATOM     12  O   UNL     1      48.178   3.431  16.091  0.00  0.00    +0.000 OA
ATOM     13  H   UNL     1      46.838   6.166  17.019  0.00  0.00    +0.000 HD
ATOM     14  H   UNL     1      47.678   4.951  17.916  0.00  0.00    +0.000 HD
ENDBRANCH   6  10
ENDBRANCH   1   9
BRANCH   1  15
ATOM     15  C   UNL     1      44.626   5.459  10.282  0.00  0.00    +0.000 C 
BRANCH  15  16
ATOM     16  C   UNL     1      44.913   4.159   9.547  0.00  0.00    +0.000 A 
ATOM     17  C   UNL     1      44.327   2.967   9.996  0.00  0.00    +0.000 A 
ATOM     18  C   UNL     1      44.606   1.752   9.364  0.00  0.00    +0.000 A 
ATOM     19  C   UNL     1      45.468   1.712   8.268  0.00  0.00    +0.000 A 
ATOM     20  C   UNL     1      46.071   2.886   7.800  0.00  0.00    +0.000 A 
ATOM     21  C   UNL     1      45.808   4.095   8.465  0.00  0.00    +0.000 A 
BRANCH  20  22
ATOM     22  C   UNL     1      46.978   2.879   6.595  0.00  0.00    +0.000 C 
ATOM     23  F   UNL     1      46.830   1.777   5.807  0.00  0.00    +0.000 F 
ATOM     24  F   UNL     1      46.759   3.948   5.776  0.00  0.00    +0.000 F 
ATOM     25  F   UNL     1      48.297   2.927   6.925  0.00  0.00    +0.000 F 
ENDBRANCH  20  22
ENDBRANCH  15  16
ENDBRANCH   1  15
TORSDOF 5
ENDMDL
MODEL 6
REMARK VINA RESULT:    -7.012      4.105      6.175
REMARK INTER + INTRA:          -9.985
REMARK INTER:                  -8.845
REMARK INTRA:                  -1.140
REMARK UNBOUND:                -0.923
REMARK  Name = 
REMARK  6 active torsions:
REMARK  status: ('A' for Active; 'I' for Inactive)
REMARK    1  A    between atoms: C_1  and  C_2
REMARK    2  A    between atoms: C_4  and  C_5
REMARK    3  A    between atoms: C_10  and  N_11
REMARK    4  A    between atoms: N_11  and  C_12
REMARK    5  A    between atoms: C_12  and  C_13
REMARK    6  A    between atoms: C_17  and  C_18
REMARK                            x       y       z     vdW  Elec       q    Type
REMARK                         _______ _______ _______ _____ _____    ______ ____
ROOT
ATOM      1  N   UNL     1      44.334   6.362  12.487  0.00  0.00    +0.000 N 
ATOM      2  H   UNL     1      44.221   5.530  13.059  0.00  0.00    +0.000 HD
ENDROOT
BRANCH   1   9
ATOM      3  C   UNL     1      46.277   4.464  13.413  0.00  0.00    +0.000 C 
ATOM      4  C   UNL     1      46.645   5.840  12.938  0.00  0.00    +0.000 A 
ATOM      5  C   UNL     1      47.984   6.255  12.992  0.00  0.00    +0.000 A 
ATOM      6  C   UNL     1      48.340   7.542  12.589  0.00  0.00    +0.000 A 
ATOM      7  C   UNL     1      47.320   8.359  12.135  0.00  0.00    +0.000 A 
ATOM      8  N   UNL     1      46.012   7.995  12.082  0.00  0.00    +0.000 NA
ATOM      9  C   UNL     1      45.678   6.750  12.486  0.00  0.00    +0.000 A 
BRANCH   6  10
ATOM     10  C   UNL     1      49.762   7.956  12.684  0.00  0.00    +0.000 C 
ATOM     11  N   UNL     1      50.674   7.422  11.817  0.00  0.00    +0.000 N 
ATOM     12  O   UNL     1      50.127   8.772  13.524  0.00  0.00    +0.000 OA
ATOM     13  H   UNL     1      50.483   6.760  11.081  0.00  0.00    +0.000 HD
ATOM     14  H   UNL     1      51.629   7.749  11.914  0.00  0.00    +0.000 HD
ENDBRANCH   6  10
ENDBRANCH   1   9
BRANCH   1  15
ATOM     15  C   UNL     1      43.704   6.222  11.182  0.00  0.00    +0.000 C 
BRANCH  15  16
ATOM     16  C   UNL     1      44.022   4.862  10.581  0.00  0.00    +0.000 A 
ATOM     17  C   UNL     1      43.470   3.707  11.153  0.00  0.00    +0.000 A 
ATOM     18  C   UNL     1      43.777   2.442  10.646  0.00  0.00    +0.000 A 
ATOM     19  C   UNL     1      44.635   2.312   9.553  0.00  0.00    +0.000 A 
ATOM     20  C   UNL     1      45.204   3.448   8.963  0.00  0.00    +0.000 A 
ATOM     21  C   UNL     1      44.912   4.711   9.504  0.00  0.00    +0.000 A 
BRANCH  20  22
ATOM     22  C   UNL     1      46.105   3.341   7.758  0.00  0.00    +0.000 C 
ATOM     23  F   UNL     1      46.887   2.226   7.759  0.00  0.00    +0.000 F 
ATOM     24  F   UNL     1      45.402   3.296   6.589  0.00  0.00    +0.000 F 
ATOM     25  F   UNL     1      46.957   4.395   7.639  0.00  0.00    +0.000 F 
ENDBRANCH  20  22
ENDBRANCH  15  16
ENDBRANCH   1  15
TORSDOF 5
ENDMDL
MODEL 7
REMARK VINA RESULT:    -6.742      1.618      2.438
REMARK INTER + INTRA:          -9.635
REMARK INTER:                  -8.785
REMARK INTRA:                  -0.851
REMARK UNBOUND:                -0.923
REMARK  Name = 
REMARK  6 active torsions:
REMARK  status: ('A' for Active; 'I' for Inactive)
REMARK    1  A    between atoms: C_1  and  C_2
REMARK    2  A    between atoms: C_4  and  C_5
REMARK    3  A    between atoms: C_10  and  N_11
REMARK    4  A    between atoms: N_11  and  C_12
REMARK    5  A    between atoms: C_12  and  C_13
REMARK    6  A    between atoms: C_17  and  C_18
REMARK                            x       y       z     vdW  Elec       q    Type
REMARK                         _______ _______ _______ _____ _____    ______ ____
ROOT
ATOM      1  N   UNL     1      44.099   2.475  10.432  0.00  0.00    +0.000 N 
ATOM      2  H   UNL     1      43.411   3.204  10.268  0.00  0.00    +0.000 HD
ENDROOT
BRANCH   1   9
ATOM      3  C   UNL     1      44.621   4.920   9.024  0.00  0.00    +0.000 C 
ATOM      4  C   UNL     1      45.268   3.615   8.657  0.00  0.00    +0.000 A 
ATOM      5  C   UNL     1      46.124   3.555   7.548  0.00  0.00    +0.000 A 
ATOM      6  C   UNL     1      46.705   2.345   7.169  0.00  0.00    +0.000 A 
ATOM      7  C   UNL     1      46.401   1.238   7.942  0.00  0.00    +0.000 A 
ATOM      8  N   UNL     1      45.565   1.257   9.013  0.00  0.00    +0.000 NA
ATOM      9  C   UNL     1      45.000   2.433   9.363  0.00  0.00    +0.000 A 
BRANCH   6  10
ATOM     10  C   UNL     1      47.586   2.314   5.976  0.00  0.00    +0.000 C 
ATOM     11  N   UNL     1      47.387   3.221   4.973  0.00  0.00    +0.000 N 
ATOM     12  O   UNL     1      48.490   1.491   5.880  0.00  0.00    +0.000 OA
ATOM     13  H   UNL     1      46.690   3.948   4.955  0.00  0.00    +0.000 HD
ATOM     14  H   UNL     1      48.026   3.167   4.186  0.00  0.00    +0.000 HD
ENDBRANCH   6  10
ENDBRANCH   1   9
BRANCH   1  15
ATOM     15  C   UNL     1      44.685   2.560  11.762  0.00  0.00    +0.000 C 
BRANCH  15  16
ATOM     16  C   UNL     1      44.782   4.010  12.209  0.00  0.00    +0.000 A 
ATOM     17  C   UNL     1      43.608   4.742  12.444  0.00  0.00    +0.000 A 
ATOM     18  C   UNL     1      43.668   6.087  12.817  0.00  0.00    +0.000 A 
ATOM     19  C   UNL     1      44.902   6.720  12.969  0.00  0.00    +0.000 A 
ATOM     20  C   UNL     1      46.090   6.016  12.737  0.00  0.00    +0.000 A 
ATOM     21  C   UNL     1      46.015   4.674  12.331  0.00  0.00    +0.000 A 
BRANCH  20  22
ATOM     22  C   UNL     1      47.438   6.664  12.929  0.00  0.00    +0.000 C 
ATOM     23  F   UNL     1      47.625   7.176  14.178  0.00  0.00    +0.000 F 
ATOM     24  F   UNL     1      48.466   5.788  12.734  0.00  0.00    +0.000 F 
ATOM     25  F   UNL     1      47.659   7.693  12.067  0.00  0.00    +0.000 F 
ENDBRANCH  20  22
ENDBRANCH  15  16
ENDBRANCH   1  15
TORSDOF 5
ENDMDL
MODEL 8
REMARK VINA RESULT:    -6.445      4.997      7.649
REMARK INTER + INTRA:          -9.252
REMARK INTER:                  -8.658
REMARK INTRA:                  -0.594
REMARK UNBOUND:                -0.923
REMARK  Name = 
REMARK  6 active torsions:
REMARK  status: ('A' for Active; 'I' for Inactive)
REMARK    1  A    between atoms: C_1  and  C_2
REMARK    2  A    between atoms: C_4  and  C_5
REMARK    3  A    between atoms: C_10  and  N_11
REMARK    4  A    between atoms: N_11  and  C_12
REMARK    5  A    between atoms: C_12  and  C_13
REMARK    6  A    between atoms: C_17  and  C_18
REMARK                            x       y       z     vdW  Elec       q    Type
REMARK                         _______ _______ _______ _____ _____    ______ ____
ROOT
ATOM      1  N   UNL     1      47.004   5.482  13.430  0.00  0.00    +0.000 N 
ATOM      2  H   UNL     1      47.565   6.252  13.079  0.00  0.00    +0.000 HD
ENDROOT
BRANCH   1   9
ATOM      3  C   UNL     1      48.718   7.327  14.805  0.00  0.00    +0.000 C 
ATOM      4  C   UNL     1      48.274   6.024  15.407  0.00  0.00    +0.000 A 
ATOM      5  C   UNL     1      48.751   5.649  16.671  0.00  0.00    +0.000 A 
ATOM      6  C   UNL     1      48.379   4.426  17.231  0.00  0.00    +0.000 A 
ATOM      7  C   UNL     1      47.526   3.632  16.485  0.00  0.00    +0.000 A 
ATOM      8  N   UNL     1      47.057   3.958  15.252  0.00  0.00    +0.000 NA
ATOM      9  C   UNL     1      47.433   5.140  14.717  0.00  0.00    +0.000 A 
BRANCH   6  10
ATOM     10  C   UNL     1      48.923   4.050  18.560  0.00  0.00    +0.000 C 
ATOM     11  N   UNL     1      48.254   3.133  19.321  0.00  0.00    +0.000 N 
ATOM     12  O   UNL     1      49.962   4.547  18.979  0.00  0.00    +0.000 OA
ATOM     13  H   UNL     1      47.406   2.651  19.069  0.00  0.00    +0.000 HD
ATOM     14  H   UNL     1      48.676   2.899  20.214  0.00  0.00    +0.000 HD
ENDBRANCH   6  10
ENDBRANCH   1   9
BRANCH   1  15
ATOM     15  C   UNL     1      45.577   5.723  13.272  0.00  0.00    +0.000 C 
BRANCH  15  16
ATOM     16  C   UNL     1      44.978   4.742  12.277  0.00  0.00    +0.000 A 
ATOM     17  C   UNL     1      43.983   3.849  12.700  0.00  0.00    +0.000 A 
ATOM     18  C   UNL     1      43.444   2.909  11.818  0.00  0.00    +0.000 A 
ATOM     19  C   UNL     1      43.886   2.853  10.495  0.00  0.00    +0.000 A 
ATOM     20  C   UNL     1      44.881   3.730  10.045  0.00  0.00    +0.000 A 
ATOM     21  C   UNL     1      45.437   4.647  10.952  0.00  0.00    +0.000 A 
BRANCH  20  22
ATOM     22  C   UNL     1      45.351   3.717   8.612  0.00  0.00    +0.000 C 
ATOM     23  F   UNL     1      46.102   2.626   8.294  0.00  0.00    +0.000 F 
ATOM     24  F   UNL     1      44.313   3.720   7.727  0.00  0.00    +0.000 F 
ATOM     25  F   UNL     1      46.112   4.800   8.295  0.00  0.00    +0.000 F 
ENDBRANCH  20  22
ENDBRANCH  15  16
ENDBRANCH   1  15
TORSDOF 5
ENDMDL
MODEL 9
REMARK VINA RESULT:    -6.307      4.462      7.195
REMARK INTER + INTRA:          -9.074
REMARK INTER:                  -8.615
REMARK INTRA:                  -0.459
REMARK UNBOUND:                -0.923
REMARK  Name = 
REMARK  6 active torsions:
REMARK  status: ('A' for Active; 'I' for Inactive)
REMARK    1  A    between atoms: C_1  and  C_2
REMARK    2  A    between atoms: C_4  and  C_5
REMARK    3  A    between atoms: C_10  and  N_11
REMARK    4  A    between atoms: N_11  and  C_12
REMARK    5  A    between atoms: C_12  and  C_13
REMARK    6  A    between atoms: C_17  and  C_18
REMARK                            x       y       z     vdW  Elec       q    Type
REMARK                         _______ _______ _______ _____ _____    ______ ____
ROOT
ATOM      1  N   UNL     1      44.846   5.863  11.122  0.00  0.00    +0.000 N 
ATOM      2  H   UNL     1      44.628   4.943  11.493  0.00  0.00    +0.000 HD
ENDROOT
BRANCH   1   9
ATOM      3  C   UNL     1      44.477   8.694  11.421  0.00  0.00    +0.000 C 
ATOM      4  C   UNL     1      45.524   7.925  12.175  0.00  0.00    +0.000 A 
ATOM      5  C   UNL     1      46.406   8.608  13.024  0.00  0.00    +0.000 A 
ATOM      6  C   UNL     1      47.409   7.917  13.705  0.00  0.00    +0.000 A 
ATOM      7  C   UNL     1      47.471   6.549  13.503  0.00  0.00    +0.000 A 
ATOM      8  N   UNL     1      46.643   5.857  12.677  0.00  0.00    +0.000 NA
ATOM      9  C   UNL     1      45.683   6.540  12.015  0.00  0.00    +0.000 A 
BRANCH   6  10
ATOM     10  C   UNL     1      48.340   8.676  14.575  0.00  0.00    +0.000 C 
ATOM     11  N   UNL     1      48.297  10.042  14.571  0.00  0.00    +0.000 N 
ATOM     12  O   UNL     1      49.141   8.095  15.299  0.00  0.00    +0.000 OA
ATOM     13  H   UNL     1      47.670  10.619  14.032  0.00  0.00    +0.000 HD
ATOM     14  H   UNL     1      48.944  10.512  15.196  0.00  0.00    +0.000 HD
ENDBRANCH   6  10
ENDBRANCH   1   9
BRANCH   1  15
ATOM     15  C   UNL     1      45.292   5.808   9.738  0.00  0.00    +0.000 C 
BRANCH  15  16
ATOM     16  C   UNL     1      45.337   4.369   9.250  0.00  0.00    +0.000 A 
ATOM     17  C   UNL     1      44.597   3.387   9.923  0.00  0.00    +0.000 A 
ATOM     18  C   UNL     1      44.652   2.050   9.521  0.00  0.00    +0.000 A 
ATOM     19  C   UNL     1      45.441   1.675   8.432  0.00  0.00    +0.000 A 
ATOM     20  C   UNL     1      46.193   2.634   7.743  0.00  0.00    +0.000 A 
ATOM     21  C   UNL     1      46.154   3.969   8.179  0.00  0.00    +0.000 A 
BRANCH  20  22
ATOM     22  C   UNL     1      47.026   2.265   6.540  0.00  0.00    +0.000 C 
ATOM     23  F   UNL     1      46.636   2.890   5.394  0.00  0.00    +0.000 F 
ATOM     24  F   UNL     1      48.342   2.586   6.704  0.00  0.00    +0.000 F 
ATOM     25  F   UNL     1      46.999   0.933   6.267  0.00  0.00    +0.000 F 
ENDBRANCH  20  22
ENDBRANCH  15  16
ENDBRANCH   1  15
TORSDOF 5
ENDMDL
