MODEL 1
REMARK VINA RESULT:    -8.259      0.000      0.000
REMARK INTER + INTRA:         -11.359
REMARK INTER:                 -10.673
REMARK INTRA:                  -0.686
REMARK UNBOUND:                -0.686
REMARK  Name = 
REMARK  5 active torsions:
REMARK  status: ('A' for Active; 'I' for Inactive)
REMARK    1  A    between atoms: C_2  and  C_4
REMARK    2  A    between atoms: C_7  and  N_8
REMARK    3  A    between atoms: N_8  and  C_9
REMARK    4  A    between atoms: C_9  and  C_10
REMARK    5  A    between atoms: C_13  and  C_14
REMARK                            x       y       z     vdW  Elec       q    Type
REMARK                         _______ _______ _______ _____ _____    ______ ____
ROOT
ATOM      1  N   UNL     1      45.469   5.426  11.956  0.00  0.00    +0.000 N 
ATOM      2  H   UNL     1      46.069   6.065  11.438  0.00  0.00    +0.000 HD
ENDROOT
BRANCH   1   6
ATOM      3  C   UNL     1      47.517   3.650  15.127  0.00  0.00    +0.000 A 
ATOM      4  C   UNL     1      47.313   5.021  15.183  0.00  0.00    +0.000 A 
ATOM      5  C   UNL     1      46.640   5.643  14.128  0.00  0.00    +0.000 A 
ATOM      6  C   UNL     1      46.131   4.889  13.075  0.00  0.00    +0.000 A 
ATOM      7  C   UNL     1      46.431   3.517  13.104  0.00  0.00    +0.000 A 
ATOM      8  N   UNL     1      47.102   2.870  14.091  0.00  0.00    +0.000 NA
BRANCH   3  10
ATOM      9  N   UNL     1      47.806   3.248  17.506  0.00  0.00    +0.000 N 
ATOM     10  C   UNL     1      48.243   2.964  16.241  0.00  0.00    +0.000 C 
ATOM     11  O   UNL     1      49.171   2.184  16.042  0.00  0.00    +0.000 OA
ATOM     12  H   UNL     1      48.238   2.789  18.294  0.00  0.00    +0.000 HD
ATOM     13  H   UNL     1      47.015   3.867  17.637  0.00  0.00    +0.000 HD
ENDBRANCH   3  10
ENDBRANCH   1   6
BRANCH   1  14
ATOM     14  C   UNL     1      44.472   4.728  11.123  0.00  0.00    +0.000 C 
ATOM     15  C   UNL     1      43.142   5.472  11.009  0.00  0.00    +0.000 C 
ATOM     16  C   UNL     1      43.187   4.137  11.677  0.00  0.00    +0.000 C 
BRANCH  14  17
ATOM     17  C   UNL     1      45.037   4.060   9.873  0.00  0.00    +0.000 A 
ATOM     18  C   UNL     1      45.679   4.815   8.874  0.00  0.00    +0.000 A 
ATOM     19  C   UNL     1      46.287   4.214   7.771  0.00  0.00    +0.000 A 
ATOM     20  C   UNL     1      46.274   2.822   7.630  0.00  0.00    +0.000 A 
ATOM     21  C   UNL     1      45.606   2.054   8.592  0.00  0.00    +0.000 A 
ATOM     22  C   UNL     1      44.991   2.667   9.688  0.00  0.00    +0.000 A 
BRANCH  20  23
ATOM     23  C   UNL     1      46.986   2.151   6.483  0.00  0.00    +0.000 C 
ATOM     24  F   UNL     1      46.575   2.584   5.257  0.00  0.00    +0.000 F 
ATOM     25  F   UNL     1      48.331   2.358   6.517  0.00  0.00    +0.000 F 
ATOM     26  F   UNL     1      46.814   0.800   6.479  0.00  0.00    +0.000 F 
ENDBRANCH  20  23
ENDBRANCH  14  17
ENDBRANCH   1  14
TORSDOF 5
ENDMDL
MODEL 2
REMARK VINA RESULT:    -8.184      4.406      6.812
REMARK INTER + INTRA:         -11.263
REMARK INTER:                 -10.440
REMARK INTRA:                  -0.822
REMARK UNBOUND:                -0.686
REMARK  Name = 
REMARK  5 active torsions:
REMARK  status: ('A' for Active; 'I' for Inactive)
REMARK    1  A    between atoms: C_2  and  C_4
REMARK    2  A    between atoms: C_7  and  N_8
REMARK    3  A    between atoms: N_8  and  C_9
REMARK    4  A    between atoms: C_9  and  C_10
REMARK    5  A    between atoms: C_13  and  C_14
REMARK                            x       y       z     vdW  Elec       q    Type
REMARK                         _______ _______ _______ _____ _____    ______ ____
ROOT
ATOM      1  N   UNL     1      43.856   3.710  10.615  0.00  0.00    +0.000 N 
ATOM      2  H   UNL     1      43.596   2.858  11.108  0.00  0.00    +0.000 HD
ENDROOT
BRANCH   1   6
ATOM      3  C   UNL     1      46.478   2.697   7.531  0.00  0.00    +0.000 A 
ATOM      4  C   UNL     1      46.116   4.031   7.653  0.00  0.00    +0.000 A 
ATOM      5  C   UNL     1      45.230   4.396   8.670  0.00  0.00    +0.000 A 
ATOM      6  C   UNL     1      44.772   3.447   9.579  0.00  0.00    +0.000 A 
ATOM      7  C   UNL     1      45.173   2.123   9.336  0.00  0.00    +0.000 A 
ATOM      8  N   UNL     1      46.010   1.714   8.348  0.00  0.00    +0.000 NA
BRANCH   3  10
ATOM      9  N   UNL     1      47.327   2.981   5.272  0.00  0.00    +0.000 N 
ATOM     10  C   UNL     1      47.419   2.282   6.444  0.00  0.00    +0.000 C 
ATOM     11  O   UNL     1      48.235   1.376   6.590  0.00  0.00    +0.000 OA
ATOM     12  H   UNL     1      47.959   2.764   4.516  0.00  0.00    +0.000 HD
ATOM     13  H   UNL     1      46.669   3.747   5.194  0.00  0.00    +0.000 HD
ENDBRANCH   3  10
ENDBRANCH   1   6
BRANCH   1  14
ATOM     14  C   UNL     1      43.821   4.925  11.450  0.00  0.00    +0.000 C 
ATOM     15  C   UNL     1      42.690   4.927  12.477  0.00  0.00    +0.000 C 
ATOM     16  C   UNL     1      42.699   5.949  11.388  0.00  0.00    +0.000 C 
BRANCH  14  17
ATOM     17  C   UNL     1      45.189   5.448  11.877  0.00  0.00    +0.000 A 
ATOM     18  C   UNL     1      45.703   6.647  11.350  0.00  0.00    +0.000 A 
ATOM     19  C   UNL     1      46.907   7.193  11.798  0.00  0.00    +0.000 A 
ATOM     20  C   UNL     1      47.643   6.552  12.800  0.00  0.00    +0.000 A 
ATOM     21  C   UNL     1      47.169   5.336  13.310  0.00  0.00    +0.000 A 
ATOM     22  C   UNL     1      45.967   4.793  12.847  0.00  0.00    +0.000 A 
BRANCH  20  23
ATOM     23  C   UNL     1      48.909   7.163  13.345  0.00  0.00    +0.000 C 
ATOM     24  F   UNL     1      49.341   6.583  14.501  0.00  0.00    +0.000 F 
ATOM     25  F   UNL     1      49.948   7.066  12.470  0.00  0.00    +0.000 F 
ATOM     26  F   UNL     1      48.772   8.489  13.620  0.00  0.00    +0.000 F 
ENDBRANCH  20  23
ENDBRANCH  14  17
ENDBRANCH   1  14
TORSDOF 5
ENDMDL
MODEL 3
REMARK VINA RESULT:    -8.167      2.873      3.306
REMARK INTER + INTRA:         -11.240
REMARK INTER:                 -10.539
REMARK INTRA:                  -0.700
REMARK UNBOUND:                -0.686
REMARK  Name = 
REMARK  5 active torsions:
REMARK  status: ('A' for Active; 'I' for Inactive)
REMARK    1  A    between atoms: C_2  and  C_4
REMARK    2  A    between atoms: C_7  and  N_8
REMARK    3  A    between atoms: N_8  and  C_9
REMARK    4  A    between atoms: C_9  and  C_10
REMARK    5  A    between atoms: C_13  and  C_14
REMARK                            x       y       z     vdW  Elec       q    Type
REMARK                         _______ _______ _______ _____ _____    ______ ____
ROOT
ATOM      1  N   UNL     1      44.611   6.172  11.008  0.00  0.00    +0.000 N 
ATOM      2  H   UNL     1      44.503   6.644  10.113  0.00  0.00    +0.000 HD
ENDROOT
BRANCH   1   6
ATOM      3  C   UNL     1      47.256   8.183  13.532  0.00  0.00    +0.000 A 
ATOM      4  C   UNL     1      47.682   6.982  12.982  0.00  0.00    +0.000 A 
ATOM      5  C   UNL     1      46.811   6.282  12.142  0.00  0.00    +0.000 A 
ATOM      6  C   UNL     1      45.567   6.814  11.817  0.00  0.00    +0.000 A 
ATOM      7  C   UNL     1      45.227   8.015  12.462  0.00  0.00    +0.000 A 
ATOM      8  N   UNL     1      46.026   8.719  13.304  0.00  0.00    +0.000 NA
BRANCH   3  10
ATOM      9  N   UNL     1      47.677   9.229  15.684  0.00  0.00    +0.000 N 
ATOM     10  C   UNL     1      48.169   8.945  14.440  0.00  0.00    +0.000 C 
ATOM     11  O   UNL     1      49.297   9.292  14.100  0.00  0.00    +0.000 OA
ATOM     12  H   UNL     1      48.262   9.713  16.349  0.00  0.00    +0.000 HD
ATOM     13  H   UNL     1      46.757   8.898  15.949  0.00  0.00    +0.000 HD
ENDBRANCH   3  10
ENDBRANCH   1   6
BRANCH   1  14
ATOM     14  C   UNL     1      44.354   4.721  10.959  0.00  0.00    +0.000 C 
ATOM     15  C   UNL     1      42.936   4.337  11.379  0.00  0.00    +0.000 C 
ATOM     16  C   UNL     1      44.098   3.875  12.196  0.00  0.00    +0.000 C 
BRANCH  14  17
ATOM     17  C   UNL     1      44.976   4.000   9.767  0.00  0.00    +0.000 A 
ATOM     18  C   UNL     1      45.627   4.716   8.747  0.00  0.00    +0.000 A 
ATOM     19  C   UNL     1      46.286   4.072   7.698  0.00  0.00    +0.000 A 
ATOM     20  C   UNL     1      46.317   2.674   7.637  0.00  0.00    +0.000 A 
ATOM     21  C   UNL     1      45.641   1.943   8.621  0.00  0.00    +0.000 A 
ATOM     22  C   UNL     1      44.975   2.598   9.662  0.00  0.00    +0.000 A 
BRANCH  20  23
ATOM     23  C   UNL     1      47.083   1.961   6.551  0.00  0.00    +0.000 C 
ATOM     24  F   UNL     1      46.861   0.617   6.520  0.00  0.00    +0.000 F 
ATOM     25  F   UNL     1      46.765   2.419   5.309  0.00  0.00    +0.000 F 
ATOM     26  F   UNL     1      48.430   2.116   6.675  0.00  0.00    +0.000 F 
ENDBRANCH  20  23
ENDBRANCH  14  17
ENDBRANCH   1  14
TORSDOF 5
ENDMDL
MODEL 4
REMARK VINA RESULT:    -7.214      4.680      7.052
REMARK INTER + INTRA:         -10.009
REMARK INTER:                  -9.151
REMARK INTRA:                  -0.858
REMARK UNBOUND:                -0.686
REMARK  Name = 
REMARK  5 active torsions:
REMARK  status: ('A' for Active; 'I' for Inactive)
REMARK    1  A    between atoms: C_2  and  C_4
REMARK    2  A    between atoms: C_7  and  N_8
REMARK    3  A    between atoms: N_8  and  C_9
REMARK    4  A    between atoms: C_9  and  C_10
REMARK    5  A    between atoms: C_13  and  C_14
REMARK                            x       y       z     vdW  Elec       q    Type
REMARK                         _______ _______ _______ _____ _____    ______ ____
ROOT
ATOM      1  N   UNL     1      44.319   5.116  10.202  0.00  0.00    +0.000 N 
ATOM      2  H   UNL     1      43.461   4.641  10.475  0.00  0.00    +0.000 HD
ENDROOT
BRANCH   1   6
ATOM      3  C   UNL     1      46.520   2.523   7.786  0.00  0.00    +0.000 A 
ATOM      4  C   UNL     1      46.670   3.885   7.568  0.00  0.00    +0.000 A 
ATOM      5  C   UNL     1      45.935   4.775   8.355  0.00  0.00    +0.000 A 
ATOM      6  C   UNL     1      45.120   4.302   9.378  0.00  0.00    +0.000 A 
ATOM      7  C   UNL     1      45.015   2.905   9.482  0.00  0.00    +0.000 A 
ATOM      8  N   UNL     1      45.687   1.999   8.726  0.00  0.00    +0.000 NA
BRANCH   3  10
ATOM      9  N   UNL     1      48.323   2.074   6.219  0.00  0.00    +0.000 N 
ATOM     10  C   UNL     1      47.291   1.551   6.949  0.00  0.00    +0.000 C 
ATOM     11  O   UNL     1      47.025   0.352   6.918  0.00  0.00    +0.000 OA
ATOM     12  H   UNL     1      48.896   1.458   5.661  0.00  0.00    +0.000 HD
ATOM     13  H   UNL     1      48.541   3.060   6.293  0.00  0.00    +0.000 HD
ENDBRANCH   3  10
ENDBRANCH   1   6
BRANCH   1  14
ATOM     14  C   UNL     1      44.810   6.091  11.194  0.00  0.00    +0.000 C 
ATOM     15  C   UNL     1      43.814   7.211  11.493  0.00  0.00    +0.000 C 
ATOM     16  C   UNL     1      45.125   7.539  10.856  0.00  0.00    +0.000 C 
BRANCH  14  17
ATOM     17  C   UNL     1      45.589   5.485  12.357  0.00  0.00    +0.000 A 
ATOM     18  C   UNL     1      46.683   6.162  12.926  0.00  0.00    +0.000 A 
ATOM     19  C   UNL     1      47.350   5.671  14.051  0.00  0.00    +0.000 A 
ATOM     20  C   UNL     1      46.938   4.476  14.649  0.00  0.00    +0.000 A 
ATOM     21  C   UNL     1      45.877   3.766  14.073  0.00  0.00    +0.000 A 
ATOM     22  C   UNL     1      45.222   4.261  12.941  0.00  0.00    +0.000 A 
BRANCH  20  23
ATOM     23  C   UNL     1      47.600   3.967  15.904  0.00  0.00    +0.000 C 
ATOM     24  F   UNL     1      48.135   2.720  15.773  0.00  0.00    +0.000 F 
ATOM     25  F   UNL     1      48.623   4.769  16.310  0.00  0.00    +0.000 F 
ATOM     26  F   UNL     1      46.739   3.896  16.957  0.00  0.00    +0.000 F 
ENDBRANCH  20  23
ENDBRANCH  14  17
ENDBRANCH   1  14
TORSDOF 5
ENDMDL
MODEL 5
REMARK VINA RESULT:    -6.197      2.080      2.766
REMARK INTER + INTRA:          -8.694
REMARK INTER:                  -8.322
REMARK INTRA:                  -0.373
REMARK UNBOUND:                -0.686
REMARK  Name = 
REMARK  5 active torsions:
REMARK  status: ('A' for Active; 'I' for Inactive)
REMARK    1  A    between atoms: C_2  and  C_4
REMARK    2  A    between atoms: C_7  and  N_8
REMARK    3  A    between atoms: N_8  and  C_9
REMARK    4  A    between atoms: C_9  and  C_10
REMARK    5  A    between atoms: C_13  and  C_14
REMARK                            x       y       z     vdW  Elec       q    Type
REMARK                         _______ _______ _______ _____ _____    ______ ____
ROOT
ATOM      1  N   UNL     1      47.447   6.757  12.986  0.00  0.00    +0.000 N 
ATOM      2  H   UNL     1      48.261   6.623  12.390  0.00  0.00    +0.000 HD
ENDROOT
BRANCH   1   6
ATOM      3  C   UNL     1      47.607   4.169  16.254  0.00  0.00    +0.000 A 
ATOM      4  C   UNL     1      48.314   5.359  16.344  0.00  0.00    +0.000 A 
ATOM      5  C   UNL     1      48.287   6.239  15.258  0.00  0.00    +0.000 A 
ATOM      6  C   UNL     1      47.513   5.951  14.138  0.00  0.00    +0.000 A 
ATOM      7  C   UNL     1      46.872   4.702  14.141  0.00  0.00    +0.000 A 
ATOM      8  N   UNL     1      46.888   3.803  15.158  0.00  0.00    +0.000 NA
BRANCH   3  10
ATOM      9  N   UNL     1      48.818   3.093  18.065  0.00  0.00    +0.000 N 
ATOM     10  C   UNL     1      47.628   3.208  17.401  0.00  0.00    +0.000 C 
ATOM     11  O   UNL     1      46.638   2.563  17.738  0.00  0.00    +0.000 OA
ATOM     12  H   UNL     1      48.880   2.482  18.867  0.00  0.00    +0.000 HD
ATOM     13  H   UNL     1      49.606   3.664  17.786  0.00  0.00    +0.000 HD
ENDBRANCH   3  10
ENDBRANCH   1   6
BRANCH   1  14
ATOM     14  C   UNL     1      46.219   7.123  12.255  0.00  0.00    +0.000 C 
ATOM     15  C   UNL     1      46.134   8.608  11.908  0.00  0.00    +0.000 C 
ATOM     16  C   UNL     1      45.131   8.008  12.840  0.00  0.00    +0.000 C 
BRANCH  14  17
ATOM     17  C   UNL     1      45.771   6.108  11.208  0.00  0.00    +0.000 A 
ATOM     18  C   UNL     1      46.309   6.122   9.908  0.00  0.00    +0.000 A 
ATOM     19  C   UNL     1      45.985   5.145   8.965  0.00  0.00    +0.000 A 
ATOM     20  C   UNL     1      45.105   4.110   9.295  0.00  0.00    +0.000 A 
ATOM     21  C   UNL     1      44.526   4.100  10.571  0.00  0.00    +0.000 A 
ATOM     22  C   UNL     1      44.849   5.089  11.505  0.00  0.00    +0.000 A 
BRANCH  20  23
ATOM     23  C   UNL     1      44.798   3.008   8.313  0.00  0.00    +0.000 C 
ATOM     24  F   UNL     1      44.050   1.998   8.841  0.00  0.00    +0.000 F 
ATOM     25  F   UNL     1      44.103   3.458   7.232  0.00  0.00    +0.000 F 
ATOM     26  F   UNL     1      45.923   2.422   7.818  0.00  0.00    +0.000 F 
ENDBRANCH  20  23
ENDBRANCH  14  17
ENDBRANCH   1  14
TORSDOF 5
ENDMDL
MODEL 6
REMARK VINA RESULT:    -6.121      5.215      8.099
REMARK INTER + INTRA:          -8.596
REMARK INTER:                  -8.199
REMARK INTRA:                  -0.398
REMARK UNBOUND:                -0.686
REMARK  Name = 
REMARK  5 active torsions:
REMARK  status: ('A' for Active; 'I' for Inactive)
REMARK    1  A    between atoms: C_2  and  C_4
REMARK    2  A    between atoms: C_7  and  N_8
REMARK    3  A    between atoms: N_8  and  C_9
REMARK    4  A    between atoms: C_9  and  C_10
REMARK    5  A    between atoms: C_13  and  C_14
REMARK                            x       y       z     vdW  Elec       q    Type
REMARK                         _______ _______ _______ _____ _____    ______ ____
ROOT
ATOM      1  N   UNL     1      46.090   6.317  13.179  0.00  0.00    +0.000 N 
ATOM      2  H   UNL     1      45.391   6.233  13.914  0.00  0.00    +0.000 HD
ENDROOT
BRANCH   1   6
ATOM      3  C   UNL     1      44.990   3.796  10.042  0.00  0.00    +0.000 A 
ATOM      4  C   UNL     1      45.439   5.068   9.716  0.00  0.00    +0.000 A 
ATOM      5  C   UNL     1      45.802   5.937  10.748  0.00  0.00    +0.000 A 
ATOM      6  C   UNL     1      45.774   5.508  12.072  0.00  0.00    +0.000 A 
ATOM      7  C   UNL     1      45.266   4.216  12.286  0.00  0.00    +0.000 A 
ATOM      8  N   UNL     1      44.877   3.344  11.321  0.00  0.00    +0.000 NA
BRANCH   3  10
ATOM      9  N   UNL     1      44.278   3.421   7.750  0.00  0.00    +0.000 N 
ATOM     10  C   UNL     1      44.587   2.852   8.954  0.00  0.00    +0.000 C 
ATOM     11  O   UNL     1      44.543   1.635   9.120  0.00  0.00    +0.000 OA
ATOM     12  H   UNL     1      44.030   2.829   6.971  0.00  0.00    +0.000 HD
ATOM     13  H   UNL     1      44.359   4.424   7.632  0.00  0.00    +0.000 HD
ENDBRANCH   3  10
ENDBRANCH   1   6
BRANCH   1  14
ATOM     14  C   UNL     1      47.448   6.619  13.670  0.00  0.00    +0.000 C 
ATOM     15  C   UNL     1      47.833   8.091  13.535  0.00  0.00    +0.000 C 
ATOM     16  C   UNL     1      48.586   7.057  12.764  0.00  0.00    +0.000 C 
BRANCH  14  17
ATOM     17  C   UNL     1      47.847   5.880  14.944  0.00  0.00    +0.000 A 
ATOM     18  C   UNL     1      47.242   4.659  15.293  0.00  0.00    +0.000 A 
ATOM     19  C   UNL     1      47.659   3.919  16.401  0.00  0.00    +0.000 A 
ATOM     20  C   UNL     1      48.708   4.381  17.204  0.00  0.00    +0.000 A 
ATOM     21  C   UNL     1      49.297   5.614  16.897  0.00  0.00    +0.000 A 
ATOM     22  C   UNL     1      48.865   6.352  15.790  0.00  0.00    +0.000 A 
BRANCH  20  23
ATOM     23  C   UNL     1      49.218   3.562  18.362  0.00  0.00    +0.000 C 
ATOM     24  F   UNL     1      50.226   2.709  18.026  0.00  0.00    +0.000 F 
ATOM     25  F   UNL     1      49.708   4.338  19.367  0.00  0.00    +0.000 F 
ATOM     26  F   UNL     1      48.247   2.790  18.924  0.00  0.00    +0.000 F 
ENDBRANCH  20  23
ENDBRANCH  14  17
ENDBRANCH   1  14
TORSDOF 5
ENDMDL
MODEL 7
REMARK VINA RESULT:    -5.798      3.431      4.931
REMARK INTER + INTRA:          -8.178
REMARK INTER:                  -8.192
REMARK INTRA:                   0.014
REMARK UNBOUND:                -0.686
REMARK  Name = 
REMARK  5 active torsions:
REMARK  status: ('A' for Active; 'I' for Inactive)
REMARK    1  A    between atoms: C_2  and  C_4
REMARK    2  A    between atoms: C_7  and  N_8
REMARK    3  A    between atoms: N_8  and  C_9
REMARK    4  A    between atoms: C_9  and  C_10
REMARK    5  A    between atoms: C_13  and  C_14
REMARK                            x       y       z     vdW  Elec       q    Type
REMARK                         _______ _______ _______ _____ _____    ______ ____
ROOT
ATOM      1  N   UNL     1      47.941   7.275  14.598  0.00  0.00    +0.000 N 
ATOM      2  H   UNL     1      47.746   8.229  14.894  0.00  0.00    +0.000 HD
ENDROOT
BRANCH   1   6
ATOM      3  C   UNL     1      50.303   5.099  17.261  0.00  0.00    +0.000 A 
ATOM      4  C   UNL     1      50.861   6.232  16.689  0.00  0.00    +0.000 A 
ATOM      5  C   UNL     1      50.096   6.973  15.784  0.00  0.00    +0.000 A 
ATOM      6  C   UNL     1      48.779   6.612  15.515  0.00  0.00    +0.000 A 
ATOM      7  C   UNL     1      48.332   5.426  16.121  0.00  0.00    +0.000 A 
ATOM      8  N   UNL     1      49.044   4.659  16.986  0.00  0.00    +0.000 NA
BRANCH   3  10
ATOM      9  N   UNL     1      50.707   4.338  19.534  0.00  0.00    +0.000 N 
ATOM     10  C   UNL     1      51.107   4.286  18.227  0.00  0.00    +0.000 C 
ATOM     11  O   UNL     1      52.065   3.602  17.874  0.00  0.00    +0.000 OA
ATOM     12  H   UNL     1      51.194   3.784  20.223  0.00  0.00    +0.000 HD
ATOM     13  H   UNL     1      49.892   4.882  19.788  0.00  0.00    +0.000 HD
ENDBRANCH   3  10
ENDBRANCH   1   6
BRANCH   1  14
ATOM     14  C   UNL     1      47.937   7.084  13.136  0.00  0.00    +0.000 C 
ATOM     15  C   UNL     1      49.333   7.088  12.515  0.00  0.00    +0.000 C 
ATOM     16  C   UNL     1      48.360   8.162  12.152  0.00  0.00    +0.000 C 
BRANCH  14  17
ATOM     17  C   UNL     1      46.920   6.067  12.625  0.00  0.00    +0.000 A 
ATOM     18  C   UNL     1      46.726   4.842  13.289  0.00  0.00    +0.000 A 
ATOM     19  C   UNL     1      45.735   3.940  12.896  0.00  0.00    +0.000 A 
ATOM     20  C   UNL     1      44.897   4.239  11.817  0.00  0.00    +0.000 A 
ATOM     21  C   UNL     1      45.101   5.435  11.117  0.00  0.00    +0.000 A 
ATOM     22  C   UNL     1      46.102   6.327  11.512  0.00  0.00    +0.000 A 
BRANCH  20  23
ATOM     23  C   UNL     1      43.777   3.309  11.423  0.00  0.00    +0.000 C 
ATOM     24  F   UNL     1      43.490   2.370  12.367  0.00  0.00    +0.000 F 
ATOM     25  F   UNL     1      42.611   3.974  11.193  0.00  0.00    +0.000 F 
ATOM     26  F   UNL     1      44.048   2.621  10.280  0.00  0.00    +0.000 F 
ENDBRANCH  20  23
ENDBRANCH  14  17
ENDBRANCH   1  14
TORSDOF 5
ENDMDL
MODEL 8
REMARK VINA RESULT:    -5.658      6.125      8.652
REMARK INTER + INTRA:          -7.998
REMARK INTER:                  -7.219
REMARK INTRA:                  -0.779
REMARK UNBOUND:                -0.686
REMARK  Name = 
REMARK  5 active torsions:
REMARK  status: ('A' for Active; 'I' for Inactive)
REMARK    1  A    between atoms: C_2  and  C_4
REMARK    2  A    between atoms: C_7  and  N_8
REMARK    3  A    between atoms: N_8  and  C_9
REMARK    4  A    between atoms: C_9  and  C_10
REMARK    5  A    between atoms: C_13  and  C_14
REMARK                            x       y       z     vdW  Elec       q    Type
REMARK                         _______ _______ _______ _____ _____    ______ ____
ROOT
ATOM      1  N   UNL     1      46.617   7.607  12.777  0.00  0.00    +0.000 N 
ATOM      2  H   UNL     1      46.016   8.226  13.317  0.00  0.00    +0.000 HD
ENDROOT
BRANCH   1   6
ATOM      3  C   UNL     1      44.701   4.130  11.497  0.00  0.00    +0.000 A 
ATOM      4  C   UNL     1      45.207   4.144  12.788  0.00  0.00    +0.000 A 
ATOM      5  C   UNL     1      45.865   5.292  13.239  0.00  0.00    +0.000 A 
ATOM      6  C   UNL     1      45.951   6.419  12.426  0.00  0.00    +0.000 A 
ATOM      7  C   UNL     1      45.438   6.276  11.126  0.00  0.00    +0.000 A 
ATOM      8  N   UNL     1      44.814   5.175  10.633  0.00  0.00    +0.000 NA
BRANCH   3  10
ATOM      9  N   UNL     1      44.614   2.248   9.962  0.00  0.00    +0.000 N 
ATOM     10  C   UNL     1      44.001   2.908  10.991  0.00  0.00    +0.000 C 
ATOM     11  O   UNL     1      42.943   2.509  11.470  0.00  0.00    +0.000 OA
ATOM     12  H   UNL     1      44.202   1.399   9.603  0.00  0.00    +0.000 HD
ATOM     13  H   UNL     1      45.505   2.580   9.611  0.00  0.00    +0.000 HD
ENDBRANCH   3  10
ENDBRANCH   1   6
BRANCH   1  14
ATOM     14  C   UNL     1      48.052   7.733  13.094  0.00  0.00    +0.000 C 
ATOM     15  C   UNL     1      48.803   8.683  12.161  0.00  0.00    +0.000 C 
ATOM     16  C   UNL     1      49.157   7.232  12.179  0.00  0.00    +0.000 C 
BRANCH  14  17
ATOM     17  C   UNL     1      48.378   7.774  14.584  0.00  0.00    +0.000 A 
ATOM     18  C   UNL     1      48.208   8.954  15.330  0.00  0.00    +0.000 A 
ATOM     19  C   UNL     1      48.408   8.988  16.712  0.00  0.00    +0.000 A 
ATOM     20  C   UNL     1      48.786   7.830  17.399  0.00  0.00    +0.000 A 
ATOM     21  C   UNL     1      48.999   6.654  16.668  0.00  0.00    +0.000 A 
ATOM     22  C   UNL     1      48.806   6.633  15.283  0.00  0.00    +0.000 A 
BRANCH  20  23
ATOM     23  C   UNL     1      48.937   7.831  18.899  0.00  0.00    +0.000 C 
ATOM     24  F   UNL     1      47.913   8.451  19.550  0.00  0.00    +0.000 F 
ATOM     25  F   UNL     1      48.996   6.572  19.413  0.00  0.00    +0.000 F 
ATOM     26  F   UNL     1      50.075   8.457  19.308  0.00  0.00    +0.000 F 
ENDBRANCH  20  23
ENDBRANCH  14  17
ENDBRANCH   1  14
TORSDOF 5
ENDMDL
MODEL 9
REMARK VINA RESULT:    -5.431      4.656      6.061
REMARK INTER + INTRA:          -7.705
REMARK INTER:                  -6.737
REMARK INTRA:                  -0.968
REMARK UNBOUND:                -0.686
REMARK  Name = 
REMARK  5 active torsions:
REMARK  status: ('A' for Active; 'I' for Inactive)
REMARK    1  A    between atoms: C_2  and  C_4
REMARK    2  A    between atoms: C_7  and  N_8
REMARK    3  A    between atoms: N_8  and  C_9
REMARK    4  A    between atoms: C_9  and  C_10
REMARK    5  A    between atoms: C_13  and  C_14
REMARK                            x       y       z     vdW  Elec       q    Type
REMARK                         _______ _______ _______ _____ _____    ______ ____
ROOT
ATOM      1  N   UNL     1      49.383   7.068  13.934  0.00  0.00    +0.000 N 
ATOM      2  H   UNL     1      49.946   6.234  13.776  0.00  0.00    +0.000 HD
ENDROOT
BRANCH   1   6
ATOM      3  C   UNL     1      48.377   7.776  17.920  0.00  0.00    +0.000 A 
ATOM      4  C   UNL     1      48.673   6.471  17.556  0.00  0.00    +0.000 A 
ATOM      5  C   UNL     1      49.001   6.203  16.225  0.00  0.00    +0.000 A 
ATOM      6  C   UNL     1      49.091   7.240  15.300  0.00  0.00    +0.000 A 
ATOM      7  C   UNL     1      48.733   8.514  15.772  0.00  0.00    +0.000 A 
ATOM      8  N   UNL     1      48.382   8.820  17.047  0.00  0.00    +0.000 NA
BRANCH   3  10
ATOM      9  N   UNL     1      47.171   9.144  19.526  0.00  0.00    +0.000 N 
ATOM     10  C   UNL     1      48.014   8.084  19.339  0.00  0.00    +0.000 C 
ATOM     11  O   UNL     1      48.438   7.425  20.285  0.00  0.00    +0.000 OA
ATOM     12  H   UNL     1      46.868   9.377  20.461  0.00  0.00    +0.000 HD
ATOM     13  H   UNL     1      46.809   9.646  18.724  0.00  0.00    +0.000 HD
ENDBRANCH   3  10
ENDBRANCH   1   6
BRANCH   1  14
ATOM     14  C   UNL     1      48.498   7.420  12.809  0.00  0.00    +0.000 C 
ATOM     15  C   UNL     1      49.220   7.495  11.464  0.00  0.00    +0.000 C 
ATOM     16  C   UNL     1      48.603   8.727  12.041  0.00  0.00    +0.000 C 
BRANCH  14  17
ATOM     17  C   UNL     1      47.116   6.774  12.854  0.00  0.00    +0.000 A 
ATOM     18  C   UNL     1      45.955   7.531  12.617  0.00  0.00    +0.000 A 
ATOM     19  C   UNL     1      44.690   6.942  12.559  0.00  0.00    +0.000 A 
ATOM     20  C   UNL     1      44.545   5.563  12.737  0.00  0.00    +0.000 A 
ATOM     21  C   UNL     1      45.684   4.797  13.014  0.00  0.00    +0.000 A 
ATOM     22  C   UNL     1      46.946   5.397  13.080  0.00  0.00    +0.000 A 
BRANCH  20  23
ATOM     23  C   UNL     1      43.197   4.900  12.608  0.00  0.00    +0.000 C 
ATOM     24  F   UNL     1      42.209   5.747  12.202  0.00  0.00    +0.000 F 
ATOM     25  F   UNL     1      43.206   3.881  11.705  0.00  0.00    +0.000 F 
ATOM     26  F   UNL     1      42.767   4.358  13.781  0.00  0.00    +0.000 F 
ENDBRANCH  20  23
ENDBRANCH  14  17
ENDBRANCH   1  14
TORSDOF 5
ENDMDL
