MODEL 1
REMARK VINA RESULT:    -7.426      0.000      0.000
REMARK INTER + INTRA:         -12.170
REMARK INTER:                 -11.116
REMARK INTRA:                  -1.054
REMARK UNBOUND:                -1.054
REMARK  Name = 
REMARK  9 active torsions:
REMARK  status: ('A' for Active; 'I' for Inactive)
REMARK    1  A    between atoms: N_1  and  C_2
REMARK    2  A    between atoms: C_2  and  C_3
REMARK    3  A    between atoms: C_3  and  N_4
REMARK    4  A    between atoms: C_7  and  C_8
REMARK    5  A    between atoms: N_10  and  C_11
REMARK    6  A    between atoms: C_11  and  C_12
REMARK    7  A    between atoms: C_15  and  C_16
REMARK    8  A    between atoms: C_16  and  N_17
REMARK    9  A    between atoms: C_18  and  C_20
REMARK                            x       y       z     vdW  Elec       q    Type
REMARK                         _______ _______ _______ _____ _____    ______ ____
ROOT
ATOM      1  C   UNL     1      45.417   6.594  12.401  0.00  0.00    +0.000 A 
ATOM      2  C   UNL     1      45.626   7.952  12.677  0.00  0.00    +0.000 A 
ATOM      3  C   UNL     1      46.826   8.385  13.249  0.00  0.00    +0.000 A 
ATOM      4  C   UNL     1      47.848   7.468  13.538  0.00  0.00    +0.000 A 
ATOM      5  C   UNL     1      47.641   6.113  13.245  0.00  0.00    +0.000 A 
ATOM      6  C   UNL     1      46.444   5.681  12.672  0.00  0.00    +0.000 A 
ENDROOT
BRANCH   1   7
ATOM      7  C   UNL     1      44.114   6.128  11.810  0.00  0.00    +0.000 C 
BRANCH   7  10
ATOM      8  C   UNL     1      43.802   4.265  10.262  0.00  0.00    +0.000 C 
ATOM      9  O   UNL     1      43.149   3.640  11.092  0.00  0.00    +0.000 OA
ATOM     10  N   UNL     1      44.310   5.517  10.518  0.00  0.00    +0.000 N 
ATOM     11  H   UNL     1      44.801   6.039   9.804  0.00  0.00    +0.000 HD
BRANCH   8  15
ATOM     12  N   UNL     1      46.353   3.342   8.066  0.00  0.00    +0.000 NA
ATOM     13  C   UNL     1      45.892   2.189   8.862  0.00  0.00    +0.000 C 
ATOM     14  C   UNL     1      44.377   2.256   8.823  0.00  0.00    +0.000 C 
ATOM     15  C   UNL     1      44.089   3.750   8.858  0.00  0.00    +0.000 C 
ATOM     16  C   UNL     1      45.348   4.397   8.278  0.00  0.00    +0.000 C 
BRANCH  12  17
ATOM     17  C   UNL     1      46.567   2.982   6.653  0.00  0.00    +0.000 C 
BRANCH  17  18
ATOM     18  C   UNL     1      47.343   1.659   6.459  0.00  0.00    +0.000 C 
BRANCH  18  19
ATOM     19  N   UNL     1      48.531   1.829   5.619  0.00  0.00    +0.000 NA
ATOM     20  H   UNL     1      49.230   1.137   5.892  0.00  0.00    +0.000 HD
ATOM     21  H   UNL     1      48.951   2.739   5.803  0.00  0.00    +0.000 HD
ENDBRANCH  18  19
ENDBRANCH  17  18
ENDBRANCH  12  17
ENDBRANCH   8  15
ENDBRANCH   7  10
ENDBRANCH   1   7
BRANCH   4  22
ATOM     22  C   UNL     1      49.130   7.909  14.194  0.00  0.00    +0.000 C 
BRANCH  22  23
ATOM     23  N   UNL     1      49.030   7.850  15.632  0.00  0.00    +0.000 N 
ATOM     24  C   UNL     1      49.807   6.982  16.360  0.00  0.00    +0.000 C 
ATOM     25  O   UNL     1      50.648   6.262  15.831  0.00  0.00    +0.000 OA
ATOM     26  H   UNL     1      48.189   8.232  16.051  0.00  0.00    +0.000 HD
BRANCH  24  27
ATOM     27  C   UNL     1      49.621   7.003  17.816  0.00  0.00    +0.000 A 
ATOM     28  C   UNL     1      49.859   8.175  18.525  0.00  0.00    +0.000 A 
ATOM     29  S   UNL     1      49.577   8.031  20.200  0.00  0.00    +0.000 S 
ATOM     30  C   UNL     1      49.173   6.385  20.046  0.00  0.00    +0.000 A 
ATOM     31  N   UNL     1      48.859   5.636  21.139  0.00  0.00    +0.000 NA
ATOM     32  C   UNL     1      48.598   4.398  20.879  0.00  0.00    +0.000 A 
ATOM     33  N   UNL     1      48.615   3.843  19.625  0.00  0.00    +0.000 N 
ATOM     34  C   UNL     1      48.898   4.568  18.491  0.00  0.00    +0.000 A 
ATOM     35  O   UNL     1      48.857   4.050  17.378  0.00  0.00    +0.000 OA
ATOM     36  C   UNL     1      49.220   5.960  18.730  0.00  0.00    +0.000 A 
ATOM     37  H   UNL     1      48.386   2.869  19.488  0.00  0.00    +0.000 HD
ENDBRANCH  24  27
ENDBRANCH  22  23
ENDBRANCH   4  22
TORSDOF 9
ENDMDL
MODEL 2
REMARK VINA RESULT:    -7.326      2.373      2.714
REMARK INTER + INTRA:         -12.021
REMARK INTER:                 -10.899
REMARK INTRA:                  -1.122
REMARK UNBOUND:                -1.054
REMARK  Name = 
REMARK  9 active torsions:
REMARK  status: ('A' for Active; 'I' for Inactive)
REMARK    1  A    between atoms: N_1  and  C_2
REMARK    2  A    between atoms: C_2  and  C_3
REMARK    3  A    between atoms: C_3  and  N_4
REMARK    4  A    between atoms: C_7  and  C_8
REMARK    5  A    between atoms: N_10  and  C_11
REMARK    6  A    between atoms: C_11  and  C_12
REMARK    7  A    between atoms: C_15  and  C_16
REMARK    8  A    between atoms: C_16  and  N_17
REMARK    9  A    between atoms: C_18  and  C_20
REMARK                            x       y       z     vdW  Elec       q    Type
REMARK                         _______ _______ _______ _____ _____    ______ ____
ROOT
ATOM      1  C   UNL     1      46.265   4.818  13.215  0.00  0.00    +0.000 A 
ATOM      2  C   UNL     1      46.882   4.679  14.464  0.00  0.00    +0.000 A 
ATOM      3  C   UNL     1      47.854   5.594  14.884  0.00  0.00    +0.000 A 
ATOM      4  C   UNL     1      48.212   6.676  14.067  0.00  0.00    +0.000 A 
ATOM      5  C   UNL     1      47.580   6.820  12.823  0.00  0.00    +0.000 A 
ATOM      6  C   UNL     1      46.609   5.909  12.406  0.00  0.00    +0.000 A 
ENDROOT
BRANCH   1   7
ATOM      7  C   UNL     1      45.238   3.819  12.756  0.00  0.00    +0.000 C 
BRANCH   7  10
ATOM      8  C   UNL     1      44.083   3.235  10.685  0.00  0.00    +0.000 C 
ATOM      9  O   UNL     1      43.077   2.896  11.301  0.00  0.00    +0.000 OA
ATOM     10  N   UNL     1      45.203   3.723  11.316  0.00  0.00    +0.000 N 
ATOM     11  H   UNL     1      46.002   4.047  10.789  0.00  0.00    +0.000 HD
BRANCH   8  15
ATOM     12  N   UNL     1      46.338   3.196   8.022  0.00  0.00    +0.000 NA
ATOM     13  C   UNL     1      46.021   1.829   8.471  0.00  0.00    +0.000 C 
ATOM     14  C   UNL     1      44.513   1.801   8.637  0.00  0.00    +0.000 C 
ATOM     15  C   UNL     1      44.192   3.191   9.167  0.00  0.00    +0.000 C 
ATOM     16  C   UNL     1      45.343   4.067   8.669  0.00  0.00    +0.000 C 
BRANCH  12  17
ATOM     17  C   UNL     1      46.370   3.298   6.552  0.00  0.00    +0.000 C 
BRANCH  17  18
ATOM     18  C   UNL     1      47.377   2.334   5.884  0.00  0.00    +0.000 C 
BRANCH  18  19
ATOM     19  N   UNL     1      48.760   2.614   6.278  0.00  0.00    +0.000 NA
ATOM     20  H   UNL     1      49.253   1.728   6.400  0.00  0.00    +0.000 HD
ATOM     21  H   UNL     1      48.769   3.069   7.189  0.00  0.00    +0.000 HD
ENDBRANCH  18  19
ENDBRANCH  17  18
ENDBRANCH  12  17
ENDBRANCH   8  15
ENDBRANCH   7  10
ENDBRANCH   1   7
BRANCH   4  22
ATOM     22  C   UNL     1      49.288   7.645  14.481  0.00  0.00    +0.000 C 
BRANCH  22  23
ATOM     23  N   UNL     1      50.420   6.959  15.053  0.00  0.00    +0.000 N 
ATOM     24  C   UNL     1      50.627   6.944  16.411  0.00  0.00    +0.000 C 
ATOM     25  O   UNL     1      49.838   7.466  17.194  0.00  0.00    +0.000 OA
ATOM     26  H   UNL     1      51.197   6.754  14.433  0.00  0.00    +0.000 HD
BRANCH  24  27
ATOM     27  C   UNL     1      51.812   6.219  16.884  0.00  0.00    +0.000 A 
ATOM     28  C   UNL     1      53.049   6.852  16.895  0.00  0.00    +0.000 A 
ATOM     29  S   UNL     1      54.314   5.876  17.491  0.00  0.00    +0.000 S 
ATOM     30  C   UNL     1      53.263   4.555  17.711  0.00  0.00    +0.000 A 
ATOM     31  N   UNL     1      53.727   3.360  18.169  0.00  0.00    +0.000 NA
ATOM     32  C   UNL     1      52.826   2.440  18.263  0.00  0.00    +0.000 A 
ATOM     33  N   UNL     1      51.502   2.608  17.949  0.00  0.00    +0.000 N 
ATOM     34  C   UNL     1      50.985   3.804  17.510  0.00  0.00    +0.000 A 
ATOM     35  O   UNL     1      49.784   3.933  17.284  0.00  0.00    +0.000 OA
ATOM     36  C   UNL     1      51.959   4.866  17.365  0.00  0.00    +0.000 A 
ATOM     37  H   UNL     1      50.844   1.850  18.060  0.00  0.00    +0.000 HD
ENDBRANCH  24  27
ENDBRANCH  22  23
ENDBRANCH   4  22
TORSDOF 9
ENDMDL
MODEL 3
REMARK VINA RESULT:    -7.163      2.077      2.990
REMARK INTER + INTRA:         -11.776
REMARK INTER:                 -10.769
REMARK INTRA:                  -1.008
REMARK UNBOUND:                -1.054
REMARK  Name = 
REMARK  9 active torsions:
REMARK  status: ('A' for Active; 'I' for Inactive)
REMARK    1  A    between atoms: N_1  and  C_2
REMARK    2  A    between atoms: C_2  and  C_3
REMARK    3  A    between atoms: C_3  and  N_4
REMARK    4  A    between atoms: C_7  and  C_8
REMARK    5  A    between atoms: N_10  and  C_11
REMARK    6  A    between atoms: C_11  and  C_12
REMARK    7  A    between atoms: C_15  and  C_16
REMARK    8  A    between atoms: C_16  and  N_17
REMARK    9  A    between atoms: C_18  and  C_20
REMARK                            x       y       z     vdW  Elec       q    Type
REMARK                         _______ _______ _______ _____ _____    ______ ____
ROOT
ATOM      1  C   UNL     1      46.025   5.906  12.061  0.00  0.00    +0.000 A 
ATOM      2  C   UNL     1      47.241   6.382  12.568  0.00  0.00    +0.000 A 
ATOM      3  C   UNL     1      47.759   5.878  13.766  0.00  0.00    +0.000 A 
ATOM      4  C   UNL     1      47.078   4.873  14.468  0.00  0.00    +0.000 A 
ATOM      5  C   UNL     1      45.869   4.388  13.949  0.00  0.00    +0.000 A 
ATOM      6  C   UNL     1      45.354   4.889  12.753  0.00  0.00    +0.000 A 
ENDROOT
BRANCH   1   7
ATOM      7  C   UNL     1      45.457   6.468  10.787  0.00  0.00    +0.000 C 
BRANCH   7  10
ATOM      8  C   UNL     1      44.334   4.727   9.493  0.00  0.00    +0.000 C 
ATOM      9  O   UNL     1      43.298   4.871  10.134  0.00  0.00    +0.000 OA
ATOM     10  N   UNL     1      45.457   5.485   9.730  0.00  0.00    +0.000 N 
ATOM     11  H   UNL     1      46.284   5.390   9.157  0.00  0.00    +0.000 HD
BRANCH   8  15
ATOM     12  N   UNL     1      46.534   2.476   7.986  0.00  0.00    +0.000 NA
ATOM     13  C   UNL     1      45.728   1.815   9.029  0.00  0.00    +0.000 C 
ATOM     14  C   UNL     1      44.305   2.288   8.795  0.00  0.00    +0.000 C 
ATOM     15  C   UNL     1      44.483   3.733   8.350  0.00  0.00    +0.000 C 
ATOM     16  C   UNL     1      45.892   3.780   7.755  0.00  0.00    +0.000 C 
BRANCH  12  17
ATOM     17  C   UNL     1      46.660   1.639   6.779  0.00  0.00    +0.000 C 
BRANCH  17  18
ATOM     18  C   UNL     1      47.635   2.213   5.724  0.00  0.00    +0.000 C 
BRANCH  18  19
ATOM     19  N   UNL     1      48.889   2.679   6.322  0.00  0.00    +0.000 NA
ATOM     20  H   UNL     1      49.397   3.233   5.631  0.00  0.00    +0.000 HD
ATOM     21  H   UNL     1      49.484   1.879   6.533  0.00  0.00    +0.000 HD
ENDBRANCH  18  19
ENDBRANCH  17  18
ENDBRANCH  12  17
ENDBRANCH   8  15
ENDBRANCH   7  10
ENDBRANCH   1   7
BRANCH   4  22
ATOM     22  C   UNL     1      47.597   4.349  15.781  0.00  0.00    +0.000 C 
BRANCH  22  23
ATOM     23  N   UNL     1      47.414   5.312  16.839  0.00  0.00    +0.000 N 
ATOM     24  C   UNL     1      48.477   6.022  17.341  0.00  0.00    +0.000 C 
ATOM     25  O   UNL     1      49.610   5.908  16.881  0.00  0.00    +0.000 OA
ATOM     26  H   UNL     1      46.567   5.235  17.392  0.00  0.00    +0.000 HD
BRANCH  24  27
ATOM     27  C   UNL     1      48.178   6.973  18.418  0.00  0.00    +0.000 A 
ATOM     28  C   UNL     1      48.035   6.515  19.722  0.00  0.00    +0.000 A 
ATOM     29  S   UNL     1      47.709   7.750  20.851  0.00  0.00    +0.000 S 
ATOM     30  C   UNL     1      47.699   8.937  19.631  0.00  0.00    +0.000 A 
ATOM     31  N   UNL     1      47.434  10.240  19.924  0.00  0.00    +0.000 NA
ATOM     32  C   UNL     1      47.433  11.026  18.899  0.00  0.00    +0.000 A 
ATOM     33  N   UNL     1      47.682  10.630  17.610  0.00  0.00    +0.000 N 
ATOM     34  C   UNL     1      47.982   9.331  17.273  0.00  0.00    +0.000 A 
ATOM     35  O   UNL     1      48.246   9.019  16.115  0.00  0.00    +0.000 OA
ATOM     36  C   UNL     1      47.973   8.402  18.385  0.00  0.00    +0.000 A 
ATOM     37  H   UNL     1      47.681  11.299  16.854  0.00  0.00    +0.000 HD
ENDBRANCH  24  27
ENDBRANCH  22  23
ENDBRANCH   4  22
TORSDOF 9
ENDMDL
MODEL 4
REMARK VINA RESULT:    -6.899      1.837      2.357
REMARK INTER + INTRA:         -11.382
REMARK INTER:                 -10.314
REMARK INTRA:                  -1.067
REMARK UNBOUND:                -1.054
REMARK  Name = 
REMARK  9 active torsions:
REMARK  status: ('A' for Active; 'I' for Inactive)
REMARK    1  A    between atoms: N_1  and  C_2
REMARK    2  A    between atoms: C_2  and  C_3
REMARK    3  A    between atoms: C_3  and  N_4
REMARK    4  A    between atoms: C_7  and  C_8
REMARK    5  A    between atoms: N_10  and  C_11
REMARK    6  A    between atoms: C_11  and  C_12
REMARK    7  A    between atoms: C_15  and  C_16
REMARK    8  A    between atoms: C_16  and  N_17
REMARK    9  A    between atoms: C_18  and  C_20
REMARK                            x       y       z     vdW  Elec       q    Type
REMARK                         _______ _______ _______ _____ _____    ______ ____
ROOT
ATOM      1  C   UNL     1      46.110   5.683  12.179  0.00  0.00    +0.000 A 
ATOM      2  C   UNL     1      46.993   6.379  13.015  0.00  0.00    +0.000 A 
ATOM      3  C   UNL     1      47.495   5.780  14.175  0.00  0.00    +0.000 A 
ATOM      4  C   UNL     1      47.137   4.466  14.509  0.00  0.00    +0.000 A 
ATOM      5  C   UNL     1      46.266   3.768  13.661  0.00  0.00    +0.000 A 
ATOM      6  C   UNL     1      45.767   4.364  12.502  0.00  0.00    +0.000 A 
ENDROOT
BRANCH   1   7
ATOM      7  C   UNL     1      45.551   6.339  10.946  0.00  0.00    +0.000 C 
BRANCH   7  10
ATOM      8  C   UNL     1      44.383   4.740   9.516  0.00  0.00    +0.000 C 
ATOM      9  O   UNL     1      43.339   4.888  10.144  0.00  0.00    +0.000 OA
ATOM     10  N   UNL     1      45.532   5.428   9.826  0.00  0.00    +0.000 N 
ATOM     11  H   UNL     1      46.368   5.333   9.266  0.00  0.00    +0.000 HD
BRANCH   8  15
ATOM     12  N   UNL     1      46.522   2.505   7.899  0.00  0.00    +0.000 NA
ATOM     13  C   UNL     1      45.672   1.811   8.884  0.00  0.00    +0.000 C 
ATOM     14  C   UNL     1      44.273   2.354   8.659  0.00  0.00    +0.000 C 
ATOM     15  C   UNL     1      44.515   3.816   8.313  0.00  0.00    +0.000 C 
ATOM     16  C   UNL     1      45.935   3.847   7.745  0.00  0.00    +0.000 C 
BRANCH  12  17
ATOM     17  C   UNL     1      46.639   1.745   6.642  0.00  0.00    +0.000 C 
BRANCH  17  18
ATOM     18  C   UNL     1      47.690   2.319   5.664  0.00  0.00    +0.000 C 
BRANCH  18  19
ATOM     19  N   UNL     1      48.934   2.694   6.342  0.00  0.00    +0.000 NA
ATOM     20  H   UNL     1      49.178   3.649   6.078  0.00  0.00    +0.000 HD
ATOM     21  H   UNL     1      49.695   2.105   6.007  0.00  0.00    +0.000 HD
ENDBRANCH  18  19
ENDBRANCH  17  18
ENDBRANCH  12  17
ENDBRANCH   8  15
ENDBRANCH   7  10
ENDBRANCH   1   7
BRANCH   4  22
ATOM     22  C   UNL     1      47.633   3.820  15.776  0.00  0.00    +0.000 C 
BRANCH  22  23
ATOM     23  N   UNL     1      48.316   4.772  16.617  0.00  0.00    +0.000 N 
ATOM     24  C   UNL     1      47.768   5.188  17.806  0.00  0.00    +0.000 C 
ATOM     25  O   UNL     1      46.708   4.734  18.227  0.00  0.00    +0.000 OA
ATOM     26  H   UNL     1      49.039   5.336  16.182  0.00  0.00    +0.000 HD
BRANCH  24  27
ATOM     27  C   UNL     1      48.548   6.161  18.581  0.00  0.00    +0.000 A 
ATOM     28  C   UNL     1      47.990   7.393  18.901  0.00  0.00    +0.000 A 
ATOM     29  S   UNL     1      49.021   8.394  19.818  0.00  0.00    +0.000 S 
ATOM     30  C   UNL     1      50.269   7.237  19.779  0.00  0.00    +0.000 A 
ATOM     31  N   UNL     1      51.474   7.488  20.360  0.00  0.00    +0.000 NA
ATOM     32  C   UNL     1      52.335   6.534  20.232  0.00  0.00    +0.000 A 
ATOM     33  N   UNL     1      52.098   5.349  19.584  0.00  0.00    +0.000 N 
ATOM     34  C   UNL     1      50.887   5.043  19.008  0.00  0.00    +0.000 A 
ATOM     35  O   UNL     1      50.694   3.952  18.477  0.00  0.00    +0.000 OA
ATOM     36  C   UNL     1      49.891   6.090  19.104  0.00  0.00    +0.000 A 
ATOM     37  H   UNL     1      52.811   4.637  19.532  0.00  0.00    +0.000 HD
ENDBRANCH  24  27
ENDBRANCH  22  23
ENDBRANCH   4  22
TORSDOF 9
ENDMDL
MODEL 5
REMARK VINA RESULT:    -6.679      3.250      9.675
REMARK INTER + INTRA:         -11.052
REMARK INTER:                  -9.796
REMARK INTRA:                  -1.256
REMARK UNBOUND:                -1.054
REMARK  Name = 
REMARK  9 active torsions:
REMARK  status: ('A' for Active; 'I' for Inactive)
REMARK    1  A    between atoms: N_1  and  C_2
REMARK    2  A    between atoms: C_2  and  C_3
REMARK    3  A    between atoms: C_3  and  N_4
REMARK    4  A    between atoms: C_7  and  C_8
REMARK    5  A    between atoms: N_10  and  C_11
REMARK    6  A    between atoms: C_11  and  C_12
REMARK    7  A    between atoms: C_15  and  C_16
REMARK    8  A    between atoms: C_16  and  N_17
REMARK    9  A    between atoms: C_18  and  C_20
REMARK                            x       y       z     vdW  Elec       q    Type
REMARK                         _______ _______ _______ _____ _____    ______ ____
ROOT
ATOM      1  C   UNL     1      48.997   8.044  15.933  0.00  0.00    +0.000 A 
ATOM      2  C   UNL     1      48.698   9.227  15.245  0.00  0.00    +0.000 A 
ATOM      3  C   UNL     1      48.166   9.183  13.953  0.00  0.00    +0.000 A 
ATOM      4  C   UNL     1      47.905   7.953  13.332  0.00  0.00    +0.000 A 
ATOM      5  C   UNL     1      48.191   6.772  14.030  0.00  0.00    +0.000 A 
ATOM      6  C   UNL     1      48.719   6.815  15.321  0.00  0.00    +0.000 A 
ENDROOT
BRANCH   1   7
ATOM      7  C   UNL     1      49.593   8.094  17.314  0.00  0.00    +0.000 C 
BRANCH   7  10
ATOM      8  C   UNL     1      49.957   6.398  19.033  0.00  0.00    +0.000 C 
ATOM      9  O   UNL     1      49.409   7.093  19.883  0.00  0.00    +0.000 OA
ATOM     10  N   UNL     1      50.082   6.800  17.724  0.00  0.00    +0.000 N 
ATOM     11  H   UNL     1      50.489   6.192  17.026  0.00  0.00    +0.000 HD
BRANCH   8  15
ATOM     12  N   UNL     1      52.153   3.953  17.859  0.00  0.00    +0.000 NA
ATOM     13  C   UNL     1      52.836   4.890  18.769  0.00  0.00    +0.000 C 
ATOM     14  C   UNL     1      51.901   5.053  19.953  0.00  0.00    +0.000 C 
ATOM     15  C   UNL     1      50.519   5.012  19.317  0.00  0.00    +0.000 C 
ATOM     16  C   UNL     1      50.714   4.219  18.024  0.00  0.00    +0.000 C 
BRANCH  12  17
ATOM     17  C   UNL     1      52.546   2.556  18.113  0.00  0.00    +0.000 C 
BRANCH  17  18
ATOM     18  C   UNL     1      51.614   1.517  17.447  0.00  0.00    +0.000 C 
BRANCH  18  19
ATOM     19  N   UNL     1      51.649   0.221  18.130  0.00  0.00    +0.000 NA
ATOM     20  H   UNL     1      51.414  -0.511  17.458  0.00  0.00    +0.000 HD
ATOM     21  H   UNL     1      50.922   0.192  18.843  0.00  0.00    +0.000 HD
ENDBRANCH  18  19
ENDBRANCH  17  18
ENDBRANCH  12  17
ENDBRANCH   8  15
ENDBRANCH   7  10
ENDBRANCH   1   7
BRANCH   4  22
ATOM     22  C   UNL     1      47.374   7.886  11.924  0.00  0.00    +0.000 C 
BRANCH  22  23
ATOM     23  N   UNL     1      46.714   6.628  11.673  0.00  0.00    +0.000 N 
ATOM     24  C   UNL     1      45.343   6.545  11.627  0.00  0.00    +0.000 C 
ATOM     25  O   UNL     1      44.628   7.536  11.745  0.00  0.00    +0.000 OA
ATOM     26  H   UNL     1      47.255   5.784  11.829  0.00  0.00    +0.000 HD
BRANCH  24  27
ATOM     27  C   UNL     1      44.777   5.215  11.368  0.00  0.00    +0.000 A 
ATOM     28  C   UNL     1      44.006   4.594  12.342  0.00  0.00    +0.000 A 
ATOM     29  S   UNL     1      43.411   3.066  11.873  0.00  0.00    +0.000 S 
ATOM     30  C   UNL     1      44.204   3.159  10.370  0.00  0.00    +0.000 A 
ATOM     31  N   UNL     1      44.136   2.132   9.478  0.00  0.00    +0.000 NA
ATOM     32  C   UNL     1      44.805   2.327   8.391  0.00  0.00    +0.000 A 
ATOM     33  N   UNL     1      45.529   3.458   8.110  0.00  0.00    +0.000 N 
ATOM     34  C   UNL     1      45.601   4.529   8.969  0.00  0.00    +0.000 A 
ATOM     35  O   UNL     1      46.219   5.547   8.665  0.00  0.00    +0.000 OA
ATOM     36  C   UNL     1      44.885   4.353  10.215  0.00  0.00    +0.000 A 
ATOM     37  H   UNL     1      46.018   3.553   7.233  0.00  0.00    +0.000 HD
ENDBRANCH  24  27
ENDBRANCH  22  23
ENDBRANCH   4  22
TORSDOF 9
ENDMDL
MODEL 6
REMARK VINA RESULT:    -6.393      3.883      6.055
REMARK INTER + INTRA:         -10.623
REMARK INTER:                  -9.730
REMARK INTRA:                  -0.893
REMARK UNBOUND:                -1.054
REMARK  Name = 
REMARK  9 active torsions:
REMARK  status: ('A' for Active; 'I' for Inactive)
REMARK    1  A    between atoms: N_1  and  C_2
REMARK    2  A    between atoms: C_2  and  C_3
REMARK    3  A    between atoms: C_3  and  N_4
REMARK    4  A    between atoms: C_7  and  C_8
REMARK    5  A    between atoms: N_10  and  C_11
REMARK    6  A    between atoms: C_11  and  C_12
REMARK    7  A    between atoms: C_15  and  C_16
REMARK    8  A    between atoms: C_16  and  N_17
REMARK    9  A    between atoms: C_18  and  C_20
REMARK                            x       y       z     vdW  Elec       q    Type
REMARK                         _______ _______ _______ _____ _____    ______ ____
ROOT
ATOM      1  C   UNL     1      45.512   6.000  12.687  0.00  0.00    +0.000 A 
ATOM      2  C   UNL     1      46.095   7.201  12.264  0.00  0.00    +0.000 A 
ATOM      3  C   UNL     1      47.362   7.578  12.720  0.00  0.00    +0.000 A 
ATOM      4  C   UNL     1      48.078   6.748  13.595  0.00  0.00    +0.000 A 
ATOM      5  C   UNL     1      47.498   5.539  14.004  0.00  0.00    +0.000 A 
ATOM      6  C   UNL     1      46.235   5.162  13.546  0.00  0.00    +0.000 A 
ENDROOT
BRANCH   1   7
ATOM      7  C   UNL     1      44.138   5.610  12.215  0.00  0.00    +0.000 C 
BRANCH   7  10
ATOM      8  C   UNL     1      44.417   3.899  10.495  0.00  0.00    +0.000 C 
ATOM      9  O   UNL     1      44.620   3.033  11.340  0.00  0.00    +0.000 OA
ATOM     10  N   UNL     1      44.151   5.206  10.830  0.00  0.00    +0.000 N 
ATOM     11  H   UNL     1      43.934   5.894  10.122  0.00  0.00    +0.000 HD
BRANCH   8  15
ATOM     12  N   UNL     1      46.427   3.143   7.744  0.00  0.00    +0.000 NA
ATOM     13  C   UNL     1      45.959   1.916   8.414  0.00  0.00    +0.000 C 
ATOM     14  C   UNL     1      44.480   2.139   8.669  0.00  0.00    +0.000 C 
ATOM     15  C   UNL     1      44.398   3.622   8.998  0.00  0.00    +0.000 C 
ATOM     16  C   UNL     1      45.617   4.236   8.306  0.00  0.00    +0.000 C 
BRANCH  12  17
ATOM     17  C   UNL     1      46.356   3.027   6.276  0.00  0.00    +0.000 C 
BRANCH  17  18
ATOM     18  C   UNL     1      47.602   2.366   5.644  0.00  0.00    +0.000 C 
BRANCH  18  19
ATOM     19  N   UNL     1      48.605   1.998   6.646  0.00  0.00    +0.000 NA
ATOM     20  H   UNL     1      48.202   2.121   7.576  0.00  0.00    +0.000 HD
ATOM     21  H   UNL     1      49.393   2.641   6.593  0.00  0.00    +0.000 HD
ENDBRANCH  18  19
ENDBRANCH  17  18
ENDBRANCH  12  17
ENDBRANCH   8  15
ENDBRANCH   7  10
ENDBRANCH   1   7
BRANCH   4  22
ATOM     22  C   UNL     1      49.425   7.156  14.132  0.00  0.00    +0.000 C 
BRANCH  22  23
ATOM     23  N   UNL     1      50.279   7.655  13.082  0.00  0.00    +0.000 N 
ATOM     24  C   UNL     1      51.369   8.439  13.368  0.00  0.00    +0.000 C 
ATOM     25  O   UNL     1      51.693   8.705  14.522  0.00  0.00    +0.000 OA
ATOM     26  H   UNL     1      49.895   7.666  12.142  0.00  0.00    +0.000 HD
BRANCH  24  27
ATOM     27  C   UNL     1      52.167   8.894  12.223  0.00  0.00    +0.000 A 
ATOM     28  C   UNL     1      53.469   8.437  12.064  0.00  0.00    +0.000 A 
ATOM     29  S   UNL     1      54.245   9.048  10.674  0.00  0.00    +0.000 S 
ATOM     30  C   UNL     1      52.885   9.984  10.260  0.00  0.00    +0.000 A 
ATOM     31  N   UNL     1      52.901  10.797   9.168  0.00  0.00    +0.000 NA
ATOM     32  C   UNL     1      51.812  11.468   8.989  0.00  0.00    +0.000 A 
ATOM     33  N   UNL     1      50.707  11.395   9.797  0.00  0.00    +0.000 N 
ATOM     34  C   UNL     1      50.637  10.567  10.893  0.00  0.00    +0.000 A 
ATOM     35  O   UNL     1      49.613  10.491  11.568  0.00  0.00    +0.000 OA
ATOM     36  C   UNL     1      51.842   9.807  11.153  0.00  0.00    +0.000 A 
ATOM     37  H   UNL     1      49.880  11.937   9.592  0.00  0.00    +0.000 HD
ENDBRANCH  24  27
ENDBRANCH  22  23
ENDBRANCH   4  22
TORSDOF 9
ENDMDL
MODEL 7
REMARK VINA RESULT:    -6.060      2.720      3.514
REMARK INTER + INTRA:         -10.125
REMARK INTER:                  -9.006
REMARK INTRA:                  -1.119
REMARK UNBOUND:                -1.054
REMARK  Name = 
REMARK  9 active torsions:
REMARK  status: ('A' for Active; 'I' for Inactive)
REMARK    1  A    between atoms: N_1  and  C_2
REMARK    2  A    between atoms: C_2  and  C_3
REMARK    3  A    between atoms: C_3  and  N_4
REMARK    4  A    between atoms: C_7  and  C_8
REMARK    5  A    between atoms: N_10  and  C_11
REMARK    6  A    between atoms: C_11  and  C_12
REMARK    7  A    between atoms: C_15  and  C_16
REMARK    8  A    between atoms: C_16  and  N_17
REMARK    9  A    between atoms: C_18  and  C_20
REMARK                            x       y       z     vdW  Elec       q    Type
REMARK                         _______ _______ _______ _____ _____    ______ ____
ROOT
ATOM      1  C   UNL     1      46.164   7.629  12.633  0.00  0.00    +0.000 A 
ATOM      2  C   UNL     1      47.063   6.555  12.646  0.00  0.00    +0.000 A 
ATOM      3  C   UNL     1      48.411   6.759  12.962  0.00  0.00    +0.000 A 
ATOM      4  C   UNL     1      48.878   8.039  13.291  0.00  0.00    +0.000 A 
ATOM      5  C   UNL     1      47.972   9.109  13.292  0.00  0.00    +0.000 A 
ATOM      6  C   UNL     1      46.627   8.905  12.979  0.00  0.00    +0.000 A 
ENDROOT
BRANCH   1   7
ATOM      7  C   UNL     1      44.721   7.411  12.267  0.00  0.00    +0.000 C 
BRANCH   7  10
ATOM      8  C   UNL     1      43.279   5.644  11.394  0.00  0.00    +0.000 C 
ATOM      9  O   UNL     1      42.274   6.211  11.813  0.00  0.00    +0.000 OA
ATOM     10  N   UNL     1      44.539   6.169  11.555  0.00  0.00    +0.000 N 
ATOM     11  H   UNL     1      45.351   5.716  11.158  0.00  0.00    +0.000 HD
BRANCH   8  15
ATOM     12  N   UNL     1      45.271   3.176   9.939  0.00  0.00    +0.000 NA
ATOM     13  C   UNL     1      44.974   2.858  11.348  0.00  0.00    +0.000 C 
ATOM     14  C   UNL     1      43.488   3.119  11.511  0.00  0.00    +0.000 C 
ATOM     15  C   UNL     1      43.243   4.331  10.625  0.00  0.00    +0.000 C 
ATOM     16  C   UNL     1      44.358   4.273   9.578  0.00  0.00    +0.000 C 
BRANCH  12  17
ATOM     17  C   UNL     1      45.166   1.988   9.074  0.00  0.00    +0.000 C 
BRANCH  17  18
ATOM     18  C   UNL     1      46.260   1.914   7.984  0.00  0.00    +0.000 C 
BRANCH  18  19
ATOM     19  N   UNL     1      46.775   0.554   7.805  0.00  0.00    +0.000 NA
ATOM     20  H   UNL     1      47.775   0.551   8.010  0.00  0.00    +0.000 HD
ATOM     21  H   UNL     1      46.688   0.283   6.826  0.00  0.00    +0.000 HD
ENDBRANCH  18  19
ENDBRANCH  17  18
ENDBRANCH  12  17
ENDBRANCH   8  15
ENDBRANCH   7  10
ENDBRANCH   1   7
BRANCH   4  22
ATOM     22  C   UNL     1      50.333   8.286  13.591  0.00  0.00    +0.000 C 
BRANCH  22  23
ATOM     23  N   UNL     1      50.859   7.288  14.490  0.00  0.00    +0.000 N 
ATOM     24  C   UNL     1      50.707   7.409  15.850  0.00  0.00    +0.000 C 
ATOM     25  O   UNL     1      50.079   8.336  16.353  0.00  0.00    +0.000 OA
ATOM     26  H   UNL     1      51.582   6.675  14.126  0.00  0.00    +0.000 HD
BRANCH  24  27
ATOM     27  C   UNL     1      51.286   6.338  16.670  0.00  0.00    +0.000 A 
ATOM     28  C   UNL     1      50.469   5.610  17.527  0.00  0.00    +0.000 A 
ATOM     29  S   UNL     1      51.295   4.393  18.391  0.00  0.00    +0.000 S 
ATOM     30  C   UNL     1      52.783   4.828  17.687  0.00  0.00    +0.000 A 
ATOM     31  N   UNL     1      53.934   4.189  18.032  0.00  0.00    +0.000 NA
ATOM     32  C   UNL     1      54.991   4.638  17.441  0.00  0.00    +0.000 A 
ATOM     33  N   UNL     1      54.999   5.662  16.528  0.00  0.00    +0.000 N 
ATOM     34  C   UNL     1      53.857   6.316  16.129  0.00  0.00    +0.000 A 
ATOM     35  O   UNL     1      53.895   7.197  15.274  0.00  0.00    +0.000 OA
ATOM     36  C   UNL     1      52.645   5.865  16.781  0.00  0.00    +0.000 A 
ATOM     37  H   UNL     1      55.860   5.956  16.090  0.00  0.00    +0.000 HD
ENDBRANCH  24  27
ENDBRANCH  22  23
ENDBRANCH   4  22
TORSDOF 9
ENDMDL
MODEL 8
REMARK VINA RESULT:    -6.032      4.137      9.466
REMARK INTER + INTRA:         -10.083
REMARK INTER:                  -8.985
REMARK INTRA:                  -1.098
REMARK UNBOUND:                -1.054
REMARK  Name = 
REMARK  9 active torsions:
REMARK  status: ('A' for Active; 'I' for Inactive)
REMARK    1  A    between atoms: N_1  and  C_2
REMARK    2  A    between atoms: C_2  and  C_3
REMARK    3  A    between atoms: C_3  and  N_4
REMARK    4  A    between atoms: C_7  and  C_8
REMARK    5  A    between atoms: N_10  and  C_11
REMARK    6  A    between atoms: C_11  and  C_12
REMARK    7  A    between atoms: C_15  and  C_16
REMARK    8  A    between atoms: C_16  and  N_17
REMARK    9  A    between atoms: C_18  and  C_20
REMARK                            x       y       z     vdW  Elec       q    Type
REMARK                         _______ _______ _______ _____ _____    ______ ____
ROOT
ATOM      1  C   UNL     1      49.872   5.776  18.525  0.00  0.00    +0.000 A 
ATOM      2  C   UNL     1      49.189   5.193  17.450  0.00  0.00    +0.000 A 
ATOM      3  C   UNL     1      48.900   5.938  16.302  0.00  0.00    +0.000 A 
ATOM      4  C   UNL     1      49.306   7.276  16.202  0.00  0.00    +0.000 A 
ATOM      5  C   UNL     1      50.003   7.851  17.273  0.00  0.00    +0.000 A 
ATOM      6  C   UNL     1      50.294   7.107  18.418  0.00  0.00    +0.000 A 
ENDROOT
BRANCH   1   7
ATOM      7  C   UNL     1      50.159   4.980  19.768  0.00  0.00    +0.000 C 
BRANCH   7  10
ATOM      8  C   UNL     1      52.502   4.310  19.920  0.00  0.00    +0.000 C 
ATOM      9  O   UNL     1      52.804   5.364  20.470  0.00  0.00    +0.000 OA
ATOM     10  N   UNL     1      51.211   4.018  19.548  0.00  0.00    +0.000 N 
ATOM     11  H   UNL     1      50.972   3.122  19.144  0.00  0.00    +0.000 HD
BRANCH   8  15
ATOM     12  N   UNL     1      54.011   2.487  17.354  0.00  0.00    +0.000 NA
ATOM     13  C   UNL     1      54.790   3.695  17.678  0.00  0.00    +0.000 C 
ATOM     14  C   UNL     1      54.863   3.731  19.193  0.00  0.00    +0.000 C 
ATOM     15  C   UNL     1      53.503   3.201  19.624  0.00  0.00    +0.000 C 
ATOM     16  C   UNL     1      53.039   2.336  18.450  0.00  0.00    +0.000 C 
BRANCH  12  17
ATOM     17  C   UNL     1      54.878   1.314  17.146  0.00  0.00    +0.000 C 
BRANCH  17  18
ATOM     18  C   UNL     1      54.123  -0.035  17.200  0.00  0.00    +0.000 C 
BRANCH  18  19
ATOM     19  N   UNL     1      54.190  -0.761  15.929  0.00  0.00    +0.000 NA
ATOM     20  H   UNL     1      54.852  -1.532  16.026  0.00  0.00    +0.000 HD
ATOM     21  H   UNL     1      54.573  -0.151  15.208  0.00  0.00    +0.000 HD
ENDBRANCH  18  19
ENDBRANCH  17  18
ENDBRANCH  12  17
ENDBRANCH   8  15
ENDBRANCH   7  10
ENDBRANCH   1   7
BRANCH   4  22
ATOM     22  C   UNL     1      48.966   8.107  14.993  0.00  0.00    +0.000 C 
BRANCH  22  23
ATOM     23  N   UNL     1      47.755   7.643  14.361  0.00  0.00    +0.000 N 
ATOM     24  C   UNL     1      47.800   6.847  13.243  0.00  0.00    +0.000 C 
ATOM     25  O   UNL     1      48.861   6.456  12.766  0.00  0.00    +0.000 OA
ATOM     26  H   UNL     1      46.901   8.149  14.574  0.00  0.00    +0.000 HD
BRANCH  24  27
ATOM     27  C   UNL     1      46.507   6.435  12.681  0.00  0.00    +0.000 A 
ATOM     28  C   UNL     1      45.661   7.390  12.130  0.00  0.00    +0.000 A 
ATOM     29  S   UNL     1      44.212   6.741  11.506  0.00  0.00    +0.000 S 
ATOM     30  C   UNL     1      44.643   5.168  11.994  0.00  0.00    +0.000 A 
ATOM     31  N   UNL     1      43.801   4.118  11.790  0.00  0.00    +0.000 NA
ATOM     32  C   UNL     1      44.244   2.988  12.233  0.00  0.00    +0.000 A 
ATOM     33  N   UNL     1      45.455   2.812  12.852  0.00  0.00    +0.000 N 
ATOM     34  C   UNL     1      46.347   3.839  13.053  0.00  0.00    +0.000 A 
ATOM     35  O   UNL     1      47.443   3.637  13.569  0.00  0.00    +0.000 OA
ATOM     36  C   UNL     1      45.889   5.134  12.594  0.00  0.00    +0.000 A 
ATOM     37  H   UNL     1      45.748   1.897  13.162  0.00  0.00    +0.000 HD
ENDBRANCH  24  27
ENDBRANCH  22  23
ENDBRANCH   4  22
TORSDOF 9
ENDMDL
MODEL 9
REMARK VINA RESULT:    -5.927      3.912      6.905
REMARK INTER + INTRA:          -9.926
REMARK INTER:                  -8.686
REMARK INTRA:                  -1.240
REMARK UNBOUND:                -1.054
REMARK  Name = 
REMARK  9 active torsions:
REMARK  status: ('A' for Active; 'I' for Inactive)
REMARK    1  A    between atoms: N_1  and  C_2
REMARK    2  A    between atoms: C_2  and  C_3
REMARK    3  A    between atoms: C_3  and  N_4
REMARK    4  A    between atoms: C_7  and  C_8
REMARK    5  A    between atoms: N_10  and  C_11
REMARK    6  A    between atoms: C_11  and  C_12
REMARK    7  A    between atoms: C_15  and  C_16
REMARK    8  A    between atoms: C_16  and  N_17
REMARK    9  A    between atoms: C_18  and  C_20
REMARK                            x       y       z     vdW  Elec       q    Type
REMARK                         _______ _______ _______ _____ _____    ______ ____
ROOT
ATOM      1  C   UNL     1      48.586   4.974  16.765  0.00  0.00    +0.000 A 
ATOM      2  C   UNL     1      49.582   4.193  17.366  0.00  0.00    +0.000 A 
ATOM      3  C   UNL     1      50.905   4.643  17.418  0.00  0.00    +0.000 A 
ATOM      4  C   UNL     1      51.252   5.894  16.888  0.00  0.00    +0.000 A 
ATOM      5  C   UNL     1      50.250   6.680  16.302  0.00  0.00    +0.000 A 
ATOM      6  C   UNL     1      48.929   6.231  16.251  0.00  0.00    +0.000 A 
ENDROOT
BRANCH   1   7
ATOM      7  C   UNL     1      47.169   4.476  16.687  0.00  0.00    +0.000 C 
BRANCH   7  10
ATOM      8  C   UNL     1      46.904   3.888  14.331  0.00  0.00    +0.000 C 
ATOM      9  O   UNL     1      47.638   2.913  14.456  0.00  0.00    +0.000 OA
ATOM     10  N   UNL     1      46.596   4.717  15.384  0.00  0.00    +0.000 N 
ATOM     11  H   UNL     1      45.948   5.484  15.275  0.00  0.00    +0.000 HD
BRANCH   8  15
ATOM     12  N   UNL     1      44.414   5.885  12.920  0.00  0.00    +0.000 NA
ATOM     13  C   UNL     1      45.706   6.593  12.957  0.00  0.00    +0.000 C 
ATOM     14  C   UNL     1      46.728   5.588  12.457  0.00  0.00    +0.000 C 
ATOM     15  C   UNL     1      46.227   4.267  13.021  0.00  0.00    +0.000 C 
ATOM     16  C   UNL     1      44.724   4.476  13.215  0.00  0.00    +0.000 C 
BRANCH  12  17
ATOM     17  C   UNL     1      43.708   6.097  11.644  0.00  0.00    +0.000 C 
BRANCH  17  18
ATOM     18  C   UNL     1      43.284   4.785  10.943  0.00  0.00    +0.000 C 
BRANCH  18  19
ATOM     19  N   UNL     1      43.648   4.770   9.524  0.00  0.00    +0.000 NA
ATOM     20  H   UNL     1      44.021   5.685   9.270  0.00  0.00    +0.000 HD
ATOM     21  H   UNL     1      42.810   4.640   8.959  0.00  0.00    +0.000 HD
ENDBRANCH  18  19
ENDBRANCH  17  18
ENDBRANCH  12  17
ENDBRANCH   8  15
ENDBRANCH   7  10
ENDBRANCH   1   7
BRANCH   4  22
ATOM     22  C   UNL     1      52.679   6.377  16.895  0.00  0.00    +0.000 C 
BRANCH  22  23
ATOM     23  N   UNL     1      53.119   6.732  15.569  0.00  0.00    +0.000 N 
ATOM     24  C   UNL     1      53.607   7.987  15.296  0.00  0.00    +0.000 C 
ATOM     25  O   UNL     1      53.736   8.837  16.172  0.00  0.00    +0.000 OA
ATOM     26  H   UNL     1      52.788   6.154  14.803  0.00  0.00    +0.000 HD
BRANCH  24  27
ATOM     27  C   UNL     1      54.023   8.240  13.912  0.00  0.00    +0.000 A 
ATOM     28  C   UNL     1      55.375   8.341  13.606  0.00  0.00    +0.000 A 
ATOM     29  S   UNL     1      55.684   8.617  11.952  0.00  0.00    +0.000 S 
ATOM     30  C   UNL     1      54.021   8.662  11.593  0.00  0.00    +0.000 A 
ATOM     31  N   UNL     1      53.584   8.907  10.326  0.00  0.00    +0.000 NA
ATOM     32  C   UNL     1      52.299   8.938  10.203  0.00  0.00    +0.000 A 
ATOM     33  N   UNL     1      51.411   8.738  11.229  0.00  0.00    +0.000 N 
ATOM     34  C   UNL     1      51.807   8.460  12.516  0.00  0.00    +0.000 A 
ATOM     35  O   UNL     1      50.984   8.239  13.401  0.00  0.00    +0.000 OA
ATOM     36  C   UNL     1      53.242   8.436  12.714  0.00  0.00    +0.000 A 
ATOM     37  H   UNL     1      50.416   8.761  11.062  0.00  0.00    +0.000 HD
ENDBRANCH  24  27
ENDBRANCH  22  23
ENDBRANCH   4  22
TORSDOF 9
ENDMDL
