MODEL 1
REMARK VINA RESULT:    -7.021      0.000      0.000
REMARK INTER + INTRA:         -11.523
REMARK INTER:                 -10.099
REMARK INTRA:                  -1.424
REMARK UNBOUND:                -1.424
REMARK  Name = 
REMARK  8 active torsions:
REMARK  status: ('A' for Active; 'I' for Inactive)
REMARK    1  A    between atoms: N_1  and  C_2
REMARK    2  A    between atoms: C_2  and  C_3
REMARK    3  A    between atoms: C_3  and  N_4
REMARK    4  A    between atoms: C_3  and  C_17
REMARK    5  A    between atoms: C_5  and  C_7
REMARK    6  A    between atoms: C_20  and  C_21
REMARK    7  A    between atoms: C_21  and  N_22
REMARK    8  A    between atoms: C_23  and  C_25
REMARK                            x       y       z     vdW  Elec       q    Type
REMARK                         _______ _______ _______ _____ _____    ______ ____
ROOT
ATOM      1  C   UNL     1      48.368   7.134  14.016  0.00  0.00    +0.000 C 
ENDROOT
BRANCH   1   2
ATOM      2  C   UNL     1      47.274   6.539  13.123  0.00  0.00    +0.000 A 
ATOM      3  C   UNL     1      46.437   5.525  13.608  0.00  0.00    +0.000 A 
ATOM      4  C   UNL     1      45.425   4.981  12.805  0.00  0.00    +0.000 A 
ATOM      5  C   UNL     1      45.220   5.434  11.495  0.00  0.00    +0.000 A 
ATOM      6  C   UNL     1      46.038   6.465  11.014  0.00  0.00    +0.000 A 
ATOM      7  C   UNL     1      47.053   7.003  11.813  0.00  0.00    +0.000 A 
BRANCH   5   8
ATOM      8  C   UNL     1      44.180   4.794  10.611  0.00  0.00    +0.000 C 
BRANCH   8   9
ATOM      9  N   UNL     1      44.658   4.461   9.284  0.00  0.00    +0.000 N 
ATOM     10  C   UNL     1      45.143   3.191   9.062  0.00  0.00    +0.000 C 
ATOM     11  O   UNL     1      45.319   2.394   9.985  0.00  0.00    +0.000 OA
ATOM     12  H   UNL     1      44.313   5.005   8.500  0.00  0.00    +0.000 HD
BRANCH  10  13
ATOM     13  C   UNL     1      45.464   2.782   7.632  0.00  0.00    +0.000 C 
ATOM     14  C   UNL     1      46.122   1.431   7.492  0.00  0.00    +0.000 C 
ATOM     15  C   UNL     1      47.598   1.742   7.349  0.00  0.00    +0.000 C 
ATOM     16  O   UNL     1      47.729   3.126   7.012  0.00  0.00    +0.000 OA
ATOM     17  C   UNL     1      46.430   3.729   6.957  0.00  0.00    +0.000 C 
ENDBRANCH  10  13
ENDBRANCH   8   9
ENDBRANCH   5   8
ENDBRANCH   1   2
BRANCH   1  18
ATOM     18  N   UNL     1      48.266   6.522  15.335  0.00  0.00    +0.000 N 
ATOM     19  C   UNL     1      49.341   6.243  16.137  0.00  0.00    +0.000 C 
ATOM     20  O   UNL     1      50.502   6.387  15.772  0.00  0.00    +0.000 OA
ATOM     21  H   UNL     1      47.335   6.468  15.722  0.00  0.00    +0.000 HD
BRANCH  19  22
ATOM     22  C   UNL     1      49.013   5.706  17.465  0.00  0.00    +0.000 A 
ATOM     23  C   UNL     1      49.232   4.367  17.757  0.00  0.00    +0.000 A 
ATOM     24  S   UNL     1      48.694   3.912  19.312  0.00  0.00    +0.000 S 
ATOM     25  C   UNL     1      48.195   5.502  19.665  0.00  0.00    +0.000 A 
ATOM     26  N   UNL     1      47.613   5.810  20.854  0.00  0.00    +0.000 NA
ATOM     27  C   UNL     1      47.311   7.059  20.994  0.00  0.00    +0.000 A 
ATOM     28  N   UNL     1      47.558   8.030  20.060  0.00  0.00    +0.000 N 
ATOM     29  C   UNL     1      48.157   7.770  18.855  0.00  0.00    +0.000 A 
ATOM     30  O   UNL     1      48.390   8.670  18.057  0.00  0.00    +0.000 OA
ATOM     31  C   UNL     1      48.465   6.370  18.625  0.00  0.00    +0.000 A 
ATOM     32  H   UNL     1      47.317   8.995  20.238  0.00  0.00    +0.000 HD
ENDBRANCH  19  22
ENDBRANCH   1  18
BRANCH   1  33
ATOM     33  C   UNL     1      48.305   8.691  14.096  0.00  0.00    +0.000 C 
BRANCH  33  34
ATOM     34  N   UNL     1      47.455   9.209  15.176  0.00  0.00    +0.000 NA
ATOM     35  H   UNL     1      46.712   8.536  15.360  0.00  0.00    +0.000 HD
ATOM     36  H   UNL     1      47.000  10.067  14.866  0.00  0.00    +0.000 HD
ENDBRANCH  33  34
ENDBRANCH   1  33
TORSDOF 8
ENDMDL
MODEL 2
REMARK VINA RESULT:    -6.790      1.735      2.052
REMARK INTER + INTRA:         -11.191
REMARK INTER:                  -9.905
REMARK INTRA:                  -1.286
REMARK UNBOUND:                -1.424
REMARK  Name = 
REMARK  8 active torsions:
REMARK  status: ('A' for Active; 'I' for Inactive)
REMARK    1  A    between atoms: N_1  and  C_2
REMARK    2  A    between atoms: C_2  and  C_3
REMARK    3  A    between atoms: C_3  and  N_4
REMARK    4  A    between atoms: C_3  and  C_17
REMARK    5  A    between atoms: C_5  and  C_7
REMARK    6  A    between atoms: C_20  and  C_21
REMARK    7  A    between atoms: C_21  and  N_22
REMARK    8  A    between atoms: C_23  and  C_25
REMARK                            x       y       z     vdW  Elec       q    Type
REMARK                         _______ _______ _______ _____ _____    ______ ____
ROOT
ATOM      1  C   UNL     1      49.197   6.925  13.740  0.00  0.00    +0.000 C 
ENDROOT
BRANCH   1   2
ATOM      2  C   UNL     1      47.837   6.561  13.134  0.00  0.00    +0.000 A 
ATOM      3  C   UNL     1      47.000   5.639  13.777  0.00  0.00    +0.000 A 
ATOM      4  C   UNL     1      45.748   5.306  13.240  0.00  0.00    +0.000 A 
ATOM      5  C   UNL     1      45.298   5.885  12.046  0.00  0.00    +0.000 A 
ATOM      6  C   UNL     1      46.121   6.825  11.413  0.00  0.00    +0.000 A 
ATOM      7  C   UNL     1      47.373   7.153  11.945  0.00  0.00    +0.000 A 
BRANCH   5   8
ATOM      8  C   UNL     1      43.985   5.467  11.434  0.00  0.00    +0.000 C 
BRANCH   8   9
ATOM      9  N   UNL     1      44.115   4.829  10.139  0.00  0.00    +0.000 N 
ATOM     10  C   UNL     1      44.462   3.496  10.098  0.00  0.00    +0.000 C 
ATOM     11  O   UNL     1      44.808   2.885  11.110  0.00  0.00    +0.000 OA
ATOM     12  H   UNL     1      43.625   5.238   9.352  0.00  0.00    +0.000 HD
BRANCH  10  13
ATOM     13  C   UNL     1      44.411   2.780   8.756  0.00  0.00    +0.000 C 
ATOM     14  C   UNL     1      45.153   1.466   8.711  0.00  0.00    +0.000 C 
ATOM     15  C   UNL     1      46.483   1.805   8.068  0.00  0.00    +0.000 C 
ATOM     16  O   UNL     1      46.354   3.076   7.425  0.00  0.00    +0.000 OA
ATOM     17  C   UNL     1      45.031   3.586   7.639  0.00  0.00    +0.000 C 
ENDBRANCH  10  13
ENDBRANCH   8   9
ENDBRANCH   5   8
ENDBRANCH   1   2
BRANCH   1  18
ATOM     18  N   UNL     1      49.007   7.206  15.157  0.00  0.00    +0.000 N 
ATOM     19  C   UNL     1      49.980   7.047  16.109  0.00  0.00    +0.000 C 
ATOM     20  O   UNL     1      51.074   6.549  15.868  0.00  0.00    +0.000 OA
ATOM     21  H   UNL     1      48.162   7.704  15.396  0.00  0.00    +0.000 HD
BRANCH  19  22
ATOM     22  C   UNL     1      49.609   7.470  17.465  0.00  0.00    +0.000 A 
ATOM     23  C   UNL     1      50.153   8.622  18.017  0.00  0.00    +0.000 A 
ATOM     24  S   UNL     1      49.681   8.891  19.636  0.00  0.00    +0.000 S 
ATOM     25  C   UNL     1      48.694   7.503  19.636  0.00  0.00    +0.000 A 
ATOM     26  N   UNL     1      48.004   7.130  20.747  0.00  0.00    +0.000 NA
ATOM     27  C   UNL     1      47.276   6.073  20.594  0.00  0.00    +0.000 A 
ATOM     28  N   UNL     1      47.161   5.367  19.425  0.00  0.00    +0.000 N 
ATOM     29  C   UNL     1      47.824   5.715  18.277  0.00  0.00    +0.000 A 
ATOM     30  O   UNL     1      47.673   5.077  17.242  0.00  0.00    +0.000 OA
ATOM     31  C   UNL     1      48.700   6.864  18.411  0.00  0.00    +0.000 A 
ATOM     32  H   UNL     1      46.558   4.560  19.363  0.00  0.00    +0.000 HD
ENDBRANCH  19  22
ENDBRANCH   1  18
BRANCH   1  33
ATOM     33  C   UNL     1      49.889   8.114  13.004  0.00  0.00    +0.000 C 
BRANCH  33  34
ATOM     34  N   UNL     1      51.344   7.974  12.860  0.00  0.00    +0.000 NA
ATOM     35  H   UNL     1      51.780   8.126  13.769  0.00  0.00    +0.000 HD
ATOM     36  H   UNL     1      51.696   8.708  12.244  0.00  0.00    +0.000 HD
ENDBRANCH  33  34
ENDBRANCH   1  33
TORSDOF 8
ENDMDL
MODEL 3
REMARK VINA RESULT:    -6.700      2.403      3.475
REMARK INTER + INTRA:         -11.062
REMARK INTER:                  -9.576
REMARK INTRA:                  -1.486
REMARK UNBOUND:                -1.424
REMARK  Name = 
REMARK  8 active torsions:
REMARK  status: ('A' for Active; 'I' for Inactive)
REMARK    1  A    between atoms: N_1  and  C_2
REMARK    2  A    between atoms: C_2  and  C_3
REMARK    3  A    between atoms: C_3  and  N_4
REMARK    4  A    between atoms: C_3  and  C_17
REMARK    5  A    between atoms: C_5  and  C_7
REMARK    6  A    between atoms: C_20  and  C_21
REMARK    7  A    between atoms: C_21  and  N_22
REMARK    8  A    between atoms: C_23  and  C_25
REMARK                            x       y       z     vdW  Elec       q    Type
REMARK                         _______ _______ _______ _____ _____    ______ ____
ROOT
ATOM      1  C   UNL     1      47.151   4.261  15.726  0.00  0.00    +0.000 C 
ENDROOT
BRANCH   1   2
ATOM      2  C   UNL     1      46.743   4.693  14.313  0.00  0.00    +0.000 A 
ATOM      3  C   UNL     1      45.824   3.933  13.578  0.00  0.00    +0.000 A 
ATOM      4  C   UNL     1      45.432   4.324  12.290  0.00  0.00    +0.000 A 
ATOM      5  C   UNL     1      45.948   5.485  11.700  0.00  0.00    +0.000 A 
ATOM      6  C   UNL     1      46.850   6.262  12.440  0.00  0.00    +0.000 A 
ATOM      7  C   UNL     1      47.245   5.868  13.723  0.00  0.00    +0.000 A 
BRANCH   5   8
ATOM      8  C   UNL     1      45.582   5.860  10.286  0.00  0.00    +0.000 C 
BRANCH   8   9
ATOM      9  N   UNL     1      45.099   4.751   9.488  0.00  0.00    +0.000 N 
ATOM     10  C   UNL     1      45.826   4.375   8.381  0.00  0.00    +0.000 C 
ATOM     11  O   UNL     1      46.777   5.045   7.972  0.00  0.00    +0.000 OA
ATOM     12  H   UNL     1      44.482   4.077   9.929  0.00  0.00    +0.000 HD
BRANCH  10  13
ATOM     13  C   UNL     1      45.428   3.098   7.656  0.00  0.00    +0.000 C 
ATOM     14  C   UNL     1      45.821   1.822   8.360  0.00  0.00    +0.000 C 
ATOM     15  C   UNL     1      47.095   1.384   7.668  0.00  0.00    +0.000 C 
ATOM     16  O   UNL     1      47.192   2.091   6.428  0.00  0.00    +0.000 OA
ATOM     17  C   UNL     1      46.071   2.974   6.294  0.00  0.00    +0.000 C 
ENDBRANCH  10  13
ENDBRANCH   8   9
ENDBRANCH   5   8
ENDBRANCH   1   2
BRANCH   1  18
ATOM     18  N   UNL     1      47.933   5.334  16.325  0.00  0.00    +0.000 N 
ATOM     19  C   UNL     1      47.886   5.670  17.653  0.00  0.00    +0.000 C 
ATOM     20  O   UNL     1      47.096   5.162  18.442  0.00  0.00    +0.000 OA
ATOM     21  H   UNL     1      48.664   5.721  15.746  0.00  0.00    +0.000 HD
BRANCH  19  22
ATOM     22  C   UNL     1      48.819   6.725  18.070  0.00  0.00    +0.000 A 
ATOM     23  C   UNL     1      48.356   7.850  18.739  0.00  0.00    +0.000 A 
ATOM     24  S   UNL     1      49.573   9.007  19.048  0.00  0.00    +0.000 S 
ATOM     25  C   UNL     1      50.768   8.020  18.341  0.00  0.00    +0.000 A 
ATOM     26  N   UNL     1      52.061   8.432  18.254  0.00  0.00    +0.000 NA
ATOM     27  C   UNL     1      52.861   7.570  17.719  0.00  0.00    +0.000 A 
ATOM     28  N   UNL     1      52.490   6.326  17.282  0.00  0.00    +0.000 N 
ATOM     29  C   UNL     1      51.202   5.861  17.364  0.00  0.00    +0.000 A 
ATOM     30  O   UNL     1      50.913   4.731  16.991  0.00  0.00    +0.000 OA
ATOM     31  C   UNL     1      50.251   6.815  17.907  0.00  0.00    +0.000 A 
ATOM     32  H   UNL     1      53.168   5.688  16.892  0.00  0.00    +0.000 HD
ENDBRANCH  19  22
ENDBRANCH   1  18
BRANCH   1  33
ATOM     33  C   UNL     1      47.923   2.905  15.744  0.00  0.00    +0.000 C 
BRANCH  33  34
ATOM     34  N   UNL     1      48.600   2.609  17.014  0.00  0.00    +0.000 NA
ATOM     35  H   UNL     1      48.042   2.985  17.779  0.00  0.00    +0.000 HD
ATOM     36  H   UNL     1      49.495   3.098  17.042  0.00  0.00    +0.000 HD
ENDBRANCH  33  34
ENDBRANCH   1  33
TORSDOF 8
ENDMDL
MODEL 4
REMARK VINA RESULT:    -6.682      3.918      5.822
REMARK INTER + INTRA:         -11.036
REMARK INTER:                  -9.535
REMARK INTRA:                  -1.501
REMARK UNBOUND:                -1.424
REMARK  Name = 
REMARK  8 active torsions:
REMARK  status: ('A' for Active; 'I' for Inactive)
REMARK    1  A    between atoms: N_1  and  C_2
REMARK    2  A    between atoms: C_2  and  C_3
REMARK    3  A    between atoms: C_3  and  N_4
REMARK    4  A    between atoms: C_3  and  C_17
REMARK    5  A    between atoms: C_5  and  C_7
REMARK    6  A    between atoms: C_20  and  C_21
REMARK    7  A    between atoms: C_21  and  N_22
REMARK    8  A    between atoms: C_23  and  C_25
REMARK                            x       y       z     vdW  Elec       q    Type
REMARK                         _______ _______ _______ _____ _____    ______ ____
ROOT
ATOM      1  C   UNL     1      48.984   4.497  17.753  0.00  0.00    +0.000 C 
ENDROOT
BRANCH   1   2
ATOM      2  C   UNL     1      48.466   4.993  16.398  0.00  0.00    +0.000 A 
ATOM      3  C   UNL     1      47.479   4.275  15.712  0.00  0.00    +0.000 A 
ATOM      4  C   UNL     1      46.988   4.724  14.477  0.00  0.00    +0.000 A 
ATOM      5  C   UNL     1      47.468   5.904  13.895  0.00  0.00    +0.000 A 
ATOM      6  C   UNL     1      48.438   6.639  14.590  0.00  0.00    +0.000 A 
ATOM      7  C   UNL     1      48.933   6.187  15.818  0.00  0.00    +0.000 A 
BRANCH   5   8
ATOM      8  C   UNL     1      46.992   6.342  12.534  0.00  0.00    +0.000 C 
BRANCH   8   9
ATOM      9  N   UNL     1      45.993   5.469  11.950  0.00  0.00    +0.000 N 
ATOM     10  C   UNL     1      44.810   6.025  11.516  0.00  0.00    +0.000 C 
ATOM     11  O   UNL     1      44.523   7.201  11.748  0.00  0.00    +0.000 OA
ATOM     12  H   UNL     1      46.300   4.586  11.557  0.00  0.00    +0.000 HD
BRANCH  10  13
ATOM     13  C   UNL     1      43.846   5.146  10.732  0.00  0.00    +0.000 C 
ATOM     14  C   UNL     1      42.884   4.350  11.580  0.00  0.00    +0.000 C 
ATOM     15  C   UNL     1      43.503   2.969  11.659  0.00  0.00    +0.000 C 
ATOM     16  O   UNL     1      44.485   2.863  10.624  0.00  0.00    +0.000 OA
ATOM     17  C   UNL     1      44.552   4.100   9.902  0.00  0.00    +0.000 C 
ENDBRANCH  10  13
ENDBRANCH   8   9
ENDBRANCH   5   8
ENDBRANCH   1   2
BRANCH   1  18
ATOM     18  N   UNL     1      50.383   4.121  17.598  0.00  0.00    +0.000 N 
ATOM     19  C   UNL     1      51.316   4.203  18.598  0.00  0.00    +0.000 C 
ATOM     20  O   UNL     1      51.079   4.704  19.692  0.00  0.00    +0.000 OA
ATOM     21  H   UNL     1      50.612   3.618  16.753  0.00  0.00    +0.000 HD
BRANCH  19  22
ATOM     22  C   UNL     1      52.650   3.691  18.260  0.00  0.00    +0.000 A 
ATOM     23  C   UNL     1      53.773   4.494  18.413  0.00  0.00    +0.000 A 
ATOM     24  S   UNL     1      55.215   3.758  17.872  0.00  0.00    +0.000 S 
ATOM     25  C   UNL     1      54.394   2.324  17.458  0.00  0.00    +0.000 A 
ATOM     26  N   UNL     1      55.051   1.270  16.906  0.00  0.00    +0.000 NA
ATOM     27  C   UNL     1      54.308   0.240  16.670  0.00  0.00    +0.000 A 
ATOM     28  N   UNL     1      52.970   0.162  16.955  0.00  0.00    +0.000 N 
ATOM     29  C   UNL     1      52.268   1.192  17.526  0.00  0.00    +0.000 A 
ATOM     30  O   UNL     1      51.079   1.075  17.795  0.00  0.00    +0.000 OA
ATOM     31  C   UNL     1      53.048   2.395  17.760  0.00  0.00    +0.000 A 
ATOM     32  H   UNL     1      52.447  -0.680  16.766  0.00  0.00    +0.000 HD
ENDBRANCH  19  22
ENDBRANCH   1  18
BRANCH   1  33
ATOM     33  C   UNL     1      48.132   3.326  18.335  0.00  0.00    +0.000 C 
BRANCH  33  34
ATOM     34  N   UNL     1      48.275   3.135  19.784  0.00  0.00    +0.000 NA
ATOM     35  H   UNL     1      49.110   2.579  19.961  0.00  0.00    +0.000 HD
ATOM     36  H   UNL     1      47.485   2.591  20.133  0.00  0.00    +0.000 HD
ENDBRANCH  33  34
ENDBRANCH   1  33
TORSDOF 8
ENDMDL
MODEL 5
REMARK VINA RESULT:    -6.646      3.904      8.842
REMARK INTER + INTRA:         -10.984
REMARK INTER:                  -9.639
REMARK INTRA:                  -1.345
REMARK UNBOUND:                -1.424
REMARK  Name = 
REMARK  8 active torsions:
REMARK  status: ('A' for Active; 'I' for Inactive)
REMARK    1  A    between atoms: N_1  and  C_2
REMARK    2  A    between atoms: C_2  and  C_3
REMARK    3  A    between atoms: C_3  and  N_4
REMARK    4  A    between atoms: C_3  and  C_17
REMARK    5  A    between atoms: C_5  and  C_7
REMARK    6  A    between atoms: C_20  and  C_21
REMARK    7  A    between atoms: C_21  and  N_22
REMARK    8  A    between atoms: C_23  and  C_25
REMARK                            x       y       z     vdW  Elec       q    Type
REMARK                         _______ _______ _______ _____ _____    ______ ____
ROOT
ATOM      1  C   UNL     1      48.058   7.074  14.028  0.00  0.00    +0.000 C 
ENDROOT
BRANCH   1   2
ATOM      2  C   UNL     1      48.495   6.211  15.217  0.00  0.00    +0.000 A 
ATOM      3  C   UNL     1      49.612   6.572  15.981  0.00  0.00    +0.000 A 
ATOM      4  C   UNL     1      50.016   5.798  17.079  0.00  0.00    +0.000 A 
ATOM      5  C   UNL     1      49.315   4.641  17.443  0.00  0.00    +0.000 A 
ATOM      6  C   UNL     1      48.183   4.289  16.697  0.00  0.00    +0.000 A 
ATOM      7  C   UNL     1      47.784   5.058  15.598  0.00  0.00    +0.000 A 
BRANCH   5   8
ATOM      8  C   UNL     1      49.797   3.772  18.576  0.00  0.00    +0.000 C 
BRANCH   8   9
ATOM      9  N   UNL     1      51.202   3.425  18.497  0.00  0.00    +0.000 N 
ATOM     10  C   UNL     1      51.560   2.302  17.784  0.00  0.00    +0.000 C 
ATOM     11  O   UNL     1      50.717   1.515  17.350  0.00  0.00    +0.000 OA
ATOM     12  H   UNL     1      51.886   4.160  18.641  0.00  0.00    +0.000 HD
BRANCH  10  13
ATOM     13  C   UNL     1      53.040   2.045  17.540  0.00  0.00    +0.000 C 
ATOM     14  C   UNL     1      53.378   0.631  17.135  0.00  0.00    +0.000 C 
ATOM     15  C   UNL     1      53.849  -0.027  18.416  0.00  0.00    +0.000 C 
ATOM     16  O   UNL     1      54.156   1.005  19.358  0.00  0.00    +0.000 OA
ATOM     17  C   UNL     1      53.885   2.284  18.769  0.00  0.00    +0.000 C 
ENDBRANCH  10  13
ENDBRANCH   8   9
ENDBRANCH   5   8
ENDBRANCH   1   2
BRANCH   1  18
ATOM     18  N   UNL     1      47.324   6.229  13.094  0.00  0.00    +0.000 N 
ATOM     19  C   UNL     1      46.361   6.690  12.236  0.00  0.00    +0.000 C 
ATOM     20  O   UNL     1      45.951   7.846  12.251  0.00  0.00    +0.000 OA
ATOM     21  H   UNL     1      47.683   5.293  12.974  0.00  0.00    +0.000 HD
BRANCH  19  22
ATOM     22  C   UNL     1      45.805   5.689  11.317  0.00  0.00    +0.000 A 
ATOM     23  C   UNL     1      46.002   5.805   9.947  0.00  0.00    +0.000 A 
ATOM     24  S   UNL     1      45.196   4.605   9.039  0.00  0.00    +0.000 S 
ATOM     25  C   UNL     1      44.596   3.862  10.450  0.00  0.00    +0.000 A 
ATOM     26  N   UNL     1      43.793   2.767  10.383  0.00  0.00    +0.000 NA
ATOM     27  C   UNL     1      43.436   2.295  11.531  0.00  0.00    +0.000 A 
ATOM     28  N   UNL     1      43.827   2.806  12.741  0.00  0.00    +0.000 N 
ATOM     29  C   UNL     1      44.648   3.897  12.858  0.00  0.00    +0.000 A 
ATOM     30  O   UNL     1      45.001   4.308  13.957  0.00  0.00    +0.000 OA
ATOM     31  C   UNL     1      45.032   4.501  11.594  0.00  0.00    +0.000 A 
ATOM     32  H   UNL     1      43.531   2.377  13.606  0.00  0.00    +0.000 HD
ENDBRANCH  19  22
ENDBRANCH   1  18
BRANCH   1  33
ATOM     33  C   UNL     1      49.253   7.799  13.335  0.00  0.00    +0.000 C 
BRANCH  33  34
ATOM     34  N   UNL     1      50.023   6.953  12.413  0.00  0.00    +0.000 NA
ATOM     35  H   UNL     1      49.576   6.039  12.354  0.00  0.00    +0.000 HD
ATOM     36  H   UNL     1      50.955   6.795  12.798  0.00  0.00    +0.000 HD
ENDBRANCH  33  34
ENDBRANCH   1  33
TORSDOF 8
ENDMDL
MODEL 6
REMARK VINA RESULT:    -6.604      1.688      2.325
REMARK INTER + INTRA:         -10.924
REMARK INTER:                  -9.942
REMARK INTRA:                  -0.983
REMARK UNBOUND:                -1.424
REMARK  Name = 
REMARK  8 active torsions:
REMARK  status: ('A' for Active; 'I' for Inactive)
REMARK    1  A    between atoms: N_1  and  C_2
REMARK    2  A    between atoms: C_2  and  C_3
REMARK    3  A    between atoms: C_3  and  N_4
REMARK    4  A    between atoms: C_3  and  C_17
REMARK    5  A    between atoms: C_5  and  C_7
REMARK    6  A    between atoms: C_20  and  C_21
REMARK    7  A    between atoms: C_21  and  N_22
REMARK    8  A    between atoms: C_23  and  C_25
REMARK                            x       y       z     vdW  Elec       q    Type
REMARK                         _______ _______ _______ _____ _____    ______ ____
ROOT
ATOM      1  C   UNL     1      48.739   6.925  13.866  0.00  0.00    +0.000 C 
ENDROOT
BRANCH   1   2
ATOM      2  C   UNL     1      47.482   6.468  13.119  0.00  0.00    +0.000 A 
ATOM      3  C   UNL     1      47.208   6.952  11.833  0.00  0.00    +0.000 A 
ATOM      4  C   UNL     1      46.067   6.533  11.133  0.00  0.00    +0.000 A 
ATOM      5  C   UNL     1      45.168   5.619  11.699  0.00  0.00    +0.000 A 
ATOM      6  C   UNL     1      45.451   5.114  12.975  0.00  0.00    +0.000 A 
ATOM      7  C   UNL     1      46.585   5.537  13.676  0.00  0.00    +0.000 A 
BRANCH   5   8
ATOM      8  C   UNL     1      43.905   5.230  10.973  0.00  0.00    +0.000 C 
BRANCH   8   9
ATOM      9  N   UNL     1      44.135   4.554   9.712  0.00  0.00    +0.000 N 
ATOM     10  C   UNL     1      44.569   3.247   9.739  0.00  0.00    +0.000 C 
ATOM     11  O   UNL     1      44.908   2.698  10.789  0.00  0.00    +0.000 OA
ATOM     12  H   UNL     1      43.654   4.900   8.889  0.00  0.00    +0.000 HD
BRANCH  10  13
ATOM     13  C   UNL     1      44.625   2.479   8.426  0.00  0.00    +0.000 C 
ATOM     14  C   UNL     1      45.596   1.323   8.409  0.00  0.00    +0.000 C 
ATOM     15  C   UNL     1      46.828   1.873   7.720  0.00  0.00    +0.000 C 
ATOM     16  O   UNL     1      46.454   3.072   7.035  0.00  0.00    +0.000 OA
ATOM     17  C   UNL     1      45.065   3.340   7.264  0.00  0.00    +0.000 C 
ENDBRANCH  10  13
ENDBRANCH   8   9
ENDBRANCH   5   8
ENDBRANCH   1   2
BRANCH   1  18
ATOM     18  N   UNL     1      48.359   7.283  15.226  0.00  0.00    +0.000 N 
ATOM     19  C   UNL     1      49.065   6.918  16.343  0.00  0.00    +0.000 C 
ATOM     20  O   UNL     1      50.030   6.161  16.304  0.00  0.00    +0.000 OA
ATOM     21  H   UNL     1      47.632   7.978  15.311  0.00  0.00    +0.000 HD
BRANCH  19  22
ATOM     22  C   UNL     1      48.560   7.456  17.612  0.00  0.00    +0.000 A 
ATOM     23  C   UNL     1      48.429   6.633  18.723  0.00  0.00    +0.000 A 
ATOM     24  S   UNL     1      47.730   7.415  20.070  0.00  0.00    +0.000 S 
ATOM     25  C   UNL     1      47.624   8.892  19.228  0.00  0.00    +0.000 A 
ATOM     26  N   UNL     1      47.085   9.997  19.809  0.00  0.00    +0.000 NA
ATOM     27  C   UNL     1      47.095  11.052  19.062  0.00  0.00    +0.000 A 
ATOM     28  N   UNL     1      47.613  11.106  17.795  0.00  0.00    +0.000 N 
ATOM     29  C   UNL     1      48.181  10.023  17.175  0.00  0.00    +0.000 A 
ATOM     30  O   UNL     1      48.662  10.117  16.053  0.00  0.00    +0.000 OA
ATOM     31  C   UNL     1      48.144   8.797  17.952  0.00  0.00    +0.000 A 
ATOM     32  H   UNL     1      47.611  11.968  17.269  0.00  0.00    +0.000 HD
ENDBRANCH  19  22
ENDBRANCH   1  18
BRANCH   1  33
ATOM     33  C   UNL     1      49.480   8.095  13.147  0.00  0.00    +0.000 C 
BRANCH  33  34
ATOM     34  N   UNL     1      50.662   7.684  12.378  0.00  0.00    +0.000 NA
ATOM     35  H   UNL     1      51.355   8.430  12.417  0.00  0.00    +0.000 HD
ATOM     36  H   UNL     1      50.407   7.576  11.397  0.00  0.00    +0.000 HD
ENDBRANCH  33  34
ENDBRANCH   1  33
TORSDOF 8
ENDMDL
MODEL 7
REMARK VINA RESULT:    -6.508      2.884      4.057
REMARK INTER + INTRA:         -10.785
REMARK INTER:                  -9.115
REMARK INTRA:                  -1.670
REMARK UNBOUND:                -1.424
REMARK  Name = 
REMARK  8 active torsions:
REMARK  status: ('A' for Active; 'I' for Inactive)
REMARK    1  A    between atoms: N_1  and  C_2
REMARK    2  A    between atoms: C_2  and  C_3
REMARK    3  A    between atoms: C_3  and  N_4
REMARK    4  A    between atoms: C_3  and  C_17
REMARK    5  A    between atoms: C_5  and  C_7
REMARK    6  A    between atoms: C_20  and  C_21
REMARK    7  A    between atoms: C_21  and  N_22
REMARK    8  A    between atoms: C_23  and  C_25
REMARK                            x       y       z     vdW  Elec       q    Type
REMARK                         _______ _______ _______ _____ _____    ______ ____
ROOT
ATOM      1  C   UNL     1      47.595   4.745  16.084  0.00  0.00    +0.000 C 
ENDROOT
BRANCH   1   2
ATOM      2  C   UNL     1      47.116   5.085  14.668  0.00  0.00    +0.000 A 
ATOM      3  C   UNL     1      47.680   6.160  13.969  0.00  0.00    +0.000 A 
ATOM      4  C   UNL     1      47.259   6.475  12.669  0.00  0.00    +0.000 A 
ATOM      5  C   UNL     1      46.263   5.724  12.031  0.00  0.00    +0.000 A 
ATOM      6  C   UNL     1      45.713   4.633  12.717  0.00  0.00    +0.000 A 
ATOM      7  C   UNL     1      46.128   4.323  14.017  0.00  0.00    +0.000 A 
BRANCH   5   8
ATOM      8  C   UNL     1      45.762   6.112  10.664  0.00  0.00    +0.000 C 
BRANCH   8   9
ATOM      9  N   UNL     1      45.764   5.025   9.705  0.00  0.00    +0.000 N 
ATOM     10  C   UNL     1      44.560   4.455   9.357  0.00  0.00    +0.000 C 
ATOM     11  O   UNL     1      43.515   4.739   9.945  0.00  0.00    +0.000 OA
ATOM     12  H   UNL     1      46.551   4.949   9.069  0.00  0.00    +0.000 HD
BRANCH  10  13
ATOM     13  C   UNL     1      44.541   3.450   8.214  0.00  0.00    +0.000 C 
ATOM     14  C   UNL     1      44.557   2.003   8.643  0.00  0.00    +0.000 C 
ATOM     15  C   UNL     1      46.006   1.583   8.504  0.00  0.00    +0.000 C 
ATOM     16  O   UNL     1      46.671   2.548   7.682  0.00  0.00    +0.000 OA
ATOM     17  C   UNL     1      45.743   3.574   7.307  0.00  0.00    +0.000 C 
ENDBRANCH  10  13
ENDBRANCH   8   9
ENDBRANCH   5   8
ENDBRANCH   1   2
BRANCH   1  18
ATOM     18  N   UNL     1      48.917   5.329  16.273  0.00  0.00    +0.000 N 
ATOM     19  C   UNL     1      49.245   6.169  17.304  0.00  0.00    +0.000 C 
ATOM     20  O   UNL     1      48.422   6.593  18.108  0.00  0.00    +0.000 OA
ATOM     21  H   UNL     1      49.653   4.944  15.699  0.00  0.00    +0.000 HD
BRANCH  19  22
ATOM     22  C   UNL     1      50.655   6.576  17.360  0.00  0.00    +0.000 A 
ATOM     23  C   UNL     1      51.004   7.918  17.293  0.00  0.00    +0.000 A 
ATOM     24  S   UNL     1      52.690   8.183  17.271  0.00  0.00    +0.000 S 
ATOM     25  C   UNL     1      53.010   6.515  17.400  0.00  0.00    +0.000 A 
ATOM     26  N   UNL     1      54.284   6.041  17.411  0.00  0.00    +0.000 NA
ATOM     27  C   UNL     1      54.376   4.759  17.541  0.00  0.00    +0.000 A 
ATOM     28  N   UNL     1      53.310   3.910  17.680  0.00  0.00    +0.000 N 
ATOM     29  C   UNL     1      52.009   4.344  17.690  0.00  0.00    +0.000 A 
ATOM     30  O   UNL     1      51.082   3.559  17.848  0.00  0.00    +0.000 OA
ATOM     31  C   UNL     1      51.849   5.773  17.491  0.00  0.00    +0.000 A 
ATOM     32  H   UNL     1      53.447   2.917  17.800  0.00  0.00    +0.000 HD
ENDBRANCH  19  22
ENDBRANCH   1  18
BRANCH   1  33
ATOM     33  C   UNL     1      47.595   3.212  16.371  0.00  0.00    +0.000 C 
BRANCH  33  34
ATOM     34  N   UNL     1      48.850   2.530  16.027  0.00  0.00    +0.000 NA
ATOM     35  H   UNL     1      49.557   3.232  15.813  0.00  0.00    +0.000 HD
ATOM     36  H   UNL     1      48.715   1.984  15.176  0.00  0.00    +0.000 HD
ENDBRANCH  33  34
ENDBRANCH   1  33
TORSDOF 8
ENDMDL
MODEL 8
REMARK VINA RESULT:    -6.429      4.770      9.536
REMARK INTER + INTRA:         -10.671
REMARK INTER:                  -9.506
REMARK INTRA:                  -1.166
REMARK UNBOUND:                -1.424
REMARK  Name = 
REMARK  8 active torsions:
REMARK  status: ('A' for Active; 'I' for Inactive)
REMARK    1  A    between atoms: N_1  and  C_2
REMARK    2  A    between atoms: C_2  and  C_3
REMARK    3  A    between atoms: C_3  and  N_4
REMARK    4  A    between atoms: C_3  and  C_17
REMARK    5  A    between atoms: C_5  and  C_7
REMARK    6  A    between atoms: C_20  and  C_21
REMARK    7  A    between atoms: C_21  and  N_22
REMARK    8  A    between atoms: C_23  and  C_25
REMARK                            x       y       z     vdW  Elec       q    Type
REMARK                         _______ _______ _______ _____ _____    ______ ____
ROOT
ATOM      1  C   UNL     1      47.823   3.712  17.272  0.00  0.00    +0.000 C 
ENDROOT
BRANCH   1   2
ATOM      2  C   UNL     1      49.335   3.498  17.407  0.00  0.00    +0.000 A 
ATOM      3  C   UNL     1      50.173   4.566  17.755  0.00  0.00    +0.000 A 
ATOM      4  C   UNL     1      51.556   4.382  17.893  0.00  0.00    +0.000 A 
ATOM      5  C   UNL     1      52.141   3.125  17.688  0.00  0.00    +0.000 A 
ATOM      6  C   UNL     1      51.304   2.049  17.364  0.00  0.00    +0.000 A 
ATOM      7  C   UNL     1      49.925   2.234  17.219  0.00  0.00    +0.000 A 
BRANCH   5   8
ATOM      8  C   UNL     1      53.636   2.949  17.764  0.00  0.00    +0.000 C 
BRANCH   8   9
ATOM      9  N   UNL     1      54.052   1.656  18.272  0.00  0.00    +0.000 N 
ATOM     10  C   UNL     1      54.946   0.917  17.529  0.00  0.00    +0.000 C 
ATOM     11  O   UNL     1      55.276   1.254  16.390  0.00  0.00    +0.000 OA
ATOM     12  H   UNL     1      53.975   1.486  19.269  0.00  0.00    +0.000 HD
BRANCH  10  13
ATOM     13  C   UNL     1      55.527  -0.345  18.148  0.00  0.00    +0.000 C 
ATOM     14  C   UNL     1      54.782  -1.615  17.815  0.00  0.00    +0.000 C 
ATOM     15  C   UNL     1      53.904  -1.866  19.024  0.00  0.00    +0.000 C 
ATOM     16  O   UNL     1      54.400  -1.073  20.106  0.00  0.00    +0.000 OA
ATOM     17  C   UNL     1      55.528  -0.308  19.658  0.00  0.00    +0.000 C 
ENDBRANCH  10  13
ENDBRANCH   8   9
ENDBRANCH   5   8
ENDBRANCH   1   2
BRANCH   1  18
ATOM     18  N   UNL     1      47.588   4.637  16.171  0.00  0.00    +0.000 N 
ATOM     19  C   UNL     1      47.356   4.248  14.877  0.00  0.00    +0.000 C 
ATOM     20  O   UNL     1      47.431   3.081  14.507  0.00  0.00    +0.000 OA
ATOM     21  H   UNL     1      47.423   5.598  16.432  0.00  0.00    +0.000 HD
BRANCH  19  22
ATOM     22  C   UNL     1      47.055   5.335  13.937  0.00  0.00    +0.000 A 
ATOM     23  C   UNL     1      47.963   6.367  13.740  0.00  0.00    +0.000 A 
ATOM     24  S   UNL     1      47.392   7.585  12.689  0.00  0.00    +0.000 S 
ATOM     25  C   UNL     1      45.931   6.750  12.426  0.00  0.00    +0.000 A 
ATOM     26  N   UNL     1      44.960   7.264  11.625  0.00  0.00    +0.000 NA
ATOM     27  C   UNL     1      43.919   6.510  11.495  0.00  0.00    +0.000 A 
ATOM     28  N   UNL     1      43.770   5.279  12.077  0.00  0.00    +0.000 N 
ATOM     29  C   UNL     1      44.728   4.713  12.879  0.00  0.00    +0.000 A 
ATOM     30  O   UNL     1      44.572   3.596  13.357  0.00  0.00    +0.000 OA
ATOM     31  C   UNL     1      45.895   5.546  13.102  0.00  0.00    +0.000 A 
ATOM     32  H   UNL     1      42.940   4.726  11.919  0.00  0.00    +0.000 HD
ENDBRANCH  19  22
ENDBRANCH   1  18
BRANCH   1  33
ATOM     33  C   UNL     1      47.162   4.209  18.595  0.00  0.00    +0.000 C 
BRANCH  33  34
ATOM     34  N   UNL     1      46.491   5.512  18.485  0.00  0.00    +0.000 NA
ATOM     35  H   UNL     1      47.072   6.219  18.934  0.00  0.00    +0.000 HD
ATOM     36  H   UNL     1      45.614   5.485  19.005  0.00  0.00    +0.000 HD
ENDBRANCH  33  34
ENDBRANCH   1  33
TORSDOF 8
ENDMDL
MODEL 9
REMARK VINA RESULT:    -6.415      2.805      4.560
REMARK INTER + INTRA:         -10.651
REMARK INTER:                  -9.402
REMARK INTRA:                  -1.250
REMARK UNBOUND:                -1.424
REMARK  Name = 
REMARK  8 active torsions:
REMARK  status: ('A' for Active; 'I' for Inactive)
REMARK    1  A    between atoms: N_1  and  C_2
REMARK    2  A    between atoms: C_2  and  C_3
REMARK    3  A    between atoms: C_3  and  N_4
REMARK    4  A    between atoms: C_3  and  C_17
REMARK    5  A    between atoms: C_5  and  C_7
REMARK    6  A    between atoms: C_20  and  C_21
REMARK    7  A    between atoms: C_21  and  N_22
REMARK    8  A    between atoms: C_23  and  C_25
REMARK                            x       y       z     vdW  Elec       q    Type
REMARK                         _______ _______ _______ _____ _____    ______ ____
ROOT
ATOM      1  C   UNL     1      47.108   5.186  14.920  0.00  0.00    +0.000 C 
ENDROOT
BRANCH   1   2
ATOM      2  C   UNL     1      46.270   4.968  13.655  0.00  0.00    +0.000 A 
ATOM      3  C   UNL     1      45.993   3.671  13.204  0.00  0.00    +0.000 A 
ATOM      4  C   UNL     1      45.218   3.458  12.055  0.00  0.00    +0.000 A 
ATOM      5  C   UNL     1      44.698   4.535  11.325  0.00  0.00    +0.000 A 
ATOM      6  C   UNL     1      44.953   5.834  11.786  0.00  0.00    +0.000 A 
ATOM      7  C   UNL     1      45.732   6.046  12.928  0.00  0.00    +0.000 A 
BRANCH   5   8
ATOM      8  C   UNL     1      43.930   4.302  10.049  0.00  0.00    +0.000 C 
BRANCH   8   9
ATOM      9  N   UNL     1      44.744   4.359   8.852  0.00  0.00    +0.000 N 
ATOM     10  C   UNL     1      45.158   3.174   8.285  0.00  0.00    +0.000 C 
ATOM     11  O   UNL     1      44.985   2.091   8.847  0.00  0.00    +0.000 OA
ATOM     12  H   UNL     1      44.694   5.192   8.277  0.00  0.00    +0.000 HD
BRANCH  10  13
ATOM     13  C   UNL     1      45.847   3.225   6.929  0.00  0.00    +0.000 C 
ATOM     14  C   UNL     1      46.234   1.879   6.364  0.00  0.00    +0.000 C 
ATOM     15  C   UNL     1      47.704   1.737   6.698  0.00  0.00    +0.000 C 
ATOM     16  O   UNL     1      48.210   3.032   7.035  0.00  0.00    +0.000 OA
ATOM     17  C   UNL     1      47.148   3.992   6.964  0.00  0.00    +0.000 C 
ENDBRANCH  10  13
ENDBRANCH   8   9
ENDBRANCH   5   8
ENDBRANCH   1   2
BRANCH   1  18
ATOM     18  N   UNL     1      48.300   5.940  14.556  0.00  0.00    +0.000 N 
ATOM     19  C   UNL     1      48.943   6.812  15.396  0.00  0.00    +0.000 C 
ATOM     20  O   UNL     1      48.509   7.118  16.501  0.00  0.00    +0.000 OA
ATOM     21  H   UNL     1      48.752   5.660  13.698  0.00  0.00    +0.000 HD
BRANCH  19  22
ATOM     22  C   UNL     1      50.177   7.404  14.863  0.00  0.00    +0.000 A 
ATOM     23  C   UNL     1      51.360   7.339  15.589  0.00  0.00    +0.000 A 
ATOM     24  S   UNL     1      52.656   8.171  14.853  0.00  0.00    +0.000 S 
ATOM     25  C   UNL     1      51.693   8.605  13.517  0.00  0.00    +0.000 A 
ATOM     26  N   UNL     1      52.193   9.361  12.504  0.00  0.00    +0.000 NA
ATOM     27  C   UNL     1      51.357   9.589  11.545  0.00  0.00    +0.000 A 
ATOM     28  N   UNL     1      50.074   9.113  11.498  0.00  0.00    +0.000 N 
ATOM     29  C   UNL     1      49.532   8.334  12.488  0.00  0.00    +0.000 A 
ATOM     30  O   UNL     1      48.390   7.900  12.397  0.00  0.00    +0.000 OA
ATOM     31  C   UNL     1      50.413   8.095  13.617  0.00  0.00    +0.000 A 
ATOM     32  H   UNL     1      49.475   9.308  10.709  0.00  0.00    +0.000 HD
ENDBRANCH  19  22
ENDBRANCH   1  18
BRANCH   1  33
ATOM     33  C   UNL     1      47.468   3.851  15.645  0.00  0.00    +0.000 C 
BRANCH  33  34
ATOM     34  N   UNL     1      46.714   3.610  16.882  0.00  0.00    +0.000 NA
ATOM     35  H   UNL     1      47.045   4.254  17.599  0.00  0.00    +0.000 HD
ATOM     36  H   UNL     1      46.914   2.669  17.222  0.00  0.00    +0.000 HD
ENDBRANCH  33  34
ENDBRANCH   1  33
TORSDOF 8
ENDMDL
