MODEL 1
REMARK VINA RESULT:    -8.039      0.000      0.000
REMARK INTER + INTRA:         -12.005
REMARK INTER:                 -10.858
REMARK INTRA:                  -1.147
REMARK UNBOUND:                -1.147
REMARK  Name = 
REMARK  8 active torsions:
REMARK  status: ('A' for Active; 'I' for Inactive)
REMARK    1  A    between atoms: C_1  and  C_2
REMARK    2  A    between atoms: C_2  and  N_3
REMARK    3  A    between atoms: C_2  and  C_17
REMARK    4  A    between atoms: C_4  and  C_6
REMARK    5  A    between atoms: N_12  and  C_13
REMARK    6  A    between atoms: C_20  and  O_21
REMARK    7  A    between atoms: O_21  and  C_22
REMARK    8  A    between atoms: C_22  and  C_23
REMARK                            x       y       z     vdW  Elec       q    Type
REMARK                         _______ _______ _______ _____ _____    ______ ____
ROOT
ATOM      1  C   UNL     1      47.525   8.436  12.123  0.00  0.00    +0.000 C 
ATOM      2  C   UNL     1      47.056   7.400  13.151  0.00  0.00    +0.000 C 
ENDROOT
BRANCH   2   3
ATOM      3  C   UNL     1      46.424   6.171  12.513  0.00  0.00    +0.000 A 
ATOM      4  C   UNL     1      45.869   6.254  11.226  0.00  0.00    +0.000 A 
ATOM      5  C   UNL     1      45.278   5.136  10.629  0.00  0.00    +0.000 A 
ATOM      6  C   UNL     1      45.235   3.918  11.306  0.00  0.00    +0.000 A 
ATOM      7  C   UNL     1      45.708   3.849  12.615  0.00  0.00    +0.000 A 
ATOM      8  C   UNL     1      46.297   4.963  13.210  0.00  0.00    +0.000 A 
BRANCH   6   9
ATOM      9  O   UNL     1      44.713   2.859  10.613  0.00  0.00    +0.000 OA
BRANCH   9  10
ATOM     10  C   UNL     1      44.423   3.140   9.238  0.00  0.00    +0.000 C 
BRANCH  10  11
ATOM     11  C   UNL     1      45.494   2.572   8.342  0.00  0.00    +0.000 A 
ATOM     12  C   UNL     1      46.185   3.406   7.465  0.00  0.00    +0.000 A 
ATOM     13  C   UNL     1      47.216   2.873   6.701  0.00  0.00    +0.000 A 
ATOM     14  C   UNL     1      47.533   1.525   6.833  0.00  0.00    +0.000 A 
ATOM     15  C   UNL     1      46.800   0.765   7.729  0.00  0.00    +0.000 A 
ATOM     16  N   UNL     1      45.799   1.256   8.489  0.00  0.00    +0.000 NA
ENDBRANCH  10  11
ENDBRANCH   9  10
ENDBRANCH   6   9
ENDBRANCH   2   3
BRANCH   2  17
ATOM     17  N   UNL     1      48.162   6.969  13.980  0.00  0.00    +0.000 N 
ATOM     18  C   UNL     1      48.652   7.700  15.027  0.00  0.00    +0.000 C 
ATOM     19  O   UNL     1      48.224   8.815  15.312  0.00  0.00    +0.000 OA
ATOM     20  H   UNL     1      48.442   6.000  13.879  0.00  0.00    +0.000 HD
BRANCH  18  21
ATOM     21  C   UNL     1      49.773   7.093  15.760  0.00  0.00    +0.000 A 
ATOM     22  C   UNL     1      51.022   7.697  15.736  0.00  0.00    +0.000 A 
ATOM     23  S   UNL     1      52.215   6.827  16.589  0.00  0.00    +0.000 S 
ATOM     24  C   UNL     1      51.092   5.638  17.062  0.00  0.00    +0.000 A 
ATOM     25  N   UNL     1      51.467   4.590  17.838  0.00  0.00    +0.000 NA
ATOM     26  C   UNL     1      50.509   3.778  18.146  0.00  0.00    +0.000 A 
ATOM     27  N   UNL     1      49.194   3.907  17.749  0.00  0.00    +0.000 N 
ATOM     28  C   UNL     1      48.193   2.942  18.155  0.00  0.00    +0.000 C 
ATOM     29  C   UNL     1      48.783   4.954  16.934  0.00  0.00    +0.000 A 
ATOM     30  O   UNL     1      47.628   5.064  16.533  0.00  0.00    +0.000 OA
ATOM     31  C   UNL     1      49.828   5.894  16.568  0.00  0.00    +0.000 A 
ENDBRANCH  18  21
ENDBRANCH   2  17
TORSDOF 6
ENDMDL
MODEL 2
REMARK VINA RESULT:    -7.812      1.855      2.112
REMARK INTER + INTRA:         -11.699
REMARK INTER:                 -10.739
REMARK INTRA:                  -0.960
REMARK UNBOUND:                -1.147
REMARK  Name = 
REMARK  8 active torsions:
REMARK  status: ('A' for Active; 'I' for Inactive)
REMARK    1  A    between atoms: C_1  and  C_2
REMARK    2  A    between atoms: C_2  and  N_3
REMARK    3  A    between atoms: C_2  and  C_17
REMARK    4  A    between atoms: C_4  and  C_6
REMARK    5  A    between atoms: N_12  and  C_13
REMARK    6  A    between atoms: C_20  and  O_21
REMARK    7  A    between atoms: O_21  and  C_22
REMARK    8  A    between atoms: C_22  and  C_23
REMARK                            x       y       z     vdW  Elec       q    Type
REMARK                         _______ _______ _______ _____ _____    ______ ____
ROOT
ATOM      1  C   UNL     1      49.439   7.420  12.864  0.00  0.00    +0.000 C 
ATOM      2  C   UNL     1      48.015   7.551  13.417  0.00  0.00    +0.000 C 
ENDROOT
BRANCH   2   3
ATOM      3  C   UNL     1      47.040   6.564  12.792  0.00  0.00    +0.000 A 
ATOM      4  C   UNL     1      46.257   6.951  11.692  0.00  0.00    +0.000 A 
ATOM      5  C   UNL     1      45.351   6.059  11.110  0.00  0.00    +0.000 A 
ATOM      6  C   UNL     1      45.214   4.767  11.616  0.00  0.00    +0.000 A 
ATOM      7  C   UNL     1      45.925   4.403  12.757  0.00  0.00    +0.000 A 
ATOM      8  C   UNL     1      46.828   5.291  13.338  0.00  0.00    +0.000 A 
BRANCH   6   9
ATOM      9  O   UNL     1      44.365   3.937  10.933  0.00  0.00    +0.000 OA
BRANCH   9  10
ATOM     10  C   UNL     1      44.215   4.261   9.545  0.00  0.00    +0.000 C 
BRANCH  10  11
ATOM     11  C   UNL     1      45.225   3.513   8.713  0.00  0.00    +0.000 A 
ATOM     12  C   UNL     1      45.398   2.141   8.890  0.00  0.00    +0.000 A 
ATOM     13  C   UNL     1      46.283   1.462   8.062  0.00  0.00    +0.000 A 
ATOM     14  C   UNL     1      46.970   2.165   7.079  0.00  0.00    +0.000 A 
ATOM     15  C   UNL     1      46.740   3.526   6.966  0.00  0.00    +0.000 A 
ATOM     16  N   UNL     1      45.882   4.211   7.750  0.00  0.00    +0.000 NA
ENDBRANCH  10  11
ENDBRANCH   9  10
ENDBRANCH   6   9
ENDBRANCH   2   3
BRANCH   2  17
ATOM     17  N   UNL     1      48.006   7.358  14.852  0.00  0.00    +0.000 N 
ATOM     18  C   UNL     1      48.560   8.241  15.738  0.00  0.00    +0.000 C 
ATOM     19  O   UNL     1      49.163   9.248  15.377  0.00  0.00    +0.000 OA
ATOM     20  H   UNL     1      47.394   6.628  15.199  0.00  0.00    +0.000 HD
BRANCH  18  21
ATOM     21  C   UNL     1      48.442   7.878  17.158  0.00  0.00    +0.000 A 
ATOM     22  C   UNL     1      48.082   8.842  18.089  0.00  0.00    +0.000 A 
ATOM     23  S   UNL     1      48.052   8.262  19.692  0.00  0.00    +0.000 S 
ATOM     24  C   UNL     1      48.470   6.690  19.192  0.00  0.00    +0.000 A 
ATOM     25  N   UNL     1      48.600   5.680  20.090  0.00  0.00    +0.000 NA
ATOM     26  C   UNL     1      48.893   4.533  19.571  0.00  0.00    +0.000 A 
ATOM     27  N   UNL     1      49.077   4.287  18.226  0.00  0.00    +0.000 N 
ATOM     28  C   UNL     1      49.398   2.959  17.746  0.00  0.00    +0.000 C 
ATOM     29  C   UNL     1      48.976   5.303  17.284  0.00  0.00    +0.000 A 
ATOM     30  O   UNL     1      49.178   5.116  16.088  0.00  0.00    +0.000 OA
ATOM     31  C   UNL     1      48.642   6.610  17.823  0.00  0.00    +0.000 A 
ENDBRANCH  18  21
ENDBRANCH   2  17
TORSDOF 6
ENDMDL
MODEL 3
REMARK VINA RESULT:    -7.740      1.569      2.321
REMARK INTER + INTRA:         -11.601
REMARK INTER:                 -10.836
REMARK INTRA:                  -0.766
REMARK UNBOUND:                -1.147
REMARK  Name = 
REMARK  8 active torsions:
REMARK  status: ('A' for Active; 'I' for Inactive)
REMARK    1  A    between atoms: C_1  and  C_2
REMARK    2  A    between atoms: C_2  and  N_3
REMARK    3  A    between atoms: C_2  and  C_17
REMARK    4  A    between atoms: C_4  and  C_6
REMARK    5  A    between atoms: N_12  and  C_13
REMARK    6  A    between atoms: C_20  and  O_21
REMARK    7  A    between atoms: O_21  and  C_22
REMARK    8  A    between atoms: C_22  and  C_23
REMARK                            x       y       z     vdW  Elec       q    Type
REMARK                         _______ _______ _______ _____ _____    ______ ____
ROOT
ATOM      1  C   UNL     1      48.422   7.849  12.869  0.00  0.00    +0.000 C 
ATOM      2  C   UNL     1      47.341   7.028  13.583  0.00  0.00    +0.000 C 
ENDROOT
BRANCH   2   3
ATOM      3  C   UNL     1      46.515   6.174  12.631  0.00  0.00    +0.000 A 
ATOM      4  C   UNL     1      46.452   6.503  11.267  0.00  0.00    +0.000 A 
ATOM      5  C   UNL     1      45.692   5.734  10.381  0.00  0.00    +0.000 A 
ATOM      6  C   UNL     1      44.986   4.623  10.842  0.00  0.00    +0.000 A 
ATOM      7  C   UNL     1      44.977   4.340  12.206  0.00  0.00    +0.000 A 
ATOM      8  C   UNL     1      45.734   5.106  13.090  0.00  0.00    +0.000 A 
BRANCH   6   9
ATOM      9  O   UNL     1      44.338   3.882   9.891  0.00  0.00    +0.000 OA
BRANCH   9  10
ATOM     10  C   UNL     1      44.802   2.530   9.779  0.00  0.00    +0.000 C 
BRANCH  10  11
ATOM     11  C   UNL     1      45.612   2.349   8.521  0.00  0.00    +0.000 A 
ATOM     12  C   UNL     1      45.747   3.404   7.620  0.00  0.00    +0.000 A 
ATOM     13  C   UNL     1      46.558   3.236   6.504  0.00  0.00    +0.000 A 
ATOM     14  C   UNL     1      47.213   2.025   6.315  0.00  0.00    +0.000 A 
ATOM     15  C   UNL     1      47.029   1.027   7.259  0.00  0.00    +0.000 A 
ATOM     16  N   UNL     1      46.255   1.164   8.355  0.00  0.00    +0.000 NA
ENDBRANCH  10  11
ENDBRANCH   9  10
ENDBRANCH   6   9
ENDBRANCH   2   3
BRANCH   2  17
ATOM     17  N   UNL     1      47.935   6.161  14.579  0.00  0.00    +0.000 N 
ATOM     18  C   UNL     1      48.459   6.612  15.759  0.00  0.00    +0.000 C 
ATOM     19  O   UNL     1      48.518   7.805  16.042  0.00  0.00    +0.000 OA
ATOM     20  H   UNL     1      47.772   5.167  14.457  0.00  0.00    +0.000 HD
BRANCH  18  21
ATOM     21  C   UNL     1      49.008   5.579  16.649  0.00  0.00    +0.000 A 
ATOM     22  C   UNL     1      48.161   4.646  17.229  0.00  0.00    +0.000 A 
ATOM     23  S   UNL     1      48.958   3.561  18.277  0.00  0.00    +0.000 S 
ATOM     24  C   UNL     1      50.471   4.270  17.953  0.00  0.00    +0.000 A 
ATOM     25  N   UNL     1      51.604   3.798  18.532  0.00  0.00    +0.000 NA
ATOM     26  C   UNL     1      52.686   4.410  18.176  0.00  0.00    +0.000 A 
ATOM     27  N   UNL     1      52.753   5.466  17.289  0.00  0.00    +0.000 N 
ATOM     28  C   UNL     1      54.020   6.079  16.952  0.00  0.00    +0.000 C 
ATOM     29  C   UNL     1      51.609   5.988  16.699  0.00  0.00    +0.000 A 
ATOM     30  O   UNL     1      51.640   6.954  15.942  0.00  0.00    +0.000 OA
ATOM     31  C   UNL     1      50.370   5.326  17.067  0.00  0.00    +0.000 A 
ENDBRANCH  18  21
ENDBRANCH   2  17
TORSDOF 6
ENDMDL
MODEL 4
REMARK VINA RESULT:    -7.666      2.713      3.625
REMARK INTER + INTRA:         -11.501
REMARK INTER:                 -10.421
REMARK INTRA:                  -1.080
REMARK UNBOUND:                -1.147
REMARK  Name = 
REMARK  8 active torsions:
REMARK  status: ('A' for Active; 'I' for Inactive)
REMARK    1  A    between atoms: C_1  and  C_2
REMARK    2  A    between atoms: C_2  and  N_3
REMARK    3  A    between atoms: C_2  and  C_17
REMARK    4  A    between atoms: C_4  and  C_6
REMARK    5  A    between atoms: N_12  and  C_13
REMARK    6  A    between atoms: C_20  and  O_21
REMARK    7  A    between atoms: O_21  and  C_22
REMARK    8  A    between atoms: C_22  and  C_23
REMARK                            x       y       z     vdW  Elec       q    Type
REMARK                         _______ _______ _______ _____ _____    ______ ____
ROOT
ATOM      1  C   UNL     1      47.151   4.191  16.118  0.00  0.00    +0.000 C 
ATOM      2  C   UNL     1      47.677   4.936  14.885  0.00  0.00    +0.000 C 
ENDROOT
BRANCH   2   3
ATOM      3  C   UNL     1      46.793   4.759  13.659  0.00  0.00    +0.000 A 
ATOM      4  C   UNL     1      46.255   3.497  13.357  0.00  0.00    +0.000 A 
ATOM      5  C   UNL     1      45.446   3.316  12.230  0.00  0.00    +0.000 A 
ATOM      6  C   UNL     1      45.161   4.392  11.390  0.00  0.00    +0.000 A 
ATOM      7  C   UNL     1      45.758   5.626  11.637  0.00  0.00    +0.000 A 
ATOM      8  C   UNL     1      46.564   5.807  12.759  0.00  0.00    +0.000 A 
BRANCH   6   9
ATOM      9  O   UNL     1      44.295   4.141  10.360  0.00  0.00    +0.000 OA
BRANCH   9  10
ATOM     10  C   UNL     1      44.310   2.786   9.894  0.00  0.00    +0.000 C 
BRANCH  10  11
ATOM     11  C   UNL     1      45.282   2.627   8.752  0.00  0.00    +0.000 A 
ATOM     12  C   UNL     1      45.590   3.718   7.941  0.00  0.00    +0.000 A 
ATOM     13  C   UNL     1      46.542   3.565   6.941  0.00  0.00    +0.000 A 
ATOM     14  C   UNL     1      47.163   2.332   6.776  0.00  0.00    +0.000 A 
ATOM     15  C   UNL     1      46.802   1.298   7.625  0.00  0.00    +0.000 A 
ATOM     16  N   UNL     1      45.887   1.419   8.609  0.00  0.00    +0.000 NA
ENDBRANCH  10  11
ENDBRANCH   9  10
ENDBRANCH   6   9
ENDBRANCH   2   3
BRANCH   2  17
ATOM     17  N   UNL     1      47.802   6.351  15.160  0.00  0.00    +0.000 N 
ATOM     18  C   UNL     1      48.991   6.965  15.448  0.00  0.00    +0.000 C 
ATOM     19  O   UNL     1      50.045   6.345  15.550  0.00  0.00    +0.000 OA
ATOM     20  H   UNL     1      46.993   6.921  14.939  0.00  0.00    +0.000 HD
BRANCH  18  21
ATOM     21  C   UNL     1      48.920   8.413  15.688  0.00  0.00    +0.000 A 
ATOM     22  C   UNL     1      49.293   9.298  14.687  0.00  0.00    +0.000 A 
ATOM     23  S   UNL     1      49.205  10.935  15.158  0.00  0.00    +0.000 S 
ATOM     24  C   UNL     1      48.617  10.519  16.700  0.00  0.00    +0.000 A 
ATOM     25  N   UNL     1      48.316  11.475  17.616  0.00  0.00    +0.000 NA
ATOM     26  C   UNL     1      47.852  11.021  18.734  0.00  0.00    +0.000 A 
ATOM     27  N   UNL     1      47.659   9.689  19.038  0.00  0.00    +0.000 N 
ATOM     28  C   UNL     1      47.126   9.286  20.323  0.00  0.00    +0.000 C 
ATOM     29  C   UNL     1      47.980   8.686  18.132  0.00  0.00    +0.000 A 
ATOM     30  O   UNL     1      47.857   7.494  18.397  0.00  0.00    +0.000 OA
ATOM     31  C   UNL     1      48.500   9.152  16.859  0.00  0.00    +0.000 A 
ENDBRANCH  18  21
ENDBRANCH   2  17
TORSDOF 6
ENDMDL
MODEL 5
REMARK VINA RESULT:    -7.522      2.106      4.111
REMARK INTER + INTRA:         -11.307
REMARK INTER:                  -9.996
REMARK INTRA:                  -1.311
REMARK UNBOUND:                -1.147
REMARK  Name = 
REMARK  8 active torsions:
REMARK  status: ('A' for Active; 'I' for Inactive)
REMARK    1  A    between atoms: C_1  and  C_2
REMARK    2  A    between atoms: C_2  and  N_3
REMARK    3  A    between atoms: C_2  and  C_17
REMARK    4  A    between atoms: C_4  and  C_6
REMARK    5  A    between atoms: N_12  and  C_13
REMARK    6  A    between atoms: C_20  and  O_21
REMARK    7  A    between atoms: O_21  and  C_22
REMARK    8  A    between atoms: C_22  and  C_23
REMARK                            x       y       z     vdW  Elec       q    Type
REMARK                         _______ _______ _______ _____ _____    ______ ____
ROOT
ATOM      1  C   UNL     1      46.985   4.020  16.322  0.00  0.00    +0.000 C 
ATOM      2  C   UNL     1      47.646   4.675  15.103  0.00  0.00    +0.000 C 
ENDROOT
BRANCH   2   3
ATOM      3  C   UNL     1      46.812   4.556  13.836  0.00  0.00    +0.000 A 
ATOM      4  C   UNL     1      46.436   5.712  13.132  0.00  0.00    +0.000 A 
ATOM      5  C   UNL     1      45.664   5.621  11.969  0.00  0.00    +0.000 A 
ATOM      6  C   UNL     1      45.257   4.375  11.492  0.00  0.00    +0.000 A 
ATOM      7  C   UNL     1      45.555   3.232  12.230  0.00  0.00    +0.000 A 
ATOM      8  C   UNL     1      46.324   3.322  13.388  0.00  0.00    +0.000 A 
BRANCH   6   9
ATOM      9  O   UNL     1      44.576   4.377  10.304  0.00  0.00    +0.000 OA
BRANCH   9  10
ATOM     10  C   UNL     1      44.274   3.071   9.795  0.00  0.00    +0.000 C 
BRANCH  10  11
ATOM     11  C   UNL     1      45.227   2.699   8.688  0.00  0.00    +0.000 A 
ATOM     12  C   UNL     1      45.595   3.647   7.735  0.00  0.00    +0.000 A 
ATOM     13  C   UNL     1      46.529   3.301   6.767  0.00  0.00    +0.000 A 
ATOM     14  C   UNL     1      47.075   2.022   6.775  0.00  0.00    +0.000 A 
ATOM     15  C   UNL     1      46.659   1.139   7.759  0.00  0.00    +0.000 A 
ATOM     16  N   UNL     1      45.760   1.449   8.715  0.00  0.00    +0.000 NA
ENDBRANCH  10  11
ENDBRANCH   9  10
ENDBRANCH   6   9
ENDBRANCH   2   3
BRANCH   2  17
ATOM     17  N   UNL     1      47.901   6.077  15.355  0.00  0.00    +0.000 N 
ATOM     18  C   UNL     1      49.057   6.549  15.913  0.00  0.00    +0.000 C 
ATOM     19  O   UNL     1      49.955   5.805  16.299  0.00  0.00    +0.000 OA
ATOM     20  H   UNL     1      47.260   6.731  14.918  0.00  0.00    +0.000 HD
BRANCH  18  21
ATOM     21  C   UNL     1      49.137   8.007  16.081  0.00  0.00    +0.000 A 
ATOM     22  C   UNL     1      49.190   8.553  17.355  0.00  0.00    +0.000 A 
ATOM     23  S   UNL     1      49.220  10.258  17.364  0.00  0.00    +0.000 S 
ATOM     24  C   UNL     1      49.214  10.324  15.663  0.00  0.00    +0.000 A 
ATOM     25  N   UNL     1      49.245  11.513  15.008  0.00  0.00    +0.000 NA
ATOM     26  C   UNL     1      49.266  11.416  13.719  0.00  0.00    +0.000 A 
ATOM     27  N   UNL     1      49.254  10.236  13.005  0.00  0.00    +0.000 N 
ATOM     28  C   UNL     1      49.285  10.237  11.557  0.00  0.00    +0.000 C 
ATOM     29  C   UNL     1      49.197   9.004  13.645  0.00  0.00    +0.000 A 
ATOM     30  O   UNL     1      49.142   7.943  13.030  0.00  0.00    +0.000 OA
ATOM     31  C   UNL     1      49.179   9.065  15.096  0.00  0.00    +0.000 A 
ENDBRANCH  18  21
ENDBRANCH   2  17
TORSDOF 6
ENDMDL
MODEL 6
REMARK VINA RESULT:    -7.353      1.555      1.951
REMARK INTER + INTRA:         -11.079
REMARK INTER:                  -9.603
REMARK INTRA:                  -1.476
REMARK UNBOUND:                -1.147
REMARK  Name = 
REMARK  8 active torsions:
REMARK  status: ('A' for Active; 'I' for Inactive)
REMARK    1  A    between atoms: C_1  and  C_2
REMARK    2  A    between atoms: C_2  and  N_3
REMARK    3  A    between atoms: C_2  and  C_17
REMARK    4  A    between atoms: C_4  and  C_6
REMARK    5  A    between atoms: N_12  and  C_13
REMARK    6  A    between atoms: C_20  and  O_21
REMARK    7  A    between atoms: O_21  and  C_22
REMARK    8  A    between atoms: C_22  and  C_23
REMARK                            x       y       z     vdW  Elec       q    Type
REMARK                         _______ _______ _______ _____ _____    ______ ____
ROOT
ATOM      1  C   UNL     1      49.706   7.900  11.399  0.00  0.00    +0.000 C 
ATOM      2  C   UNL     1      48.947   7.831  12.729  0.00  0.00    +0.000 C 
ENDROOT
BRANCH   2   3
ATOM      3  C   UNL     1      47.642   7.054  12.632  0.00  0.00    +0.000 A 
ATOM      4  C   UNL     1      46.473   7.698  12.194  0.00  0.00    +0.000 A 
ATOM      5  C   UNL     1      45.264   7.000  12.106  0.00  0.00    +0.000 A 
ATOM      6  C   UNL     1      45.205   5.649  12.450  0.00  0.00    +0.000 A 
ATOM      7  C   UNL     1      46.340   5.027  12.963  0.00  0.00    +0.000 A 
ATOM      8  C   UNL     1      47.545   5.721  13.051  0.00  0.00    +0.000 A 
BRANCH   6   9
ATOM      9  O   UNL     1      44.001   5.028  12.254  0.00  0.00    +0.000 OA
BRANCH   9  10
ATOM     10  C   UNL     1      43.476   5.165  10.927  0.00  0.00    +0.000 C 
BRANCH  10  11
ATOM     11  C   UNL     1      44.176   4.226   9.978  0.00  0.00    +0.000 A 
ATOM     12  C   UNL     1      45.082   4.725   9.044  0.00  0.00    +0.000 A 
ATOM     13  C   UNL     1      45.769   3.833   8.229  0.00  0.00    +0.000 A 
ATOM     14  C   UNL     1      45.538   2.469   8.368  0.00  0.00    +0.000 A 
ATOM     15  C   UNL     1      44.624   2.054   9.323  0.00  0.00    +0.000 A 
ATOM     16  N   UNL     1      43.948   2.895  10.133  0.00  0.00    +0.000 NA
ENDBRANCH  10  11
ENDBRANCH   9  10
ENDBRANCH   6   9
ENDBRANCH   2   3
BRANCH   2  17
ATOM     17  N   UNL     1      49.769   7.221  13.753  0.00  0.00    +0.000 N 
ATOM     18  C   UNL     1      50.471   7.934  14.685  0.00  0.00    +0.000 C 
ATOM     19  O   UNL     1      50.504   9.161  14.690  0.00  0.00    +0.000 OA
ATOM     20  H   UNL     1      49.651   6.221  13.881  0.00  0.00    +0.000 HD
BRANCH  18  21
ATOM     21  C   UNL     1      51.241   7.138  15.652  0.00  0.00    +0.000 A 
ATOM     22  C   UNL     1      52.619   7.282  15.724  0.00  0.00    +0.000 A 
ATOM     23  S   UNL     1      53.354   6.241  16.857  0.00  0.00    +0.000 S 
ATOM     24  C   UNL     1      51.850   5.596  17.326  0.00  0.00    +0.000 A 
ATOM     25  N   UNL     1      51.766   4.644  18.290  0.00  0.00    +0.000 NA
ATOM     26  C   UNL     1      50.562   4.263  18.567  0.00  0.00    +0.000 A 
ATOM     27  N   UNL     1      49.414   4.741  17.968  0.00  0.00    +0.000 N 
ATOM     28  C   UNL     1      48.108   4.251  18.357  0.00  0.00    +0.000 C 
ATOM     29  C   UNL     1      49.468   5.697  16.961  0.00  0.00    +0.000 A 
ATOM     30  O   UNL     1      48.464   6.105  16.385  0.00  0.00    +0.000 OA
ATOM     31  C   UNL     1      50.803   6.158  16.622  0.00  0.00    +0.000 A 
ENDBRANCH  18  21
ENDBRANCH   2  17
TORSDOF 6
ENDMDL
MODEL 7
REMARK VINA RESULT:    -6.881      4.574      7.958
REMARK INTER + INTRA:         -10.441
REMARK INTER:                  -9.263
REMARK INTRA:                  -1.178
REMARK UNBOUND:                -1.147
REMARK  Name = 
REMARK  8 active torsions:
REMARK  status: ('A' for Active; 'I' for Inactive)
REMARK    1  A    between atoms: C_1  and  C_2
REMARK    2  A    between atoms: C_2  and  N_3
REMARK    3  A    between atoms: C_2  and  C_17
REMARK    4  A    between atoms: C_4  and  C_6
REMARK    5  A    between atoms: N_12  and  C_13
REMARK    6  A    between atoms: C_20  and  O_21
REMARK    7  A    between atoms: O_21  and  C_22
REMARK    8  A    between atoms: C_22  and  C_23
REMARK                            x       y       z     vdW  Elec       q    Type
REMARK                         _______ _______ _______ _____ _____    ______ ____
ROOT
ATOM      1  C   UNL     1      45.777   8.888  13.268  0.00  0.00    +0.000 C 
ATOM      2  C   UNL     1      46.291   8.375  11.918  0.00  0.00    +0.000 C 
ENDROOT
BRANCH   2   3
ATOM      3  C   UNL     1      47.807   8.425  11.799  0.00  0.00    +0.000 A 
ATOM      4  C   UNL     1      48.566   7.261  12.002  0.00  0.00    +0.000 A 
ATOM      5  C   UNL     1      49.961   7.291  11.904  0.00  0.00    +0.000 A 
ATOM      6  C   UNL     1      50.618   8.483  11.598  0.00  0.00    +0.000 A 
ATOM      7  C   UNL     1      49.879   9.657  11.476  0.00  0.00    +0.000 A 
ATOM      8  C   UNL     1      48.489   9.628  11.575  0.00  0.00    +0.000 A 
BRANCH   6   9
ATOM      9  O   UNL     1      51.975   8.400  11.440  0.00  0.00    +0.000 OA
BRANCH   9  10
ATOM     10  C   UNL     1      52.440   8.757  10.131  0.00  0.00    +0.000 C 
BRANCH  10  11
ATOM     11  C   UNL     1      52.980   7.548   9.411  0.00  0.00    +0.000 A 
ATOM     12  C   UNL     1      53.649   6.554  10.122  0.00  0.00    +0.000 A 
ATOM     13  C   UNL     1      54.074   5.415   9.447  0.00  0.00    +0.000 A 
ATOM     14  C   UNL     1      53.819   5.296   8.086  0.00  0.00    +0.000 A 
ATOM     15  C   UNL     1      53.145   6.328   7.454  0.00  0.00    +0.000 A 
ATOM     16  N   UNL     1      52.714   7.441   8.083  0.00  0.00    +0.000 NA
ENDBRANCH  10  11
ENDBRANCH   9  10
ENDBRANCH   6   9
ENDBRANCH   2   3
BRANCH   2  17
ATOM     17  N   UNL     1      45.857   7.013  11.693  0.00  0.00    +0.000 N 
ATOM     18  C   UNL     1      44.576   6.671  11.357  0.00  0.00    +0.000 C 
ATOM     19  O   UNL     1      43.673   7.498  11.275  0.00  0.00    +0.000 OA
ATOM     20  H   UNL     1      46.594   6.321  11.601  0.00  0.00    +0.000 HD
BRANCH  18  21
ATOM     21  C   UNL     1      44.329   5.236  11.158  0.00  0.00    +0.000 A 
ATOM     22  C   UNL     1      43.506   4.548  12.039  0.00  0.00    +0.000 A 
ATOM     23  S   UNL     1      43.379   2.883  11.692  0.00  0.00    +0.000 S 
ATOM     24  C   UNL     1      44.380   3.033  10.324  0.00  0.00    +0.000 A 
ATOM     25  N   UNL     1      44.672   1.958   9.548  0.00  0.00    +0.000 NA
ATOM     26  C   UNL     1      45.419   2.218   8.526  0.00  0.00    +0.000 A 
ATOM     27  N   UNL     1      45.915   3.462   8.195  0.00  0.00    +0.000 N 
ATOM     28  C   UNL     1      46.741   3.649   7.020  0.00  0.00    +0.000 C 
ATOM     29  C   UNL     1      45.656   4.578   8.981  0.00  0.00    +0.000 A 
ATOM     30  O   UNL     1      46.123   5.685   8.730  0.00  0.00    +0.000 OA
ATOM     31  C   UNL     1      44.814   4.331  10.139  0.00  0.00    +0.000 A 
ENDBRANCH  18  21
ENDBRANCH   2  17
TORSDOF 6
ENDMDL
MODEL 8
REMARK VINA RESULT:    -6.523      2.235      2.819
REMARK INTER + INTRA:          -9.958
REMARK INTER:                  -9.900
REMARK INTRA:                  -0.057
REMARK UNBOUND:                -1.147
REMARK  Name = 
REMARK  8 active torsions:
REMARK  status: ('A' for Active; 'I' for Inactive)
REMARK    1  A    between atoms: C_1  and  C_2
REMARK    2  A    between atoms: C_2  and  N_3
REMARK    3  A    between atoms: C_2  and  C_17
REMARK    4  A    between atoms: C_4  and  C_6
REMARK    5  A    between atoms: N_12  and  C_13
REMARK    6  A    between atoms: C_20  and  O_21
REMARK    7  A    between atoms: O_21  and  C_22
REMARK    8  A    between atoms: C_22  and  C_23
REMARK                            x       y       z     vdW  Elec       q    Type
REMARK                         _______ _______ _______ _____ _____    ______ ____
ROOT
ATOM      1  C   UNL     1      48.430   8.300  12.386  0.00  0.00    +0.000 C 
ATOM      2  C   UNL     1      47.124   7.947  13.108  0.00  0.00    +0.000 C 
ENDROOT
BRANCH   2   3
ATOM      3  C   UNL     1      46.311   6.883  12.385  0.00  0.00    +0.000 A 
ATOM      4  C   UNL     1      45.375   7.259  11.408  0.00  0.00    +0.000 A 
ATOM      5  C   UNL     1      44.614   6.294  10.739  0.00  0.00    +0.000 A 
ATOM      6  C   UNL     1      44.778   4.941  11.034  0.00  0.00    +0.000 A 
ATOM      7  C   UNL     1      45.644   4.567  12.059  0.00  0.00    +0.000 A 
ATOM      8  C   UNL     1      46.402   5.528  12.726  0.00  0.00    +0.000 A 
BRANCH   6   9
ATOM      9  O   UNL     1      44.053   4.064  10.273  0.00  0.00    +0.000 OA
BRANCH   9  10
ATOM     10  C   UNL     1      44.633   2.758  10.164  0.00  0.00    +0.000 C 
BRANCH  10  11
ATOM     11  C   UNL     1      45.405   2.624   8.876  0.00  0.00    +0.000 A 
ATOM     12  C   UNL     1      45.542   3.721   8.028  0.00  0.00    +0.000 A 
ATOM     13  C   UNL     1      46.318   3.593   6.882  0.00  0.00    +0.000 A 
ATOM     14  C   UNL     1      46.938   2.378   6.614  0.00  0.00    +0.000 A 
ATOM     15  C   UNL     1      46.755   1.337   7.509  0.00  0.00    +0.000 A 
ATOM     16  N   UNL     1      46.013   1.434   8.632  0.00  0.00    +0.000 NA
ENDBRANCH  10  11
ENDBRANCH   9  10
ENDBRANCH   6   9
ENDBRANCH   2   3
BRANCH   2  17
ATOM     17  N   UNL     1      47.394   7.483  14.452  0.00  0.00    +0.000 N 
ATOM     18  C   UNL     1      48.575   6.907  14.832  0.00  0.00    +0.000 C 
ATOM     19  O   UNL     1      49.486   6.685  14.039  0.00  0.00    +0.000 OA
ATOM     20  H   UNL     1      46.738   7.781  15.166  0.00  0.00    +0.000 HD
BRANCH  18  21
ATOM     21  C   UNL     1      48.667   6.509  16.244  0.00  0.00    +0.000 A 
ATOM     22  C   UNL     1      48.887   5.179  16.574  0.00  0.00    +0.000 A 
ATOM     23  S   UNL     1      48.907   4.889  18.254  0.00  0.00    +0.000 S 
ATOM     24  C   UNL     1      48.672   6.539  18.600  0.00  0.00    +0.000 A 
ATOM     25  N   UNL     1      48.606   6.984  19.880  0.00  0.00    +0.000 NA
ATOM     26  C   UNL     1      48.454   8.263  19.999  0.00  0.00    +0.000 A 
ATOM     27  N   UNL     1      48.355   9.157  18.952  0.00  0.00    +0.000 N 
ATOM     28  C   UNL     1      48.191  10.575  19.194  0.00  0.00    +0.000 C 
ATOM     29  C   UNL     1      48.392   8.730  17.631  0.00  0.00    +0.000 A 
ATOM     30  O   UNL     1      48.263   9.502  16.685  0.00  0.00    +0.000 OA
ATOM     31  C   UNL     1      48.569   7.300  17.451  0.00  0.00    +0.000 A 
ENDBRANCH  18  21
ENDBRANCH   2  17
TORSDOF 6
ENDMDL
MODEL 9
REMARK VINA RESULT:    -6.488      2.720      8.593
REMARK INTER + INTRA:          -9.910
REMARK INTER:                  -9.388
REMARK INTRA:                  -0.523
REMARK UNBOUND:                -1.147
REMARK  Name = 
REMARK  8 active torsions:
REMARK  status: ('A' for Active; 'I' for Inactive)
REMARK    1  A    between atoms: C_1  and  C_2
REMARK    2  A    between atoms: C_2  and  N_3
REMARK    3  A    between atoms: C_2  and  C_17
REMARK    4  A    between atoms: C_4  and  C_6
REMARK    5  A    between atoms: N_12  and  C_13
REMARK    6  A    between atoms: C_20  and  O_21
REMARK    7  A    between atoms: O_21  and  C_22
REMARK    8  A    between atoms: C_22  and  C_23
REMARK                            x       y       z     vdW  Elec       q    Type
REMARK                         _______ _______ _______ _____ _____    ______ ____
ROOT
ATOM      1  C   UNL     1      45.467   9.142  12.841  0.00  0.00    +0.000 C 
ATOM      2  C   UNL     1      46.584   8.171  12.438  0.00  0.00    +0.000 C 
ENDROOT
BRANCH   2   3
ATOM      3  C   UNL     1      47.663   8.030  13.501  0.00  0.00    +0.000 A 
ATOM      4  C   UNL     1      47.640   8.853  14.640  0.00  0.00    +0.000 A 
ATOM      5  C   UNL     1      48.629   8.741  15.623  0.00  0.00    +0.000 A 
ATOM      6  C   UNL     1      49.654   7.805  15.485  0.00  0.00    +0.000 A 
ATOM      7  C   UNL     1      49.730   7.044  14.321  0.00  0.00    +0.000 A 
ATOM      8  C   UNL     1      48.746   7.156  13.341  0.00  0.00    +0.000 A 
BRANCH   6   9
ATOM      9  O   UNL     1      50.529   7.709  16.534  0.00  0.00    +0.000 OA
BRANCH   9  10
ATOM     10  C   UNL     1      49.924   7.313  17.772  0.00  0.00    +0.000 C 
BRANCH  10  11
ATOM     11  C   UNL     1      49.550   5.853  17.737  0.00  0.00    +0.000 A 
ATOM     12  C   UNL     1      50.537   4.884  17.561  0.00  0.00    +0.000 A 
ATOM     13  C   UNL     1      50.177   3.542  17.605  0.00  0.00    +0.000 A 
ATOM     14  C   UNL     1      48.848   3.201  17.826  0.00  0.00    +0.000 A 
ATOM     15  C   UNL     1      47.929   4.224  17.996  0.00  0.00    +0.000 A 
ATOM     16  N   UNL     1      48.249   5.535  17.965  0.00  0.00    +0.000 NA
ENDBRANCH  10  11
ENDBRANCH   9  10
ENDBRANCH   6   9
ENDBRANCH   2   3
BRANCH   2  17
ATOM     17  N   UNL     1      46.041   6.859  12.158  0.00  0.00    +0.000 N 
ATOM     18  C   UNL     1      44.917   6.648  11.408  0.00  0.00    +0.000 C 
ATOM     19  O   UNL     1      44.243   7.569  10.957  0.00  0.00    +0.000 OA
ATOM     20  H   UNL     1      46.643   6.073  12.379  0.00  0.00    +0.000 HD
BRANCH  18  21
ATOM     21  C   UNL     1      44.526   5.243  11.224  0.00  0.00    +0.000 A 
ATOM     22  C   UNL     1      43.715   4.623  12.164  0.00  0.00    +0.000 A 
ATOM     23  S   UNL     1      43.411   2.980  11.823  0.00  0.00    +0.000 S 
ATOM     24  C   UNL     1      44.312   3.054  10.381  0.00  0.00    +0.000 A 
ATOM     25  N   UNL     1      44.444   1.965   9.581  0.00  0.00    +0.000 NA
ATOM     26  C   UNL     1      45.130   2.168   8.504  0.00  0.00    +0.000 A 
ATOM     27  N   UNL     1      45.711   3.365   8.140  0.00  0.00    +0.000 N 
ATOM     28  C   UNL     1      46.457   3.489   6.905  0.00  0.00    +0.000 C 
ATOM     29  C   UNL     1      45.615   4.491   8.948  0.00  0.00    +0.000 A 
ATOM     30  O   UNL     1      46.160   5.555   8.665  0.00  0.00    +0.000 OA
ATOM     31  C   UNL     1      44.847   4.309  10.167  0.00  0.00    +0.000 A 
ENDBRANCH  18  21
ENDBRANCH   2  17
TORSDOF 6
ENDMDL
