MODEL 1
REMARK VINA RESULT:    -7.541      0.000      0.000
REMARK INTER + INTRA:         -10.988
REMARK INTER:                 -10.626
REMARK INTRA:                  -0.361
REMARK UNBOUND:                -0.361
REMARK  Name = 
REMARK  9 active torsions:
REMARK  status: ('A' for Active; 'I' for Inactive)
REMARK    1  A    between atoms: C_1  and  N_2
REMARK    2  A    between atoms: N_2  and  C_3
REMARK    3  A    between atoms: N_2  and  C_4
REMARK    4  A    between atoms: C_4  and  C_5
REMARK    5  A    between atoms: C_5  and  O_6
REMARK    6  A    between atoms: O_6  and  C_7
REMARK    7  A    between atoms: C_9  and  C_10
REMARK    8  A    between atoms: C_10  and  N_11
REMARK    9  A    between atoms: C_15  and  C_16
REMARK                            x       y       z     vdW  Elec       q    Type
REMARK                         _______ _______ _______ _____ _____    ______ ____
ROOT
ATOM      1  C   UNL     1      43.722   3.956  10.901  0.00  0.00    +0.000 C 
ENDROOT
BRANCH   1   2
ATOM      2  N   UNL     1      44.139   2.636  10.436  0.00  0.00    +0.000 N 
ATOM      3  C   UNL     1      45.012   2.609   9.336  0.00  0.00    +0.000 A 
ATOM      4  C   UNL     1      45.449   1.376   8.827  0.00  0.00    +0.000 A 
ATOM      5  N   UNL     1      46.274   1.233   7.753  0.00  0.00    +0.000 NA
ATOM      6  C   UNL     1      46.680   2.409   7.206  0.00  0.00    +0.000 A 
ATOM      7  C   UNL     1      46.284   3.636   7.706  0.00  0.00    +0.000 A 
ATOM      8  N   UNL     1      45.448   3.754   8.771  0.00  0.00    +0.000 NA
ATOM      9  H   UNL     1      43.333   2.055  10.225  0.00  0.00    +0.000 HD
BRANCH   6  10
ATOM     10  C   UNL     1      47.561   2.360   6.007  0.00  0.00    +0.000 C 
ATOM     11  N   UNL     1      47.302   3.281   5.029  0.00  0.00    +0.000 N 
ATOM     12  O   UNL     1      48.476   1.554   5.905  0.00  0.00    +0.000 OA
ATOM     13  H   UNL     1      46.545   3.945   5.138  0.00  0.00    +0.000 HD
ATOM     14  H   UNL     1      47.885   3.302   4.205  0.00  0.00    +0.000 HD
ENDBRANCH   6  10
ENDBRANCH   1   2
BRANCH   1  17
ATOM     15  C   UNL     1      46.387   4.322  13.579  0.00  0.00    +0.000 A 
ATOM     16  C   UNL     1      45.523   3.721  12.677  0.00  0.00    +0.000 A 
ATOM     17  C   UNL     1      44.728   4.541  11.861  0.00  0.00    +0.000 A 
ATOM     18  C   UNL     1      44.884   5.923  11.964  0.00  0.00    +0.000 A 
ATOM     19  C   UNL     1      45.803   6.429  12.868  0.00  0.00    +0.000 A 
ATOM     20  N   UNL     1      46.548   5.658  13.683  0.00  0.00    +0.000 NA
BRANCH  15  21
ATOM     21  O   UNL     1      47.124   3.489  14.406  0.00  0.00    +0.000 OA
BRANCH  21  22
ATOM     22  C   UNL     1      47.447   4.141  15.645  0.00  0.00    +0.000 C 
BRANCH  22  23
ATOM     23  C   UNL     1      48.022   3.127  16.647  0.00  0.00    +0.000 C 
BRANCH  23  25
ATOM     24  C   UNL     1      49.467   4.058  18.342  0.00  0.00    +0.000 C 
ATOM     25  N   UNL     1      49.424   3.393  17.039  0.00  0.00    +0.000 NA
ATOM     26  C   UNL     1      50.234   2.173  17.080  0.00  0.00    +0.000 C 
ENDBRANCH  23  25
ENDBRANCH  22  23
ENDBRANCH  21  22
ENDBRANCH  15  21
ENDBRANCH   1  17
TORSDOF 7
ENDMDL
MODEL 2
REMARK VINA RESULT:    -7.044      2.288      8.733
REMARK INTER + INTRA:         -10.288
REMARK INTER:                  -9.863
REMARK INTRA:                  -0.425
REMARK UNBOUND:                -0.361
REMARK  Name = 
REMARK  9 active torsions:
REMARK  status: ('A' for Active; 'I' for Inactive)
REMARK    1  A    between atoms: C_1  and  N_2
REMARK    2  A    between atoms: N_2  and  C_3
REMARK    3  A    between atoms: N_2  and  C_4
REMARK    4  A    between atoms: C_4  and  C_5
REMARK    5  A    between atoms: C_5  and  O_6
REMARK    6  A    between atoms: O_6  and  C_7
REMARK    7  A    between atoms: C_9  and  C_10
REMARK    8  A    between atoms: C_10  and  N_11
REMARK    9  A    between atoms: C_15  and  C_16
REMARK                            x       y       z     vdW  Elec       q    Type
REMARK                         _______ _______ _______ _____ _____    ______ ____
ROOT
ATOM      1  C   UNL     1      46.767   4.567  13.645  0.00  0.00    +0.000 C 
ENDROOT
BRANCH   1   2
ATOM      2  N   UNL     1      46.807   3.620  14.756  0.00  0.00    +0.000 N 
ATOM      3  C   UNL     1      47.560   4.005  15.877  0.00  0.00    +0.000 A 
ATOM      4  C   UNL     1      47.653   3.142  16.981  0.00  0.00    +0.000 A 
ATOM      5  N   UNL     1      48.372   3.404  18.107  0.00  0.00    +0.000 NA
ATOM      6  C   UNL     1      48.994   4.613  18.099  0.00  0.00    +0.000 A 
ATOM      7  C   UNL     1      48.896   5.489  17.034  0.00  0.00    +0.000 A 
ATOM      8  N   UNL     1      48.183   5.201  15.914  0.00  0.00    +0.000 NA
ATOM      9  H   UNL     1      47.133   2.709  14.443  0.00  0.00    +0.000 HD
BRANCH   6  10
ATOM     10  C   UNL     1      49.832   4.980  19.273  0.00  0.00    +0.000 C 
ATOM     11  N   UNL     1      49.537   4.347  20.448  0.00  0.00    +0.000 N 
ATOM     12  O   UNL     1      50.745   5.791  19.192  0.00  0.00    +0.000 OA
ATOM     13  H   UNL     1      48.781   3.672  20.491  0.00  0.00    +0.000 HD
ATOM     14  H   UNL     1      50.090   4.546  21.269  0.00  0.00    +0.000 HD
ENDBRANCH   6  10
ENDBRANCH   1   2
BRANCH   1  17
ATOM     15  C   UNL     1      44.010   3.520  11.255  0.00  0.00    +0.000 A 
ATOM     16  C   UNL     1      45.216   3.502  11.939  0.00  0.00    +0.000 A 
ATOM     17  C   UNL     1      45.453   4.489  12.907  0.00  0.00    +0.000 A 
ATOM     18  C   UNL     1      44.441   5.412  13.170  0.00  0.00    +0.000 A 
ATOM     19  C   UNL     1      43.254   5.325  12.464  0.00  0.00    +0.000 A 
ATOM     20  N   UNL     1      43.023   4.407  11.506  0.00  0.00    +0.000 NA
BRANCH  15  21
ATOM     21  O   UNL     1      43.822   2.564  10.270  0.00  0.00    +0.000 OA
BRANCH  21  22
ATOM     22  C   UNL     1      44.527   2.913   9.068  0.00  0.00    +0.000 C 
BRANCH  22  23
ATOM     23  C   UNL     1      45.560   1.827   8.722  0.00  0.00    +0.000 C 
BRANCH  23  25
ATOM     24  C   UNL     1      47.233   1.158   7.115  0.00  0.00    +0.000 C 
ATOM     25  N   UNL     1      46.650   2.292   7.834  0.00  0.00    +0.000 NA
ATOM     26  C   UNL     1      46.197   3.304   6.877  0.00  0.00    +0.000 C 
ENDBRANCH  23  25
ENDBRANCH  22  23
ENDBRANCH  21  22
ENDBRANCH  15  21
ENDBRANCH   1  17
TORSDOF 7
ENDMDL
MODEL 3
REMARK VINA RESULT:    -6.357      2.836      4.348
REMARK INTER + INTRA:          -9.319
REMARK INTER:                  -8.893
REMARK INTRA:                  -0.425
REMARK UNBOUND:                -0.361
REMARK  Name = 
REMARK  9 active torsions:
REMARK  status: ('A' for Active; 'I' for Inactive)
REMARK    1  A    between atoms: C_1  and  N_2
REMARK    2  A    between atoms: N_2  and  C_3
REMARK    3  A    between atoms: N_2  and  C_4
REMARK    4  A    between atoms: C_4  and  C_5
REMARK    5  A    between atoms: C_5  and  O_6
REMARK    6  A    between atoms: O_6  and  C_7
REMARK    7  A    between atoms: C_9  and  C_10
REMARK    8  A    between atoms: C_10  and  N_11
REMARK    9  A    between atoms: C_15  and  C_16
REMARK                            x       y       z     vdW  Elec       q    Type
REMARK                         _______ _______ _______ _____ _____    ______ ____
ROOT
ATOM      1  C   UNL     1      43.575   4.804  10.912  0.00  0.00    +0.000 C 
ENDROOT
BRANCH   1   2
ATOM      2  N   UNL     1      43.927   3.436  10.544  0.00  0.00    +0.000 N 
ATOM      3  C   UNL     1      44.801   3.288   9.454  0.00  0.00    +0.000 A 
ATOM      4  C   UNL     1      45.178   2.002   9.035  0.00  0.00    +0.000 A 
ATOM      5  N   UNL     1      45.998   1.744   7.981  0.00  0.00    +0.000 NA
ATOM      6  C   UNL     1      46.465   2.856   7.355  0.00  0.00    +0.000 A 
ATOM      7  C   UNL     1      46.128   4.133   7.765  0.00  0.00    +0.000 A 
ATOM      8  N   UNL     1      45.296   4.367   8.813  0.00  0.00    +0.000 NA
ATOM      9  H   UNL     1      43.093   2.882  10.367  0.00  0.00    +0.000 HD
BRANCH   6  10
ATOM     10  C   UNL     1      47.346   2.679   6.168  0.00  0.00    +0.000 C 
ATOM     11  N   UNL     1      48.662   2.413   6.428  0.00  0.00    +0.000 N 
ATOM     12  O   UNL     1      46.918   2.751   5.024  0.00  0.00    +0.000 OA
ATOM     13  H   UNL     1      48.994   2.349   7.383  0.00  0.00    +0.000 HD
ATOM     14  H   UNL     1      49.297   2.264   5.657  0.00  0.00    +0.000 HD
ENDBRANCH   6  10
ENDBRANCH   1   2
BRANCH   1  17
ATOM     15  C   UNL     1      46.070   7.249  12.397  0.00  0.00    +0.000 A 
ATOM     16  C   UNL     1      45.048   6.754  11.600  0.00  0.00    +0.000 A 
ATOM     17  C   UNL     1      44.637   5.426  11.785  0.00  0.00    +0.000 A 
ATOM     18  C   UNL     1      45.243   4.682  12.797  0.00  0.00    +0.000 A 
ATOM     19  C   UNL     1      46.227   5.276  13.567  0.00  0.00    +0.000 A 
ATOM     20  N   UNL     1      46.660   6.537  13.381  0.00  0.00    +0.000 NA
BRANCH  15  21
ATOM     21  O   UNL     1      46.490   8.548  12.161  0.00  0.00    +0.000 OA
BRANCH  21  22
ATOM     22  C   UNL     1      47.880   8.711  12.488  0.00  0.00    +0.000 C 
BRANCH  22  23
ATOM     23  C   UNL     1      48.133  10.120  13.050  0.00  0.00    +0.000 C 
BRANCH  23  25
ATOM     24  C   UNL     1      50.475  10.305  12.495  0.00  0.00    +0.000 C 
ATOM     25  N   UNL     1      49.149  10.895  12.304  0.00  0.00    +0.000 NA
ATOM     26  C   UNL     1      48.847  10.979  10.872  0.00  0.00    +0.000 C 
ENDBRANCH  23  25
ENDBRANCH  22  23
ENDBRANCH  21  22
ENDBRANCH  15  21
ENDBRANCH   1  17
TORSDOF 7
ENDMDL
MODEL 4
REMARK VINA RESULT:    -6.325      2.494      8.994
REMARK INTER + INTRA:          -9.274
REMARK INTER:                  -8.764
REMARK INTRA:                  -0.510
REMARK UNBOUND:                -0.361
REMARK  Name = 
REMARK  9 active torsions:
REMARK  status: ('A' for Active; 'I' for Inactive)
REMARK    1  A    between atoms: C_1  and  N_2
REMARK    2  A    between atoms: N_2  and  C_3
REMARK    3  A    between atoms: N_2  and  C_4
REMARK    4  A    between atoms: C_4  and  C_5
REMARK    5  A    between atoms: C_5  and  O_6
REMARK    6  A    between atoms: O_6  and  C_7
REMARK    7  A    between atoms: C_9  and  C_10
REMARK    8  A    between atoms: C_10  and  N_11
REMARK    9  A    between atoms: C_15  and  C_16
REMARK                            x       y       z     vdW  Elec       q    Type
REMARK                         _______ _______ _______ _____ _____    ______ ____
ROOT
ATOM      1  C   UNL     1      46.762   4.380  14.083  0.00  0.00    +0.000 C 
ENDROOT
BRANCH   1   2
ATOM      2  N   UNL     1      47.502   5.480  14.697  0.00  0.00    +0.000 N 
ATOM      3  C   UNL     1      47.951   5.273  16.011  0.00  0.00    +0.000 A 
ATOM      4  C   UNL     1      48.662   6.289  16.670  0.00  0.00    +0.000 A 
ATOM      5  N   UNL     1      49.123   6.204  17.948  0.00  0.00    +0.000 NA
ATOM      6  C   UNL     1      48.861   5.016  18.554  0.00  0.00    +0.000 A 
ATOM      7  C   UNL     1      48.186   3.992  17.917  0.00  0.00    +0.000 A 
ATOM      8  N   UNL     1      47.723   4.104  16.644  0.00  0.00    +0.000 NA
ATOM      9  H   UNL     1      46.960   6.339  14.671  0.00  0.00    +0.000 HD
BRANCH   6  10
ATOM     10  C   UNL     1      49.297   4.836  19.966  0.00  0.00    +0.000 C 
ATOM     11  N   UNL     1      48.613   3.903  20.695  0.00  0.00    +0.000 N 
ATOM     12  O   UNL     1      50.225   5.472  20.447  0.00  0.00    +0.000 OA
ATOM     13  H   UNL     1      47.853   3.380  20.275  0.00  0.00    +0.000 HD
ATOM     14  H   UNL     1      48.884   3.728  21.652  0.00  0.00    +0.000 HD
ENDBRANCH   6  10
ENDBRANCH   1   2
BRANCH   1  17
ATOM     15  C   UNL     1      44.116   4.550  11.367  0.00  0.00    +0.000 A 
ATOM     16  C   UNL     1      44.997   4.014  12.295  0.00  0.00    +0.000 A 
ATOM     17  C   UNL     1      45.741   4.892  13.097  0.00  0.00    +0.000 A 
ATOM     18  C   UNL     1      45.522   6.262  12.955  0.00  0.00    +0.000 A 
ATOM     19  C   UNL     1      44.592   6.700  12.029  0.00  0.00    +0.000 A 
ATOM     20  N   UNL     1      43.894   5.874  11.226  0.00  0.00    +0.000 NA
BRANCH  15  21
ATOM     21  O   UNL     1      43.430   3.662  10.555  0.00  0.00    +0.000 OA
BRANCH  21  22
ATOM     22  C   UNL     1      44.336   2.864   9.776  0.00  0.00    +0.000 C 
BRANCH  22  23
ATOM     23  C   UNL     1      44.734   3.609   8.491  0.00  0.00    +0.000 C 
BRANCH  23  25
ATOM     24  C   UNL     1      46.764   3.666   7.186  0.00  0.00    +0.000 C 
ATOM     25  N   UNL     1      45.628   2.839   7.598  0.00  0.00    +0.000 NA
ATOM     26  C   UNL     1      46.116   1.607   8.223  0.00  0.00    +0.000 C 
ENDBRANCH  23  25
ENDBRANCH  22  23
ENDBRANCH  21  22
ENDBRANCH  15  21
ENDBRANCH   1  17
TORSDOF 7
ENDMDL
MODEL 5
REMARK VINA RESULT:    -6.159      2.909      8.601
REMARK INTER + INTRA:          -9.040
REMARK INTER:                  -8.307
REMARK INTRA:                  -0.734
REMARK UNBOUND:                -0.361
REMARK  Name = 
REMARK  9 active torsions:
REMARK  status: ('A' for Active; 'I' for Inactive)
REMARK    1  A    between atoms: C_1  and  N_2
REMARK    2  A    between atoms: N_2  and  C_3
REMARK    3  A    between atoms: N_2  and  C_4
REMARK    4  A    between atoms: C_4  and  C_5
REMARK    5  A    between atoms: C_5  and  O_6
REMARK    6  A    between atoms: O_6  and  C_7
REMARK    7  A    between atoms: C_9  and  C_10
REMARK    8  A    between atoms: C_10  and  N_11
REMARK    9  A    between atoms: C_15  and  C_16
REMARK                            x       y       z     vdW  Elec       q    Type
REMARK                         _______ _______ _______ _____ _____    ______ ____
ROOT
ATOM      1  C   UNL     1      48.339   6.268  13.089  0.00  0.00    +0.000 C 
ENDROOT
BRANCH   1   2
ATOM      2  N   UNL     1      48.618   7.085  14.266  0.00  0.00    +0.000 N 
ATOM      3  C   UNL     1      48.597   6.423  15.504  0.00  0.00    +0.000 A 
ATOM      4  C   UNL     1      48.847   7.145  16.683  0.00  0.00    +0.000 A 
ATOM      5  N   UNL     1      48.829   6.610  17.934  0.00  0.00    +0.000 NA
ATOM      6  C   UNL     1      48.570   5.276  17.963  0.00  0.00    +0.000 A 
ATOM      7  C   UNL     1      48.347   4.539  16.815  0.00  0.00    +0.000 A 
ATOM      8  N   UNL     1      48.356   5.097  15.576  0.00  0.00    +0.000 NA
ATOM      9  H   UNL     1      47.986   7.879  14.313  0.00  0.00    +0.000 HD
BRANCH   6  10
ATOM     10  C   UNL     1      48.498   4.601  19.289  0.00  0.00    +0.000 C 
ATOM     11  N   UNL     1      48.403   3.238  19.268  0.00  0.00    +0.000 N 
ATOM     12  O   UNL     1      48.539   5.227  20.339  0.00  0.00    +0.000 OA
ATOM     13  H   UNL     1      48.379   2.738  18.387  0.00  0.00    +0.000 HD
ATOM     14  H   UNL     1      48.372   2.732  20.142  0.00  0.00    +0.000 HD
ENDBRANCH   6  10
ENDBRANCH   1   2
BRANCH   1  17
ATOM     15  C   UNL     1      44.685   5.450  12.469  0.00  0.00    +0.000 A 
ATOM     16  C   UNL     1      45.990   5.317  12.917  0.00  0.00    +0.000 A 
ATOM     17  C   UNL     1      46.889   6.369  12.684  0.00  0.00    +0.000 A 
ATOM     18  C   UNL     1      46.410   7.519  12.056  0.00  0.00    +0.000 A 
ATOM     19  C   UNL     1      45.080   7.573  11.681  0.00  0.00    +0.000 A 
ATOM     20  N   UNL     1      44.212   6.560  11.864  0.00  0.00    +0.000 NA
BRANCH  15  21
ATOM     21  O   UNL     1      43.831   4.376  12.669  0.00  0.00    +0.000 OA
BRANCH  21  22
ATOM     22  C   UNL     1      43.202   3.978  11.440  0.00  0.00    +0.000 C 
BRANCH  22  23
ATOM     23  C   UNL     1      43.898   2.734  10.863  0.00  0.00    +0.000 C 
BRANCH  23  25
ATOM     24  C   UNL     1      45.073   1.857   8.945  0.00  0.00    +0.000 C 
ATOM     25  N   UNL     1      44.880   3.032   9.797  0.00  0.00    +0.000 NA
ATOM     26  C   UNL     1      44.483   4.177   8.974  0.00  0.00    +0.000 C 
ENDBRANCH  23  25
ENDBRANCH  22  23
ENDBRANCH  21  22
ENDBRANCH  15  21
ENDBRANCH   1  17
TORSDOF 7
ENDMDL
MODEL 6
REMARK VINA RESULT:    -6.121      2.679      3.998
REMARK INTER + INTRA:          -8.987
REMARK INTER:                  -8.298
REMARK INTRA:                  -0.688
REMARK UNBOUND:                -0.361
REMARK  Name = 
REMARK  9 active torsions:
REMARK  status: ('A' for Active; 'I' for Inactive)
REMARK    1  A    between atoms: C_1  and  N_2
REMARK    2  A    between atoms: N_2  and  C_3
REMARK    3  A    between atoms: N_2  and  C_4
REMARK    4  A    between atoms: C_4  and  C_5
REMARK    5  A    between atoms: C_5  and  O_6
REMARK    6  A    between atoms: O_6  and  C_7
REMARK    7  A    between atoms: C_9  and  C_10
REMARK    8  A    between atoms: C_10  and  N_11
REMARK    9  A    between atoms: C_15  and  C_16
REMARK                            x       y       z     vdW  Elec       q    Type
REMARK                         _______ _______ _______ _____ _____    ______ ____
ROOT
ATOM      1  C   UNL     1      46.042   7.758  12.888  0.00  0.00    +0.000 C 
ENDROOT
BRANCH   1   2
ATOM      2  N   UNL     1      45.509   6.440  13.219  0.00  0.00    +0.000 N 
ATOM      3  C   UNL     1      45.304   5.562  12.142  0.00  0.00    +0.000 A 
ATOM      4  C   UNL     1      44.784   4.279  12.381  0.00  0.00    +0.000 A 
ATOM      5  N   UNL     1      44.525   3.359  11.412  0.00  0.00    +0.000 NA
ATOM      6  C   UNL     1      44.839   3.773  10.156  0.00  0.00    +0.000 A 
ATOM      7  C   UNL     1      45.375   5.021   9.899  0.00  0.00    +0.000 A 
ATOM      8  N   UNL     1      45.613   5.929  10.881  0.00  0.00    +0.000 NA
ATOM      9  H   UNL     1      44.641   6.521  13.741  0.00  0.00    +0.000 HD
BRANCH   6  10
ATOM     10  C   UNL     1      44.563   2.849   9.021  0.00  0.00    +0.000 C 
ATOM     11  N   UNL     1      44.344   3.435   7.805  0.00  0.00    +0.000 N 
ATOM     12  O   UNL     1      44.548   1.634   9.161  0.00  0.00    +0.000 OA
ATOM     13  H   UNL     1      44.369   4.444   7.710  0.00  0.00    +0.000 HD
ATOM     14  H   UNL     1      44.172   2.850   7.000  0.00  0.00    +0.000 HD
ENDBRANCH   6  10
ENDBRANCH   1   2
BRANCH   1  17
ATOM     15  C   UNL     1      49.551   7.313  14.267  0.00  0.00    +0.000 A 
ATOM     16  C   UNL     1      48.175   7.192  14.146  0.00  0.00    +0.000 A 
ATOM     17  C   UNL     1      47.542   7.797  13.050  0.00  0.00    +0.000 A 
ATOM     18  C   UNL     1      48.337   8.451  12.108  0.00  0.00    +0.000 A 
ATOM     19  C   UNL     1      49.707   8.485  12.295  0.00  0.00    +0.000 A 
ATOM     20  N   UNL     1      50.328   7.941  13.359  0.00  0.00    +0.000 NA
BRANCH  15  21
ATOM     21  O   UNL     1      50.144   6.747  15.384  0.00  0.00    +0.000 OA
BRANCH  21  22
ATOM     22  C   UNL     1      49.159   6.377  16.363  0.00  0.00    +0.000 C 
BRANCH  22  23
ATOM     23  C   UNL     1      49.599   5.105  17.108  0.00  0.00    +0.000 C 
BRANCH  23  25
ATOM     24  C   UNL     1      49.119   2.810  17.682  0.00  0.00    +0.000 C 
ATOM     25  N   UNL     1      48.829   3.895  16.744  0.00  0.00    +0.000 NA
ATOM     26  C   UNL     1      47.385   4.142  16.706  0.00  0.00    +0.000 C 
ENDBRANCH  23  25
ENDBRANCH  22  23
ENDBRANCH  21  22
ENDBRANCH  15  21
ENDBRANCH   1  17
TORSDOF 7
ENDMDL
MODEL 7
REMARK VINA RESULT:    -6.090      3.307      7.661
REMARK INTER + INTRA:          -8.943
REMARK INTER:                  -8.376
REMARK INTRA:                  -0.568
REMARK UNBOUND:                -0.361
REMARK  Name = 
REMARK  9 active torsions:
REMARK  status: ('A' for Active; 'I' for Inactive)
REMARK    1  A    between atoms: C_1  and  N_2
REMARK    2  A    between atoms: N_2  and  C_3
REMARK    3  A    between atoms: N_2  and  C_4
REMARK    4  A    between atoms: C_4  and  C_5
REMARK    5  A    between atoms: C_5  and  O_6
REMARK    6  A    between atoms: O_6  and  C_7
REMARK    7  A    between atoms: C_9  and  C_10
REMARK    8  A    between atoms: C_10  and  N_11
REMARK    9  A    between atoms: C_15  and  C_16
REMARK                            x       y       z     vdW  Elec       q    Type
REMARK                         _______ _______ _______ _____ _____    ______ ____
ROOT
ATOM      1  C   UNL     1      46.710   4.335  13.572  0.00  0.00    +0.000 C 
ENDROOT
BRANCH   1   2
ATOM      2  N   UNL     1      46.891   5.527  14.394  0.00  0.00    +0.000 N 
ATOM      3  C   UNL     1      47.866   6.441  13.963  0.00  0.00    +0.000 A 
ATOM      4  C   UNL     1      48.103   7.607  14.709  0.00  0.00    +0.000 A 
ATOM      5  N   UNL     1      49.038   8.546  14.396  0.00  0.00    +0.000 NA
ATOM      6  C   UNL     1      49.731   8.281  13.257  0.00  0.00    +0.000 A 
ATOM      7  C   UNL     1      49.497   7.153  12.493  0.00  0.00    +0.000 A 
ATOM      8  N   UNL     1      48.568   6.221  12.832  0.00  0.00    +0.000 NA
ATOM      9  H   UNL     1      47.087   5.275  15.359  0.00  0.00    +0.000 HD
BRANCH   6  10
ATOM     10  C   UNL     1      50.799   9.233  12.845  0.00  0.00    +0.000 C 
ATOM     11  N   UNL     1      51.295  10.046  13.827  0.00  0.00    +0.000 N 
ATOM     12  O   UNL     1      51.222   9.279  11.698  0.00  0.00    +0.000 OA
ATOM     13  H   UNL     1      50.936   9.986  14.773  0.00  0.00    +0.000 HD
ATOM     14  H   UNL     1      52.035  10.695  13.603  0.00  0.00    +0.000 HD
ENDBRANCH   6  10
ENDBRANCH   1   2
BRANCH   1  17
ATOM     15  C   UNL     1      44.049   3.708  10.939  0.00  0.00    +0.000 A 
ATOM     16  C   UNL     1      45.200   3.537  11.692  0.00  0.00    +0.000 A 
ATOM     17  C   UNL     1      45.447   4.424  12.750  0.00  0.00    +0.000 A 
ATOM     18  C   UNL     1      44.496   5.406  13.023  0.00  0.00    +0.000 A 
ATOM     19  C   UNL     1      43.357   5.473  12.240  0.00  0.00    +0.000 A 
ATOM     20  N   UNL     1      43.120   4.653  11.198  0.00  0.00    +0.000 NA
BRANCH  15  21
ATOM     21  O   UNL     1      43.854   2.848   9.870  0.00  0.00    +0.000 OA
BRANCH  21  22
ATOM     22  C   UNL     1      45.107   2.374   9.350  0.00  0.00    +0.000 C 
BRANCH  22  23
ATOM     23  C   UNL     1      45.465   3.123   8.056  0.00  0.00    +0.000 C 
BRANCH  23  25
ATOM     24  C   UNL     1      46.884   1.217   7.627  0.00  0.00    +0.000 C 
ATOM     25  N   UNL     1      46.714   2.655   7.413  0.00  0.00    +0.000 NA
ATOM     26  C   UNL     1      46.747   2.948   5.978  0.00  0.00    +0.000 C 
ENDBRANCH  23  25
ENDBRANCH  22  23
ENDBRANCH  21  22
ENDBRANCH  15  21
ENDBRANCH   1  17
TORSDOF 7
ENDMDL
MODEL 8
REMARK VINA RESULT:    -5.938      2.795      9.134
REMARK INTER + INTRA:          -8.729
REMARK INTER:                  -8.133
REMARK INTRA:                  -0.596
REMARK UNBOUND:                -0.361
REMARK  Name = 
REMARK  9 active torsions:
REMARK  status: ('A' for Active; 'I' for Inactive)
REMARK    1  A    between atoms: C_1  and  N_2
REMARK    2  A    between atoms: N_2  and  C_3
REMARK    3  A    between atoms: N_2  and  C_4
REMARK    4  A    between atoms: C_4  and  C_5
REMARK    5  A    between atoms: C_5  and  O_6
REMARK    6  A    between atoms: O_6  and  C_7
REMARK    7  A    between atoms: C_9  and  C_10
REMARK    8  A    between atoms: C_10  and  N_11
REMARK    9  A    between atoms: C_15  and  C_16
REMARK                            x       y       z     vdW  Elec       q    Type
REMARK                         _______ _______ _______ _____ _____    ______ ____
ROOT
ATOM      1  C   UNL     1      47.203   4.062  15.222  0.00  0.00    +0.000 C 
ENDROOT
BRANCH   1   2
ATOM      2  N   UNL     1      47.206   4.851  16.451  0.00  0.00    +0.000 N 
ATOM      3  C   UNL     1      48.369   4.781  17.235  0.00  0.00    +0.000 A 
ATOM      4  C   UNL     1      48.442   5.505  18.436  0.00  0.00    +0.000 A 
ATOM      5  N   UNL     1      49.508   5.491  19.282  0.00  0.00    +0.000 NA
ATOM      6  C   UNL     1      50.545   4.722  18.855  0.00  0.00    +0.000 A 
ATOM      7  C   UNL     1      50.506   4.022  17.664  0.00  0.00    +0.000 A 
ATOM      8  N   UNL     1      49.425   4.039  16.842  0.00  0.00    +0.000 NA
ATOM      9  H   UNL     1      46.407   4.615  17.034  0.00  0.00    +0.000 HD
BRANCH   6  10
ATOM     10  C   UNL     1      51.748   4.617  19.726  0.00  0.00    +0.000 C 
ATOM     11  N   UNL     1      52.566   3.546  19.498  0.00  0.00    +0.000 N 
ATOM     12  O   UNL     1      52.001   5.448  20.588  0.00  0.00    +0.000 OA
ATOM     13  H   UNL     1      52.342   2.874  18.773  0.00  0.00    +0.000 HD
ATOM     14  H   UNL     1      53.406   3.441  20.048  0.00  0.00    +0.000 HD
ENDBRANCH   6  10
ENDBRANCH   1   2
BRANCH   1  17
ATOM     15  C   UNL     1      44.925   5.472  12.534  0.00  0.00    +0.000 A 
ATOM     16  C   UNL     1      45.336   4.752  13.645  0.00  0.00    +0.000 A 
ATOM     17  C   UNL     1      46.672   4.864  14.060  0.00  0.00    +0.000 A 
ATOM     18  C   UNL     1      47.509   5.733  13.360  0.00  0.00    +0.000 A 
ATOM     19  C   UNL     1      46.996   6.440  12.287  0.00  0.00    +0.000 A 
ATOM     20  N   UNL     1      45.726   6.319  11.854  0.00  0.00    +0.000 NA
BRANCH  15  21
ATOM     21  O   UNL     1      43.613   5.306  12.118  0.00  0.00    +0.000 OA
BRANCH  21  22
ATOM     22  C   UNL     1      43.546   5.045  10.706  0.00  0.00    +0.000 C 
BRANCH  22  23
ATOM     23  C   UNL     1      43.837   3.561  10.424  0.00  0.00    +0.000 C 
BRANCH  23  25
ATOM     24  C   UNL     1      45.339   4.420   8.741  0.00  0.00    +0.000 C 
ATOM     25  N   UNL     1      44.461   3.308   9.106  0.00  0.00    +0.000 NA
ATOM     26  C   UNL     1      45.216   2.053   9.077  0.00  0.00    +0.000 C 
ENDBRANCH  23  25
ENDBRANCH  22  23
ENDBRANCH  21  22
ENDBRANCH  15  21
ENDBRANCH   1  17
TORSDOF 7
ENDMDL
MODEL 9
REMARK VINA RESULT:    -5.902      3.295      8.902
REMARK INTER + INTRA:          -8.678
REMARK INTER:                  -8.182
REMARK INTRA:                  -0.496
REMARK UNBOUND:                -0.361
REMARK  Name = 
REMARK  9 active torsions:
REMARK  status: ('A' for Active; 'I' for Inactive)
REMARK    1  A    between atoms: C_1  and  N_2
REMARK    2  A    between atoms: N_2  and  C_3
REMARK    3  A    between atoms: N_2  and  C_4
REMARK    4  A    between atoms: C_4  and  C_5
REMARK    5  A    between atoms: C_5  and  O_6
REMARK    6  A    between atoms: O_6  and  C_7
REMARK    7  A    between atoms: C_9  and  C_10
REMARK    8  A    between atoms: C_10  and  N_11
REMARK    9  A    between atoms: C_15  and  C_16
REMARK                            x       y       z     vdW  Elec       q    Type
REMARK                         _______ _______ _______ _____ _____    ______ ____
ROOT
ATOM      1  C   UNL     1      48.298   4.876  17.432  0.00  0.00    +0.000 C 
ENDROOT
BRANCH   1   2
ATOM      2  N   UNL     1      49.721   5.105  17.667  0.00  0.00    +0.000 N 
ATOM      3  C   UNL     1      50.551   3.973  17.619  0.00  0.00    +0.000 A 
ATOM      4  C   UNL     1      51.930   4.112  17.844  0.00  0.00    +0.000 A 
ATOM      5  N   UNL     1      52.820   3.083  17.844  0.00  0.00    +0.000 NA
ATOM      6  C   UNL     1      52.266   1.871  17.576  0.00  0.00    +0.000 A 
ATOM      7  C   UNL     1      50.916   1.712  17.326  0.00  0.00    +0.000 A 
ATOM      8  N   UNL     1      50.043   2.753  17.345  0.00  0.00    +0.000 NA
ATOM      9  H   UNL     1      49.870   5.579  18.553  0.00  0.00    +0.000 HD
BRANCH   6  10
ATOM     10  C   UNL     1      53.153   0.675  17.584  0.00  0.00    +0.000 C 
ATOM     11  N   UNL     1      52.790  -0.341  18.425  0.00  0.00    +0.000 N 
ATOM     12  O   UNL     1      54.142   0.594  16.869  0.00  0.00    +0.000 OA
ATOM     13  H   UNL     1      51.961  -0.257  19.003  0.00  0.00    +0.000 HD
ATOM     14  H   UNL     1      53.347  -1.183  18.452  0.00  0.00    +0.000 HD
ENDBRANCH   6  10
ENDBRANCH   1   2
BRANCH   1  17
ATOM     15  C   UNL     1      46.858   4.515  13.939  0.00  0.00    +0.000 A 
ATOM     16  C   UNL     1      47.109   4.252  15.277  0.00  0.00    +0.000 A 
ATOM     17  C   UNL     1      47.933   5.134  15.991  0.00  0.00    +0.000 A 
ATOM     18  C   UNL     1      48.422   6.261  15.330  0.00  0.00    +0.000 A 
ATOM     19  C   UNL     1      48.084   6.459  14.003  0.00  0.00    +0.000 A 
ATOM     20  N   UNL     1      47.323   5.605  13.292  0.00  0.00    +0.000 NA
BRANCH  15  21
ATOM     21  O   UNL     1      46.081   3.601  13.245  0.00  0.00    +0.000 OA
BRANCH  21  22
ATOM     22  C   UNL     1      44.816   4.173  12.873  0.00  0.00    +0.000 C 
BRANCH  22  23
ATOM     23  C   UNL     1      44.057   3.223  11.932  0.00  0.00    +0.000 C 
BRANCH  23  25
ATOM     24  C   UNL     1      42.620   5.109  11.478  0.00  0.00    +0.000 C 
ATOM     25  N   UNL     1      43.240   3.912  10.908  0.00  0.00    +0.000 NA
ATOM     26  C   UNL     1      44.021   4.278   9.724  0.00  0.00    +0.000 C 
ENDBRANCH  23  25
ENDBRANCH  22  23
ENDBRANCH  21  22
ENDBRANCH  15  21
ENDBRANCH   1  17
TORSDOF 7
ENDMDL
