MODEL 1
REMARK VINA RESULT:    -9.372      0.000      0.000
REMARK INTER + INTRA:         -11.983
REMARK INTER:                 -11.564
REMARK INTRA:                  -0.419
REMARK UNBOUND:                -0.419
REMARK  Name = 
REMARK  5 active torsions:
REMARK  status: ('A' for Active; 'I' for Inactive)
REMARK    1  A    between atoms: C_1  and  C_2
REMARK    2  A    between atoms: C_4  and  C_5
REMARK    3  A    between atoms: N_10  and  C_11
REMARK    4  A    between atoms: C_11  and  C_12
REMARK    5  A    between atoms: C_16  and  C_17
REMARK                            x       y       z     vdW  Elec       q    Type
REMARK                         _______ _______ _______ _____ _____    ______ ____
ROOT
ATOM      1  C   UNL     1      48.985   8.736  13.798  0.00  0.00    +0.000 C 
ATOM      2  C   UNL     1      48.005   7.618  13.619  0.00  0.00    +0.000 A 
ATOM      3  C   UNL     1      48.110   6.456  14.341  0.00  0.00    +0.000 A 
ATOM      4  C   UNL     1      47.148   5.510  14.067  0.00  0.00    +0.000 A 
ATOM      5  N   UNL     1      46.151   5.665  13.161  0.00  0.00    +0.000 NA
ATOM      6  C   UNL     1      46.142   6.824  12.502  0.00  0.00    +0.000 A 
ATOM      7  N   UNL     1      45.221   7.070  11.507  0.00  0.00    +0.000 N 
ATOM      8  N   UNL     1      47.026   7.808  12.708  0.00  0.00    +0.000 NA
ATOM      9  H   UNL     1      45.227   8.067  11.322  0.00  0.00    +0.000 HD
ENDROOT
BRANCH   4  10
ATOM     10  C   UNL     1      47.180   4.210  14.805  0.00  0.00    +0.000 C 
ATOM     11  N   UNL     1      46.812   4.264  16.121  0.00  0.00    +0.000 N 
ATOM     12  O   UNL     1      47.512   3.159  14.271  0.00  0.00    +0.000 OA
ATOM     13  H   UNL     1      46.480   5.137  16.516  0.00  0.00    +0.000 HD
ATOM     14  H   UNL     1      46.766   3.410  16.657  0.00  0.00    +0.000 HD
ENDBRANCH   4  10
BRANCH   7  15
ATOM     15  C   UNL     1      43.930   6.427  11.564  0.00  0.00    +0.000 C 
BRANCH  15  16
ATOM     16  C   UNL     1      43.996   5.010  11.069  0.00  0.00    +0.000 A 
ATOM     17  C   UNL     1      43.235   4.011  11.661  0.00  0.00    +0.000 A 
ATOM     18  N   UNL     1      43.244   2.721  11.266  0.00  0.00    +0.000 NA
ATOM     19  C   UNL     1      44.063   2.409  10.231  0.00  0.00    +0.000 A 
ATOM     20  C   UNL     1      44.880   3.312   9.545  0.00  0.00    +0.000 A 
ATOM     21  C   UNL     1      44.828   4.640  10.002  0.00  0.00    +0.000 A 
BRANCH  20  22
ATOM     22  C   UNL     1      45.742   2.898   8.415  0.00  0.00    +0.000 A 
ATOM     23  C   UNL     1      46.169   1.561   8.265  0.00  0.00    +0.000 A 
ATOM     24  C   UNL     1      46.992   1.173   7.203  0.00  0.00    +0.000 A 
ATOM     25  C   UNL     1      47.391   2.114   6.267  0.00  0.00    +0.000 A 
ATOM     26  F   UNL     1      48.176   1.744   5.248  0.00  0.00    +0.000 F 
ATOM     27  C   UNL     1      46.986   3.436   6.374  0.00  0.00    +0.000 A 
ATOM     28  C   UNL     1      46.172   3.824   7.444  0.00  0.00    +0.000 A 
ENDBRANCH  20  22
ENDBRANCH  15  16
ENDBRANCH   7  15
TORSDOF 4
ENDMDL
MODEL 2
REMARK VINA RESULT:    -8.702      2.314      3.104
REMARK INTER + INTRA:         -11.155
REMARK INTER:                 -10.441
REMARK INTRA:                  -0.714
REMARK UNBOUND:                -0.419
REMARK  Name = 
REMARK  5 active torsions:
REMARK  status: ('A' for Active; 'I' for Inactive)
REMARK    1  A    between atoms: C_1  and  C_2
REMARK    2  A    between atoms: C_4  and  C_5
REMARK    3  A    between atoms: N_10  and  C_11
REMARK    4  A    between atoms: C_11  and  C_12
REMARK    5  A    between atoms: C_16  and  C_17
REMARK                            x       y       z     vdW  Elec       q    Type
REMARK                         _______ _______ _______ _____ _____    ______ ____
ROOT
ATOM      1  C   UNL     1      50.000   7.783  11.519  0.00  0.00    +0.000 C 
ATOM      2  C   UNL     1      48.547   7.903  11.862  0.00  0.00    +0.000 A 
ATOM      3  C   UNL     1      47.891   9.104  11.771  0.00  0.00    +0.000 A 
ATOM      4  C   UNL     1      46.561   9.072  12.127  0.00  0.00    +0.000 A 
ATOM      5  N   UNL     1      45.903   7.963  12.545  0.00  0.00    +0.000 NA
ATOM      6  C   UNL     1      46.631   6.847  12.611  0.00  0.00    +0.000 A 
ATOM      7  N   UNL     1      46.091   5.672  13.088  0.00  0.00    +0.000 N 
ATOM      8  N   UNL     1      47.925   6.778  12.274  0.00  0.00    +0.000 NA
ATOM      9  H   UNL     1      46.714   4.918  12.822  0.00  0.00    +0.000 HD
ENDROOT
BRANCH   4  10
ATOM     10  C   UNL     1      45.762  10.333  12.060  0.00  0.00    +0.000 C 
ATOM     11  N   UNL     1      44.450  10.226  12.432  0.00  0.00    +0.000 N 
ATOM     12  O   UNL     1      46.244  11.400  11.697  0.00  0.00    +0.000 OA
ATOM     13  H   UNL     1      44.098   9.345  12.789  0.00  0.00    +0.000 HD
ATOM     14  H   UNL     1      43.874  11.054  12.455  0.00  0.00    +0.000 HD
ENDBRANCH   4  10
BRANCH   7  15
ATOM     15  C   UNL     1      44.676   5.431  12.935  0.00  0.00    +0.000 C 
BRANCH  15  16
ATOM     16  C   UNL     1      44.408   4.281  12.005  0.00  0.00    +0.000 A 
ATOM     17  C   UNL     1      43.411   3.356  12.283  0.00  0.00    +0.000 A 
ATOM     18  N   UNL     1      43.117   2.304  11.491  0.00  0.00    +0.000 NA
ATOM     19  C   UNL     1      43.862   2.163  10.367  0.00  0.00    +0.000 A 
ATOM     20  C   UNL     1      44.893   3.018   9.967  0.00  0.00    +0.000 A 
ATOM     21  C   UNL     1      45.154   4.094  10.832  0.00  0.00    +0.000 A 
BRANCH  20  22
ATOM     22  C   UNL     1      45.659   2.803   8.718  0.00  0.00    +0.000 A 
ATOM     23  C   UNL     1      46.151   1.529   8.365  0.00  0.00    +0.000 A 
ATOM     24  C   UNL     1      46.883   1.330   7.190  0.00  0.00    +0.000 A 
ATOM     25  C   UNL     1      47.125   2.401   6.344  0.00  0.00    +0.000 A 
ATOM     26  F   UNL     1      47.822   2.211   5.217  0.00  0.00    +0.000 F 
ATOM     27  C   UNL     1      46.651   3.667   6.651  0.00  0.00    +0.000 A 
ATOM     28  C   UNL     1      45.928   3.866   7.833  0.00  0.00    +0.000 A 
ENDBRANCH  20  22
ENDBRANCH  15  16
ENDBRANCH   7  15
TORSDOF 4
ENDMDL
MODEL 3
REMARK VINA RESULT:    -8.398      2.537      3.737
REMARK INTER + INTRA:         -10.780
REMARK INTER:                 -10.263
REMARK INTRA:                  -0.517
REMARK UNBOUND:                -0.419
REMARK  Name = 
REMARK  5 active torsions:
REMARK  status: ('A' for Active; 'I' for Inactive)
REMARK    1  A    between atoms: C_1  and  C_2
REMARK    2  A    between atoms: C_4  and  C_5
REMARK    3  A    between atoms: N_10  and  C_11
REMARK    4  A    between atoms: C_11  and  C_12
REMARK    5  A    between atoms: C_16  and  C_17
REMARK                            x       y       z     vdW  Elec       q    Type
REMARK                         _______ _______ _______ _____ _____    ______ ____
ROOT
ATOM      1  C   UNL     1      50.379   1.728  17.025  0.00  0.00    +0.000 C 
ATOM      2  C   UNL     1      49.276   2.740  16.983  0.00  0.00    +0.000 A 
ATOM      3  C   UNL     1      49.025   3.564  18.050  0.00  0.00    +0.000 A 
ATOM      4  C   UNL     1      47.975   4.438  17.878  0.00  0.00    +0.000 A 
ATOM      5  N   UNL     1      47.213   4.517  16.760  0.00  0.00    +0.000 NA
ATOM      6  C   UNL     1      47.529   3.664  15.783  0.00  0.00    +0.000 A 
ATOM      7  N   UNL     1      46.783   3.601  14.626  0.00  0.00    +0.000 N 
ATOM      8  N   UNL     1      48.539   2.788  15.853  0.00  0.00    +0.000 NA
ATOM      9  H   UNL     1      47.326   3.090  13.938  0.00  0.00    +0.000 HD
ENDROOT
BRANCH   4  10
ATOM     10  C   UNL     1      47.626   5.378  18.987  0.00  0.00    +0.000 C 
ATOM     11  N   UNL     1      46.344   5.856  18.979  0.00  0.00    +0.000 N 
ATOM     12  O   UNL     1      48.430   5.703  19.852  0.00  0.00    +0.000 OA
ATOM     13  H   UNL     1      45.684   5.518  18.288  0.00  0.00    +0.000 HD
ATOM     14  H   UNL     1      46.036   6.455  19.731  0.00  0.00    +0.000 HD
ENDBRANCH   4  10
BRANCH   7  15
ATOM     15  C   UNL     1      46.094   4.781  14.162  0.00  0.00    +0.000 C 
BRANCH  15  16
ATOM     16  C   UNL     1      45.211   4.479  12.985  0.00  0.00    +0.000 A 
ATOM     17  C   UNL     1      43.830   4.599  13.078  0.00  0.00    +0.000 A 
ATOM     18  N   UNL     1      42.981   4.347  12.061  0.00  0.00    +0.000 NA
ATOM     19  C   UNL     1      43.537   3.945  10.891  0.00  0.00    +0.000 A 
ATOM     20  C   UNL     1      44.906   3.784  10.659  0.00  0.00    +0.000 A 
ATOM     21  C   UNL     1      45.740   4.060  11.755  0.00  0.00    +0.000 A 
BRANCH  20  22
ATOM     22  C   UNL     1      45.440   3.350   9.348  0.00  0.00    +0.000 A 
ATOM     23  C   UNL     1      45.598   1.983   9.032  0.00  0.00    +0.000 A 
ATOM     24  C   UNL     1      46.113   1.575   7.797  0.00  0.00    +0.000 A 
ATOM     25  C   UNL     1      46.466   2.527   6.854  0.00  0.00    +0.000 A 
ATOM     26  F   UNL     1      46.955   2.138   5.671  0.00  0.00    +0.000 F 
ATOM     27  C   UNL     1      46.317   3.880   7.123  0.00  0.00    +0.000 A 
ATOM     28  C   UNL     1      45.813   4.286   8.363  0.00  0.00    +0.000 A 
ENDBRANCH  20  22
ENDBRANCH  15  16
ENDBRANCH   7  15
TORSDOF 4
ENDMDL
MODEL 4
REMARK VINA RESULT:    -7.728      1.957      2.965
REMARK INTER + INTRA:          -9.954
REMARK INTER:                  -9.441
REMARK INTRA:                  -0.513
REMARK UNBOUND:                -0.419
REMARK  Name = 
REMARK  5 active torsions:
REMARK  status: ('A' for Active; 'I' for Inactive)
REMARK    1  A    between atoms: C_1  and  C_2
REMARK    2  A    between atoms: C_4  and  C_5
REMARK    3  A    between atoms: N_10  and  C_11
REMARK    4  A    between atoms: C_11  and  C_12
REMARK    5  A    between atoms: C_16  and  C_17
REMARK                            x       y       z     vdW  Elec       q    Type
REMARK                         _______ _______ _______ _____ _____    ______ ____
ROOT
ATOM      1  C   UNL     1      48.981   2.781  17.410  0.00  0.00    +0.000 C 
ATOM      2  C   UNL     1      48.467   3.907  16.566  0.00  0.00    +0.000 A 
ATOM      3  C   UNL     1      49.026   5.157  16.629  0.00  0.00    +0.000 A 
ATOM      4  C   UNL     1      48.448   6.098  15.807  0.00  0.00    +0.000 A 
ATOM      5  N   UNL     1      47.401   5.858  14.980  0.00  0.00    +0.000 NA
ATOM      6  C   UNL     1      46.919   4.615  15.000  0.00  0.00    +0.000 A 
ATOM      7  N   UNL     1      45.813   4.268  14.256  0.00  0.00    +0.000 N 
ATOM      8  N   UNL     1      47.423   3.630  15.755  0.00  0.00    +0.000 NA
ATOM      9  H   UNL     1      45.773   3.255  14.218  0.00  0.00    +0.000 HD
ENDROOT
BRANCH   4  10
ATOM     10  C   UNL     1      48.990   7.491  15.805  0.00  0.00    +0.000 C 
ATOM     11  N   UNL     1      48.317   8.392  16.584  0.00  0.00    +0.000 N 
ATOM     12  O   UNL     1      49.975   7.813  15.151  0.00  0.00    +0.000 OA
ATOM     13  H   UNL     1      47.545   8.080  17.163  0.00  0.00    +0.000 HD
ATOM     14  H   UNL     1      48.666   9.336  16.662  0.00  0.00    +0.000 HD
ENDBRANCH   4  10
BRANCH   7  15
ATOM     15  C   UNL     1      45.535   4.975  13.028  0.00  0.00    +0.000 C 
BRANCH  15  16
ATOM     16  C   UNL     1      45.001   4.054  11.968  0.00  0.00    +0.000 A 
ATOM     17  C   UNL     1      43.800   3.380  12.147  0.00  0.00    +0.000 A 
ATOM     18  N   UNL     1      43.262   2.542  11.237  0.00  0.00    +0.000 NA
ATOM     19  C   UNL     1      43.964   2.360  10.090  0.00  0.00    +0.000 A 
ATOM     20  C   UNL     1      45.181   2.973   9.781  0.00  0.00    +0.000 A 
ATOM     21  C   UNL     1      45.691   3.834  10.768  0.00  0.00    +0.000 A 
BRANCH  20  22
ATOM     22  C   UNL     1      45.885   2.731   8.501  0.00  0.00    +0.000 A 
ATOM     23  C   UNL     1      46.355   1.448   8.150  0.00  0.00    +0.000 A 
ATOM     24  C   UNL     1      47.030   1.223   6.945  0.00  0.00    +0.000 A 
ATOM     25  C   UNL     1      47.234   2.276   6.068  0.00  0.00    +0.000 A 
ATOM     26  F   UNL     1      47.876   2.062   4.913  0.00  0.00    +0.000 F 
ATOM     27  C   UNL     1      46.779   3.551   6.372  0.00  0.00    +0.000 A 
ATOM     28  C   UNL     1      46.115   3.776   7.583  0.00  0.00    +0.000 A 
ENDBRANCH  20  22
ENDBRANCH  15  16
ENDBRANCH   7  15
TORSDOF 4
ENDMDL
MODEL 5
REMARK VINA RESULT:    -7.670      1.602      2.247
REMARK INTER + INTRA:          -9.882
REMARK INTER:                  -9.187
REMARK INTRA:                  -0.695
REMARK UNBOUND:                -0.419
REMARK  Name = 
REMARK  5 active torsions:
REMARK  status: ('A' for Active; 'I' for Inactive)
REMARK    1  A    between atoms: C_1  and  C_2
REMARK    2  A    between atoms: C_4  and  C_5
REMARK    3  A    between atoms: N_10  and  C_11
REMARK    4  A    between atoms: C_11  and  C_12
REMARK    5  A    between atoms: C_16  and  C_17
REMARK                            x       y       z     vdW  Elec       q    Type
REMARK                         _______ _______ _______ _____ _____    ______ ____
ROOT
ATOM      1  C   UNL     1      51.435   8.769  13.466  0.00  0.00    +0.000 C 
ATOM      2  C   UNL     1      50.163   8.060  13.815  0.00  0.00    +0.000 A 
ATOM      3  C   UNL     1      50.063   7.291  14.947  0.00  0.00    +0.000 A 
ATOM      4  C   UNL     1      48.840   6.689  15.137  0.00  0.00    +0.000 A 
ATOM      5  N   UNL     1      47.782   6.811  14.298  0.00  0.00    +0.000 NA
ATOM      6  C   UNL     1      47.983   7.569  13.219  0.00  0.00    +0.000 A 
ATOM      7  N   UNL     1      47.006   7.711  12.258  0.00  0.00    +0.000 N 
ATOM      8  N   UNL     1      49.131   8.205  12.955  0.00  0.00    +0.000 NA
ATOM      9  H   UNL     1      47.260   8.502  11.676  0.00  0.00    +0.000 HD
ENDROOT
BRANCH   4  10
ATOM     10  C   UNL     1      48.635   5.832  16.344  0.00  0.00    +0.000 C 
ATOM     11  N   UNL     1      47.978   6.423  17.388  0.00  0.00    +0.000 N 
ATOM     12  O   UNL     1      49.026   4.672  16.403  0.00  0.00    +0.000 OA
ATOM     13  H   UNL     1      47.611   7.362  17.286  0.00  0.00    +0.000 HD
ATOM     14  H   UNL     1      47.767   5.878  18.211  0.00  0.00    +0.000 HD
ENDBRANCH   4  10
BRANCH   7  15
ATOM     15  C   UNL     1      45.617   7.604  12.638  0.00  0.00    +0.000 C 
BRANCH  15  16
ATOM     16  C   UNL     1      45.006   6.323  12.144  0.00  0.00    +0.000 A 
ATOM     17  C   UNL     1      43.919   5.754  12.793  0.00  0.00    +0.000 A 
ATOM     18  N   UNL     1      43.321   4.610  12.402  0.00  0.00    +0.000 NA
ATOM     19  C   UNL     1      43.841   3.997  11.309  0.00  0.00    +0.000 A 
ATOM     20  C   UNL     1      44.928   4.459  10.562  0.00  0.00    +0.000 A 
ATOM     21  C   UNL     1      45.509   5.653  11.019  0.00  0.00    +0.000 A 
BRANCH  20  22
ATOM     22  C   UNL     1      45.434   3.737   9.372  0.00  0.00    +0.000 A 
ATOM     23  C   UNL     1      45.968   4.427   8.264  0.00  0.00    +0.000 A 
ATOM     24  C   UNL     1      46.435   3.744   7.135  0.00  0.00    +0.000 A 
ATOM     25  C   UNL     1      46.387   2.360   7.105  0.00  0.00    +0.000 A 
ATOM     26  F   UNL     1      46.837   1.705   6.028  0.00  0.00    +0.000 F 
ATOM     27  C   UNL     1      45.877   1.644   8.178  0.00  0.00    +0.000 A 
ATOM     28  C   UNL     1      45.400   2.330   9.300  0.00  0.00    +0.000 A 
ENDBRANCH  20  22
ENDBRANCH  15  16
ENDBRANCH   7  15
TORSDOF 4
ENDMDL
MODEL 6
REMARK VINA RESULT:    -7.590      3.148      5.533
REMARK INTER + INTRA:          -9.784
REMARK INTER:                  -9.019
REMARK INTRA:                  -0.765
REMARK UNBOUND:                -0.419
REMARK  Name = 
REMARK  5 active torsions:
REMARK  status: ('A' for Active; 'I' for Inactive)
REMARK    1  A    between atoms: C_1  and  C_2
REMARK    2  A    between atoms: C_4  and  C_5
REMARK    3  A    between atoms: N_10  and  C_11
REMARK    4  A    between atoms: C_11  and  C_12
REMARK    5  A    between atoms: C_16  and  C_17
REMARK                            x       y       z     vdW  Elec       q    Type
REMARK                         _______ _______ _______ _____ _____    ______ ____
ROOT
ATOM      1  C   UNL     1      47.839   5.625  20.310  0.00  0.00    +0.000 C 
ATOM      2  C   UNL     1      48.529   5.304  19.020  0.00  0.00    +0.000 A 
ATOM      3  C   UNL     1      48.909   4.022  18.715  0.00  0.00    +0.000 A 
ATOM      4  C   UNL     1      49.542   3.874  17.502  0.00  0.00    +0.000 A 
ATOM      5  N   UNL     1      49.798   4.886  16.637  0.00  0.00    +0.000 NA
ATOM      6  C   UNL     1      49.401   6.098  17.030  0.00  0.00    +0.000 A 
ATOM      7  N   UNL     1      49.667   7.215  16.270  0.00  0.00    +0.000 N 
ATOM      8  N   UNL     1      48.767   6.338  18.185  0.00  0.00    +0.000 NA
ATOM      9  H   UNL     1      49.077   7.967  16.610  0.00  0.00    +0.000 HD
ENDROOT
BRANCH   4  10
ATOM     10  C   UNL     1      49.993   2.512  17.081  0.00  0.00    +0.000 C 
ATOM     11  N   UNL     1      51.056   1.998  17.771  0.00  0.00    +0.000 N 
ATOM     12  O   UNL     1      49.449   1.888  16.177  0.00  0.00    +0.000 OA
ATOM     13  H   UNL     1      51.443   2.511  18.555  0.00  0.00    +0.000 HD
ATOM     14  H   UNL     1      51.373   1.062  17.565  0.00  0.00    +0.000 HD
ENDBRANCH   4  10
BRANCH   7  15
ATOM     15  C   UNL     1      49.790   7.084  14.837  0.00  0.00    +0.000 C 
BRANCH  15  16
ATOM     16  C   UNL     1      48.475   7.313  14.147  0.00  0.00    +0.000 A 
ATOM     17  C   UNL     1      47.842   8.547  14.208  0.00  0.00    +0.000 A 
ATOM     18  N   UNL     1      46.664   8.821  13.610  0.00  0.00    +0.000 NA
ATOM     19  C   UNL     1      46.083   7.808  12.921  0.00  0.00    +0.000 A 
ATOM     20  C   UNL     1      46.609   6.521  12.778  0.00  0.00    +0.000 A 
ATOM     21  C   UNL     1      47.836   6.296  13.424  0.00  0.00    +0.000 A 
BRANCH  20  22
ATOM     22  C   UNL     1      45.918   5.466  12.000  0.00  0.00    +0.000 A 
ATOM     23  C   UNL     1      45.501   4.260  12.602  0.00  0.00    +0.000 A 
ATOM     24  C   UNL     1      44.859   3.261  11.863  0.00  0.00    +0.000 A 
ATOM     25  C   UNL     1      44.613   3.458  10.514  0.00  0.00    +0.000 A 
ATOM     26  F   UNL     1      43.995   2.504   9.807  0.00  0.00    +0.000 F 
ATOM     27  C   UNL     1      44.999   4.634   9.888  0.00  0.00    +0.000 A 
ATOM     28  C   UNL     1      45.652   5.627  10.626  0.00  0.00    +0.000 A 
ENDBRANCH  20  22
ENDBRANCH  15  16
ENDBRANCH   7  15
TORSDOF 4
ENDMDL
MODEL 7
REMARK VINA RESULT:    -7.528      3.472      7.270
REMARK INTER + INTRA:          -9.707
REMARK INTER:                  -8.894
REMARK INTRA:                  -0.813
REMARK UNBOUND:                -0.419
REMARK  Name = 
REMARK  5 active torsions:
REMARK  status: ('A' for Active; 'I' for Inactive)
REMARK    1  A    between atoms: C_1  and  C_2
REMARK    2  A    between atoms: C_4  and  C_5
REMARK    3  A    between atoms: N_10  and  C_11
REMARK    4  A    between atoms: C_11  and  C_12
REMARK    5  A    between atoms: C_16  and  C_17
REMARK                            x       y       z     vdW  Elec       q    Type
REMARK                         _______ _______ _______ _____ _____    ______ ____
ROOT
ATOM      1  C   UNL     1      46.110   2.904   7.569  0.00  0.00    +0.000 C 
ATOM      2  C   UNL     1      45.496   3.470   8.812  0.00  0.00    +0.000 A 
ATOM      3  C   UNL     1      44.777   2.682   9.674  0.00  0.00    +0.000 A 
ATOM      4  C   UNL     1      44.260   3.335  10.770  0.00  0.00    +0.000 A 
ATOM      5  N   UNL     1      44.420   4.657  11.025  0.00  0.00    +0.000 NA
ATOM      6  C   UNL     1      45.124   5.340  10.121  0.00  0.00    +0.000 A 
ATOM      7  N   UNL     1      45.294   6.703  10.233  0.00  0.00    +0.000 N 
ATOM      8  N   UNL     1      45.676   4.790   9.032  0.00  0.00    +0.000 NA
ATOM      9  H   UNL     1      46.046   6.972   9.608  0.00  0.00    +0.000 HD
ENDROOT
BRANCH   4  10
ATOM     10  C   UNL     1      43.462   2.559  11.767  0.00  0.00    +0.000 C 
ATOM     11  N   UNL     1      43.566   2.974  13.066  0.00  0.00    +0.000 N 
ATOM     12  O   UNL     1      42.756   1.609  11.449  0.00  0.00    +0.000 OA
ATOM     13  H   UNL     1      44.107   3.802  13.288  0.00  0.00    +0.000 HD
ATOM     14  H   UNL     1      43.012   2.520  13.776  0.00  0.00    +0.000 HD
ENDBRANCH   4  10
BRANCH   7  15
ATOM     15  C   UNL     1      45.289   7.311  11.543  0.00  0.00    +0.000 C 
BRANCH  15  16
ATOM     16  C   UNL     1      46.603   7.120  12.246  0.00  0.00    +0.000 A 
ATOM     17  C   UNL     1      47.779   7.634  11.715  0.00  0.00    +0.000 A 
ATOM     18  N   UNL     1      48.990   7.501  12.294  0.00  0.00    +0.000 NA
ATOM     19  C   UNL     1      49.032   6.812  13.462  0.00  0.00    +0.000 A 
ATOM     20  C   UNL     1      47.929   6.244  14.106  0.00  0.00    +0.000 A 
ATOM     21  C   UNL     1      46.696   6.415  13.454  0.00  0.00    +0.000 A 
BRANCH  20  22
ATOM     22  C   UNL     1      48.053   5.512  15.387  0.00  0.00    +0.000 A 
ATOM     23  C   UNL     1      47.257   4.382  15.670  0.00  0.00    +0.000 A 
ATOM     24  C   UNL     1      47.368   3.698  16.886  0.00  0.00    +0.000 A 
ATOM     25  C   UNL     1      48.285   4.127  17.831  0.00  0.00    +0.000 A 
ATOM     26  F   UNL     1      48.394   3.471  18.993  0.00  0.00    +0.000 F 
ATOM     27  C   UNL     1      49.092   5.229  17.588  0.00  0.00    +0.000 A 
ATOM     28  C   UNL     1      48.971   5.918  16.376  0.00  0.00    +0.000 A 
ENDBRANCH  20  22
ENDBRANCH  15  16
ENDBRANCH   7  15
TORSDOF 4
ENDMDL
MODEL 8
REMARK VINA RESULT:    -7.395      3.489      6.743
REMARK INTER + INTRA:          -9.543
REMARK INTER:                  -8.806
REMARK INTRA:                  -0.737
REMARK UNBOUND:                -0.419
REMARK  Name = 
REMARK  5 active torsions:
REMARK  status: ('A' for Active; 'I' for Inactive)
REMARK    1  A    between atoms: C_1  and  C_2
REMARK    2  A    between atoms: C_4  and  C_5
REMARK    3  A    between atoms: N_10  and  C_11
REMARK    4  A    between atoms: C_11  and  C_12
REMARK    5  A    between atoms: C_16  and  C_17
REMARK                            x       y       z     vdW  Elec       q    Type
REMARK                         _______ _______ _______ _____ _____    ______ ____
ROOT
ATOM      1  C   UNL     1      45.744   3.316   7.422  0.00  0.00    +0.000 C 
ATOM      2  C   UNL     1      45.268   3.769   8.768  0.00  0.00    +0.000 A 
ATOM      3  C   UNL     1      44.593   2.919   9.608  0.00  0.00    +0.000 A 
ATOM      4  C   UNL     1      44.206   3.471  10.808  0.00  0.00    +0.000 A 
ATOM      5  N   UNL     1      44.446   4.752  11.181  0.00  0.00    +0.000 NA
ATOM      6  C   UNL     1      45.098   5.502  10.290  0.00  0.00    +0.000 A 
ATOM      7  N   UNL     1      45.339   6.838  10.525  0.00  0.00    +0.000 N 
ATOM      8  N   UNL     1      45.526   5.051   9.104  0.00  0.00    +0.000 NA
ATOM      9  H   UNL     1      46.044   7.144   9.864  0.00  0.00    +0.000 HD
ENDROOT
BRANCH   4  10
ATOM     10  C   UNL     1      43.465   2.621  11.790  0.00  0.00    +0.000 C 
ATOM     11  N   UNL     1      43.558   3.007  13.099  0.00  0.00    +0.000 N 
ATOM     12  O   UNL     1      42.811   1.642  11.451  0.00  0.00    +0.000 OA
ATOM     13  H   UNL     1      44.053   3.858  13.340  0.00  0.00    +0.000 HD
ATOM     14  H   UNL     1      43.039   2.501  13.801  0.00  0.00    +0.000 HD
ENDBRANCH   4  10
BRANCH   7  15
ATOM     15  C   UNL     1      45.477   7.304  11.885  0.00  0.00    +0.000 C 
BRANCH  15  16
ATOM     16  C   UNL     1      46.904   7.237  12.349  0.00  0.00    +0.000 A 
ATOM     17  C   UNL     1      47.251   6.531  13.494  0.00  0.00    +0.000 A 
ATOM     18  N   UNL     1      48.511   6.428  13.964  0.00  0.00    +0.000 NA
ATOM     19  C   UNL     1      49.476   7.071  13.260  0.00  0.00    +0.000 A 
ATOM     20  C   UNL     1      49.268   7.814  12.095  0.00  0.00    +0.000 A 
ATOM     21  C   UNL     1      47.936   7.886  11.655  0.00  0.00    +0.000 A 
BRANCH  20  22
ATOM     22  C   UNL     1      50.377   8.481  11.375  0.00  0.00    +0.000 A 
ATOM     23  C   UNL     1      51.433   7.742  10.801  0.00  0.00    +0.000 A 
ATOM     24  C   UNL     1      52.486   8.375  10.130  0.00  0.00    +0.000 A 
ATOM     25  C   UNL     1      52.490   9.756  10.013  0.00  0.00    +0.000 A 
ATOM     26  F   UNL     1      53.494  10.362   9.368  0.00  0.00    +0.000 F 
ATOM     27  C   UNL     1      51.465  10.517  10.555  0.00  0.00    +0.000 A 
ATOM     28  C   UNL     1      50.420   9.883  11.235  0.00  0.00    +0.000 A 
ENDBRANCH  20  22
ENDBRANCH  15  16
ENDBRANCH   7  15
TORSDOF 4
ENDMDL
MODEL 9
REMARK VINA RESULT:    -7.185      4.175      6.568
REMARK INTER + INTRA:          -9.284
REMARK INTER:                  -8.594
REMARK INTRA:                  -0.690
REMARK UNBOUND:                -0.419
REMARK  Name = 
REMARK  5 active torsions:
REMARK  status: ('A' for Active; 'I' for Inactive)
REMARK    1  A    between atoms: C_1  and  C_2
REMARK    2  A    between atoms: C_4  and  C_5
REMARK    3  A    between atoms: N_10  and  C_11
REMARK    4  A    between atoms: C_11  and  C_12
REMARK    5  A    between atoms: C_16  and  C_17
REMARK                            x       y       z     vdW  Elec       q    Type
REMARK                         _______ _______ _______ _____ _____    ______ ____
ROOT
ATOM      1  C   UNL     1      54.166   4.534  19.468  0.00  0.00    +0.000 C 
ATOM      2  C   UNL     1      52.940   4.339  18.630  0.00  0.00    +0.000 A 
ATOM      3  C   UNL     1      52.508   3.085  18.281  0.00  0.00    +0.000 A 
ATOM      4  C   UNL     1      51.374   3.055  17.500  0.00  0.00    +0.000 A 
ATOM      5  N   UNL     1      50.699   4.152  17.079  0.00  0.00    +0.000 NA
ATOM      6  C   UNL     1      51.206   5.326  17.460  0.00  0.00    +0.000 A 
ATOM      7  N   UNL     1      50.649   6.513  17.036  0.00  0.00    +0.000 N 
ATOM      8  N   UNL     1      52.294   5.456  18.229  0.00  0.00    +0.000 NA
ATOM      9  H   UNL     1      51.015   7.252  17.626  0.00  0.00    +0.000 HD
ENDROOT
BRANCH   4  10
ATOM     10  C   UNL     1      50.827   1.732  17.070  0.00  0.00    +0.000 C 
ATOM     11  N   UNL     1      51.323   0.640  17.728  0.00  0.00    +0.000 N 
ATOM     12  O   UNL     1      49.985   1.624  16.186  0.00  0.00    +0.000 OA
ATOM     13  H   UNL     1      51.970   0.767  18.498  0.00  0.00    +0.000 HD
ATOM     14  H   UNL     1      50.955  -0.275  17.515  0.00  0.00    +0.000 HD
ENDBRANCH   4  10
BRANCH   7  15
ATOM     15  C   UNL     1      49.239   6.563  16.730  0.00  0.00    +0.000 C 
BRANCH  15  16
ATOM     16  C   UNL     1      48.998   6.705  15.254  0.00  0.00    +0.000 A 
ATOM     17  C   UNL     1      49.827   7.495  14.468  0.00  0.00    +0.000 A 
ATOM     18  N   UNL     1      49.670   7.664  13.139  0.00  0.00    +0.000 NA
ATOM     19  C   UNL     1      48.626   7.016  12.564  0.00  0.00    +0.000 A 
ATOM     20  C   UNL     1      47.718   6.191  13.234  0.00  0.00    +0.000 A 
ATOM     21  C   UNL     1      47.932   6.055  14.616  0.00  0.00    +0.000 A 
BRANCH  20  22
ATOM     22  C   UNL     1      46.606   5.508  12.534  0.00  0.00    +0.000 A 
ATOM     23  C   UNL     1      46.021   4.332  13.051  0.00  0.00    +0.000 A 
ATOM     24  C   UNL     1      44.978   3.683  12.383  0.00  0.00    +0.000 A 
ATOM     25  C   UNL     1      44.495   4.207  11.194  0.00  0.00    +0.000 A 
ATOM     26  F   UNL     1      43.494   3.588  10.556  0.00  0.00    +0.000 F 
ATOM     27  C   UNL     1      45.036   5.366  10.659  0.00  0.00    +0.000 A 
ATOM     28  C   UNL     1      46.088   6.007  11.322  0.00  0.00    +0.000 A 
ENDBRANCH  20  22
ENDBRANCH  15  16
ENDBRANCH   7  15
TORSDOF 4
ENDMDL
