MODEL 1
REMARK VINA RESULT:    -7.673      0.000      0.000
REMARK INTER + INTRA:         -10.264
REMARK INTER:                  -9.691
REMARK INTRA:                  -0.572
REMARK UNBOUND:                -0.572
REMARK  Name = 
REMARK  5 active torsions:
REMARK  status: ('A' for Active; 'I' for Inactive)
REMARK    1  A    between atoms: N_1  and  C_2
REMARK    2  A    between atoms: C_2  and  C_3
REMARK    3  A    between atoms: C_3  and  C_4
REMARK    4  A    between atoms: C_7  and  C_8
REMARK    5  A    between atoms: C_8  and  N_9
REMARK                            x       y       z     vdW  Elec       q    Type
REMARK                         _______ _______ _______ _____ _____    ______ ____
ROOT
ATOM      1  C   UNL     1      45.945   2.359   8.164  0.00  0.00    +0.000 A 
ATOM      2  C   UNL     1      45.069   1.796   9.099  0.00  0.00    +0.000 A 
ATOM      3  C   UNL     1      44.264   2.616   9.898  0.00  0.00    +0.000 A 
ATOM      4  C   UNL     1      44.326   4.013   9.779  0.00  0.00    +0.000 A 
ATOM      5  C   UNL     1      45.196   4.573   8.841  0.00  0.00    +0.000 A 
ATOM      6  C   UNL     1      45.993   3.752   8.031  0.00  0.00    +0.000 A 
ENDROOT
BRANCH   1   7
ATOM      7  C   UNL     1      46.836   1.481   7.317  0.00  0.00    +0.000 C 
BRANCH   7   8
ATOM      8  C   UNL     1      48.093   2.206   6.821  0.00  0.00    +0.000 C 
BRANCH   8   9
ATOM      9  N   UNL     1      48.404   1.824   5.443  0.00  0.00    +0.000 NA
ATOM     10  H   UNL     1      49.308   2.213   5.178  0.00  0.00    +0.000 HD
ATOM     11  H   UNL     1      47.719   2.232   4.807  0.00  0.00    +0.000 HD
ENDBRANCH   8   9
ENDBRANCH   7   8
ENDBRANCH   1   7
BRANCH   4  12
ATOM     12  C   UNL     1      43.426   4.893  10.610  0.00  0.00    +0.000 C 
BRANCH  12  13
ATOM     13  N   UNL     1      44.111   5.810  11.515  0.00  0.00    +0.000 N 
ATOM     14  C   UNL     1      44.204   7.167  11.359  0.00  0.00    +0.000 A 
ATOM     15  N   UNL     1      45.242   7.662  11.994  0.00  0.00    +0.000 NA
ATOM     16  C   UNL     1      45.826   6.591  12.620  0.00  0.00    +0.000 A 
ATOM     17  C   UNL     1      47.017   6.527  13.360  0.00  0.00    +0.000 A 
ATOM     18  C   UNL     1      47.409   5.299  13.906  0.00  0.00    +0.000 A 
ATOM     19  C   UNL     1      46.611   4.165  13.753  0.00  0.00    +0.000 A 
ATOM     20  C   UNL     1      45.427   4.204  13.007  0.00  0.00    +0.000 A 
ATOM     21  C   UNL     1      45.083   5.429  12.419  0.00  0.00    +0.000 A 
ENDBRANCH  12  13
ENDBRANCH   4  12
TORSDOF 5
ENDMDL
MODEL 2
REMARK VINA RESULT:    -6.747      2.023      6.100
REMARK INTER + INTRA:          -9.094
REMARK INTER:                  -8.618
REMARK INTRA:                  -0.476
REMARK UNBOUND:                -0.572
REMARK  Name = 
REMARK  5 active torsions:
REMARK  status: ('A' for Active; 'I' for Inactive)
REMARK    1  A    between atoms: N_1  and  C_2
REMARK    2  A    between atoms: C_2  and  C_3
REMARK    3  A    between atoms: C_3  and  C_4
REMARK    4  A    between atoms: C_7  and  C_8
REMARK    5  A    between atoms: C_8  and  N_9
REMARK                            x       y       z     vdW  Elec       q    Type
REMARK                         _______ _______ _______ _____ _____    ______ ____
ROOT
ATOM      1  C   UNL     1      46.702   5.478  12.852  0.00  0.00    +0.000 A 
ATOM      2  C   UNL     1      45.979   4.280  12.885  0.00  0.00    +0.000 A 
ATOM      3  C   UNL     1      45.173   3.909  11.803  0.00  0.00    +0.000 A 
ATOM      4  C   UNL     1      45.072   4.733  10.672  0.00  0.00    +0.000 A 
ATOM      5  C   UNL     1      45.798   5.925  10.638  0.00  0.00    +0.000 A 
ATOM      6  C   UNL     1      46.616   6.291  11.715  0.00  0.00    +0.000 A 
ENDROOT
BRANCH   1   7
ATOM      7  C   UNL     1      47.553   5.898  14.027  0.00  0.00    +0.000 C 
BRANCH   7   8
ATOM      8  C   UNL     1      48.338   7.188  13.766  0.00  0.00    +0.000 C 
BRANCH   8   9
ATOM      9  N   UNL     1      49.713   6.888  13.364  0.00  0.00    +0.000 NA
ATOM     10  H   UNL     1      49.918   5.909  13.557  0.00  0.00    +0.000 HD
ATOM     11  H   UNL     1      50.365   7.433  13.927  0.00  0.00    +0.000 HD
ENDBRANCH   8   9
ENDBRANCH   7   8
ENDBRANCH   1   7
BRANCH   4  12
ATOM     12  C   UNL     1      44.236   4.310   9.489  0.00  0.00    +0.000 C 
BRANCH  12  13
ATOM     13  N   UNL     1      44.671   3.086   8.824  0.00  0.00    +0.000 N 
ATOM     14  C   UNL     1      44.380   1.810   9.227  0.00  0.00    +0.000 A 
ATOM     15  N   UNL     1      45.262   0.943   8.781  0.00  0.00    +0.000 NA
ATOM     16  C   UNL     1      46.139   1.679   8.026  0.00  0.00    +0.000 A 
ATOM     17  C   UNL     1      47.325   1.279   7.390  0.00  0.00    +0.000 A 
ATOM     18  C   UNL     1      48.059   2.228   6.669  0.00  0.00    +0.000 A 
ATOM     19  C   UNL     1      47.600   3.541   6.549  0.00  0.00    +0.000 A 
ATOM     20  C   UNL     1      46.428   3.963   7.187  0.00  0.00    +0.000 A 
ATOM     21  C   UNL     1      45.740   3.012   7.952  0.00  0.00    +0.000 A 
ENDBRANCH  12  13
ENDBRANCH   4  12
TORSDOF 5
ENDMDL
MODEL 3
REMARK VINA RESULT:    -6.736      1.595      2.567
REMARK INTER + INTRA:          -9.080
REMARK INTER:                  -8.591
REMARK INTRA:                  -0.489
REMARK UNBOUND:                -0.572
REMARK  Name = 
REMARK  5 active torsions:
REMARK  status: ('A' for Active; 'I' for Inactive)
REMARK    1  A    between atoms: N_1  and  C_2
REMARK    2  A    between atoms: C_2  and  C_3
REMARK    3  A    between atoms: C_3  and  C_4
REMARK    4  A    between atoms: C_7  and  C_8
REMARK    5  A    between atoms: C_8  and  N_9
REMARK                            x       y       z     vdW  Elec       q    Type
REMARK                         _______ _______ _______ _____ _____    ______ ____
ROOT
ATOM      1  C   UNL     1      45.907   3.170   7.658  0.00  0.00    +0.000 A 
ATOM      2  C   UNL     1      46.222   4.521   7.842  0.00  0.00    +0.000 A 
ATOM      3  C   UNL     1      45.897   5.167   9.040  0.00  0.00    +0.000 A 
ATOM      4  C   UNL     1      45.246   4.475  10.071  0.00  0.00    +0.000 A 
ATOM      5  C   UNL     1      44.937   3.125   9.889  0.00  0.00    +0.000 A 
ATOM      6  C   UNL     1      45.275   2.473   8.695  0.00  0.00    +0.000 A 
ENDROOT
BRANCH   1   7
ATOM      7  C   UNL     1      46.231   2.473   6.357  0.00  0.00    +0.000 C 
BRANCH   7   8
ATOM      8  C   UNL     1      47.393   1.482   6.483  0.00  0.00    +0.000 C 
BRANCH   8   9
ATOM      9  N   UNL     1      48.537   1.916   5.680  0.00  0.00    +0.000 NA
ATOM     10  H   UNL     1      49.372   1.943   6.264  0.00  0.00    +0.000 HD
ATOM     11  H   UNL     1      48.386   2.870   5.352  0.00  0.00    +0.000 HD
ENDBRANCH   8   9
ENDBRANCH   7   8
ENDBRANCH   1   7
BRANCH   4  12
ATOM     12  C   UNL     1      44.936   5.162  11.378  0.00  0.00    +0.000 C 
BRANCH  12  13
ATOM     13  N   UNL     1      45.996   5.108  12.379  0.00  0.00    +0.000 N 
ATOM     14  C   UNL     1      45.966   4.379  13.538  0.00  0.00    +0.000 A 
ATOM     15  N   UNL     1      46.772   4.875  14.449  0.00  0.00    +0.000 NA
ATOM     16  C   UNL     1      47.380   5.946  13.847  0.00  0.00    +0.000 A 
ATOM     17  C   UNL     1      48.265   6.893  14.387  0.00  0.00    +0.000 A 
ATOM     18  C   UNL     1      48.755   7.910  13.560  0.00  0.00    +0.000 A 
ATOM     19  C   UNL     1      48.405   7.960  12.210  0.00  0.00    +0.000 A 
ATOM     20  C   UNL     1      47.513   7.034  11.656  0.00  0.00    +0.000 A 
ATOM     21  C   UNL     1      46.988   6.060  12.514  0.00  0.00    +0.000 A 
ENDBRANCH  12  13
ENDBRANCH   4  12
TORSDOF 5
ENDMDL
MODEL 4
REMARK VINA RESULT:    -6.431      2.187      5.746
REMARK INTER + INTRA:          -8.696
REMARK INTER:                  -8.136
REMARK INTRA:                  -0.560
REMARK UNBOUND:                -0.572
REMARK  Name = 
REMARK  5 active torsions:
REMARK  status: ('A' for Active; 'I' for Inactive)
REMARK    1  A    between atoms: N_1  and  C_2
REMARK    2  A    between atoms: C_2  and  C_3
REMARK    3  A    between atoms: C_3  and  C_4
REMARK    4  A    between atoms: C_7  and  C_8
REMARK    5  A    between atoms: C_8  and  N_9
REMARK                            x       y       z     vdW  Elec       q    Type
REMARK                         _______ _______ _______ _____ _____    ______ ____
ROOT
ATOM      1  C   UNL     1      47.848   6.801  13.004  0.00  0.00    +0.000 A 
ATOM      2  C   UNL     1      47.208   7.728  12.174  0.00  0.00    +0.000 A 
ATOM      3  C   UNL     1      45.931   7.460  11.666  0.00  0.00    +0.000 A 
ATOM      4  C   UNL     1      45.277   6.258  11.975  0.00  0.00    +0.000 A 
ATOM      5  C   UNL     1      45.915   5.337  12.809  0.00  0.00    +0.000 A 
ATOM      6  C   UNL     1      47.187   5.610  13.329  0.00  0.00    +0.000 A 
ENDROOT
BRANCH   1   7
ATOM      7  C   UNL     1      49.237   7.071  13.535  0.00  0.00    +0.000 C 
BRANCH   7   8
ATOM      8  C   UNL     1      50.020   8.073  12.678  0.00  0.00    +0.000 C 
BRANCH   8   9
ATOM      9  N   UNL     1      50.763   7.384  11.621  0.00  0.00    +0.000 NA
ATOM     10  H   UNL     1      50.316   7.558  10.723  0.00  0.00    +0.000 HD
ATOM     11  H   UNL     1      50.724   6.377  11.771  0.00  0.00    +0.000 HD
ENDBRANCH   8   9
ENDBRANCH   7   8
ENDBRANCH   1   7
BRANCH   4  12
ATOM     12  C   UNL     1      43.883   5.991  11.462  0.00  0.00    +0.000 C 
BRANCH  12  13
ATOM     13  N   UNL     1      43.675   4.670  10.880  0.00  0.00    +0.000 N 
ATOM     14  C   UNL     1      43.050   3.616  11.492  0.00  0.00    +0.000 A 
ATOM     15  N   UNL     1      43.426   2.463  10.984  0.00  0.00    +0.000 NA
ATOM     16  C   UNL     1      44.300   2.782   9.976  0.00  0.00    +0.000 A 
ATOM     17  C   UNL     1      45.072   1.939   9.162  0.00  0.00    +0.000 A 
ATOM     18  C   UNL     1      45.902   2.511   8.190  0.00  0.00    +0.000 A 
ATOM     19  C   UNL     1      45.932   3.893   8.005  0.00  0.00    +0.000 A 
ATOM     20  C   UNL     1      45.181   4.752   8.816  0.00  0.00    +0.000 A 
ATOM     21  C   UNL     1      44.402   4.163   9.820  0.00  0.00    +0.000 A 
ENDBRANCH  12  13
ENDBRANCH   4  12
TORSDOF 5
ENDMDL
MODEL 5
REMARK VINA RESULT:    -6.423      1.384      2.544
REMARK INTER + INTRA:          -8.685
REMARK INTER:                  -8.205
REMARK INTRA:                  -0.480
REMARK UNBOUND:                -0.572
REMARK  Name = 
REMARK  5 active torsions:
REMARK  status: ('A' for Active; 'I' for Inactive)
REMARK    1  A    between atoms: N_1  and  C_2
REMARK    2  A    between atoms: C_2  and  C_3
REMARK    3  A    between atoms: C_3  and  C_4
REMARK    4  A    between atoms: C_7  and  C_8
REMARK    5  A    between atoms: C_8  and  N_9
REMARK                            x       y       z     vdW  Elec       q    Type
REMARK                         _______ _______ _______ _____ _____    ______ ____
ROOT
ATOM      1  C   UNL     1      45.978   2.517   7.805  0.00  0.00    +0.000 A 
ATOM      2  C   UNL     1      45.334   1.893   8.880  0.00  0.00    +0.000 A 
ATOM      3  C   UNL     1      44.836   2.653   9.945  0.00  0.00    +0.000 A 
ATOM      4  C   UNL     1      44.979   4.048   9.954  0.00  0.00    +0.000 A 
ATOM      5  C   UNL     1      45.615   4.670   8.878  0.00  0.00    +0.000 A 
ATOM      6  C   UNL     1      46.102   3.911   7.805  0.00  0.00    +0.000 A 
ENDROOT
BRANCH   1   7
ATOM      7  C   UNL     1      46.542   1.701   6.665  0.00  0.00    +0.000 C 
BRANCH   7   8
ATOM      8  C   UNL     1      47.107   2.566   5.533  0.00  0.00    +0.000 C 
BRANCH   8   9
ATOM      9  N   UNL     1      48.511   2.239   5.280  0.00  0.00    +0.000 NA
ATOM     10  H   UNL     1      48.614   1.230   5.185  0.00  0.00    +0.000 HD
ATOM     11  H   UNL     1      49.079   2.511   6.082  0.00  0.00    +0.000 HD
ENDBRANCH   8   9
ENDBRANCH   7   8
ENDBRANCH   1   7
BRANCH   4  12
ATOM     12  C   UNL     1      44.402   4.869  11.082  0.00  0.00    +0.000 C 
BRANCH  12  13
ATOM     13  N   UNL     1      45.313   5.842  11.676  0.00  0.00    +0.000 N 
ATOM     14  C   UNL     1      46.233   5.581  12.656  0.00  0.00    +0.000 A 
ATOM     15  N   UNL     1      46.547   6.663  13.332  0.00  0.00    +0.000 NA
ATOM     16  C   UNL     1      45.832   7.675  12.745  0.00  0.00    +0.000 A 
ATOM     17  C   UNL     1      45.716   9.023  13.119  0.00  0.00    +0.000 A 
ATOM     18  C   UNL     1      44.912   9.872  12.349  0.00  0.00    +0.000 A 
ATOM     19  C   UNL     1      44.270   9.399  11.204  0.00  0.00    +0.000 A 
ATOM     20  C   UNL     1      44.362   8.056  10.822  0.00  0.00    +0.000 A 
ATOM     21  C   UNL     1      45.123   7.209  11.639  0.00  0.00    +0.000 A 
ENDBRANCH  12  13
ENDBRANCH   4  12
TORSDOF 5
ENDMDL
MODEL 6
REMARK VINA RESULT:    -5.883      2.150      6.541
REMARK INTER + INTRA:          -8.003
REMARK INTER:                  -8.027
REMARK INTRA:                   0.025
REMARK UNBOUND:                -0.572
REMARK  Name = 
REMARK  5 active torsions:
REMARK  status: ('A' for Active; 'I' for Inactive)
REMARK    1  A    between atoms: N_1  and  C_2
REMARK    2  A    between atoms: C_2  and  C_3
REMARK    3  A    between atoms: C_3  and  C_4
REMARK    4  A    between atoms: C_7  and  C_8
REMARK    5  A    between atoms: C_8  and  N_9
REMARK                            x       y       z     vdW  Elec       q    Type
REMARK                         _______ _______ _______ _____ _____    ______ ____
ROOT
ATOM      1  C   UNL     1      47.633   5.320  15.159  0.00  0.00    +0.000 A 
ATOM      2  C   UNL     1      46.722   4.415  14.603  0.00  0.00    +0.000 A 
ATOM      3  C   UNL     1      46.009   4.748  13.446  0.00  0.00    +0.000 A 
ATOM      4  C   UNL     1      46.192   5.995  12.829  0.00  0.00    +0.000 A 
ATOM      5  C   UNL     1      47.106   6.895  13.381  0.00  0.00    +0.000 A 
ATOM      6  C   UNL     1      47.830   6.556  14.532  0.00  0.00    +0.000 A 
ENDROOT
BRANCH   1   7
ATOM      7  C   UNL     1      48.386   4.977  16.423  0.00  0.00    +0.000 C 
BRANCH   7   8
ATOM      8  C   UNL     1      47.536   4.197  17.433  0.00  0.00    +0.000 C 
BRANCH   8   9
ATOM      9  N   UNL     1      46.679   5.102  18.201  0.00  0.00    +0.000 NA
ATOM     10  H   UNL     1      47.249   5.643  18.848  0.00  0.00    +0.000 HD
ATOM     11  H   UNL     1      46.031   4.561  18.773  0.00  0.00    +0.000 HD
ENDBRANCH   8   9
ENDBRANCH   7   8
ENDBRANCH   1   7
BRANCH   4  12
ATOM     12  C   UNL     1      45.455   6.335  11.557  0.00  0.00    +0.000 C 
BRANCH  12  13
ATOM     13  N   UNL     1      44.620   5.269  11.015  0.00  0.00    +0.000 N 
ATOM     14  C   UNL     1      43.621   4.615  11.687  0.00  0.00    +0.000 A 
ATOM     15  N   UNL     1      43.385   3.427  11.178  0.00  0.00    +0.000 NA
ATOM     16  C   UNL     1      44.237   3.318  10.109  0.00  0.00    +0.000 A 
ATOM     17  C   UNL     1      44.474   2.224   9.262  0.00  0.00    +0.000 A 
ATOM     18  C   UNL     1      45.407   2.359   8.227  0.00  0.00    +0.000 A 
ATOM     19  C   UNL     1      46.061   3.573   8.013  0.00  0.00    +0.000 A 
ATOM     20  C   UNL     1      45.849   4.671   8.855  0.00  0.00    +0.000 A 
ATOM     21  C   UNL     1      44.956   4.497   9.920  0.00  0.00    +0.000 A 
ENDBRANCH  12  13
ENDBRANCH   4  12
TORSDOF 5
ENDMDL
MODEL 7
REMARK VINA RESULT:    -5.560      1.889      3.028
REMARK INTER + INTRA:          -7.596
REMARK INTER:                  -7.382
REMARK INTRA:                  -0.214
REMARK UNBOUND:                -0.572
REMARK  Name = 
REMARK  5 active torsions:
REMARK  status: ('A' for Active; 'I' for Inactive)
REMARK    1  A    between atoms: N_1  and  C_2
REMARK    2  A    between atoms: C_2  and  C_3
REMARK    3  A    between atoms: C_3  and  C_4
REMARK    4  A    between atoms: C_7  and  C_8
REMARK    5  A    between atoms: C_8  and  N_9
REMARK                            x       y       z     vdW  Elec       q    Type
REMARK                         _______ _______ _______ _____ _____    ______ ____
ROOT
ATOM      1  C   UNL     1      45.129   3.950   9.284  0.00  0.00    +0.000 A 
ATOM      2  C   UNL     1      45.751   5.203   9.340  0.00  0.00    +0.000 A 
ATOM      3  C   UNL     1      45.675   5.979  10.502  0.00  0.00    +0.000 A 
ATOM      4  C   UNL     1      44.971   5.519  11.624  0.00  0.00    +0.000 A 
ATOM      5  C   UNL     1      44.356   4.266  11.569  0.00  0.00    +0.000 A 
ATOM      6  C   UNL     1      44.443   3.482  10.411  0.00  0.00    +0.000 A 
ENDROOT
BRANCH   1   7
ATOM      7  C   UNL     1      45.184   3.118   8.024  0.00  0.00    +0.000 C 
BRANCH   7   8
ATOM      8  C   UNL     1      46.036   1.853   8.180  0.00  0.00    +0.000 C 
BRANCH   8   9
ATOM      9  N   UNL     1      47.219   1.912   7.320  0.00  0.00    +0.000 NA
ATOM     10  H   UNL     1      47.143   2.712   6.693  0.00  0.00    +0.000 HD
ATOM     11  H   UNL     1      47.255   1.085   6.725  0.00  0.00    +0.000 HD
ENDBRANCH   8   9
ENDBRANCH   7   8
ENDBRANCH   1   7
BRANCH   4  12
ATOM     12  C   UNL     1      44.928   6.339  12.891  0.00  0.00    +0.000 C 
BRANCH  12  13
ATOM     13  N   UNL     1      45.688   7.584  12.855  0.00  0.00    +0.000 N 
ATOM     14  C   UNL     1      45.193   8.813  12.507  0.00  0.00    +0.000 A 
ATOM     15  N   UNL     1      46.141   9.620  12.086  0.00  0.00    +0.000 NA
ATOM     16  C   UNL     1      47.303   8.900  12.200  0.00  0.00    +0.000 A 
ATOM     17  C   UNL     1      48.607   9.240  11.807  0.00  0.00    +0.000 A 
ATOM     18  C   UNL     1      49.641   8.323  12.031  0.00  0.00    +0.000 A 
ATOM     19  C   UNL     1      49.390   7.109  12.672  0.00  0.00    +0.000 A 
ATOM     20  C   UNL     1      48.095   6.747  13.059  0.00  0.00    +0.000 A 
ATOM     21  C   UNL     1      47.065   7.652  12.772  0.00  0.00    +0.000 A 
ENDBRANCH  12  13
ENDBRANCH   4  12
TORSDOF 5
ENDMDL
MODEL 8
REMARK VINA RESULT:    -5.506      2.684      4.201
REMARK INTER + INTRA:          -7.527
REMARK INTER:                  -7.017
REMARK INTRA:                  -0.510
REMARK UNBOUND:                -0.572
REMARK  Name = 
REMARK  5 active torsions:
REMARK  status: ('A' for Active; 'I' for Inactive)
REMARK    1  A    between atoms: N_1  and  C_2
REMARK    2  A    between atoms: C_2  and  C_3
REMARK    3  A    between atoms: C_3  and  C_4
REMARK    4  A    between atoms: C_7  and  C_8
REMARK    5  A    between atoms: C_8  and  N_9
REMARK                            x       y       z     vdW  Elec       q    Type
REMARK                         _______ _______ _______ _____ _____    ______ ____
ROOT
ATOM      1  C   UNL     1      44.950   3.539  10.415  0.00  0.00    +0.000 A 
ATOM      2  C   UNL     1      45.221   4.806   9.883  0.00  0.00    +0.000 A 
ATOM      3  C   UNL     1      45.634   5.850  10.718  0.00  0.00    +0.000 A 
ATOM      4  C   UNL     1      45.778   5.648  12.098  0.00  0.00    +0.000 A 
ATOM      5  C   UNL     1      45.514   4.382  12.627  0.00  0.00    +0.000 A 
ATOM      6  C   UNL     1      45.113   3.332  11.790  0.00  0.00    +0.000 A 
ENDROOT
BRANCH   1   7
ATOM      7  C   UNL     1      44.478   2.414   9.525  0.00  0.00    +0.000 C 
BRANCH   7   8
ATOM      8  C   UNL     1      45.285   2.299   8.226  0.00  0.00    +0.000 C 
BRANCH   8   9
ATOM      9  N   UNL     1      46.266   1.217   8.318  0.00  0.00    +0.000 NA
ATOM     10  H   UNL     1      47.168   1.598   8.598  0.00  0.00    +0.000 HD
ATOM     11  H   UNL     1      46.405   0.798   7.398  0.00  0.00    +0.000 HD
ENDBRANCH   8   9
ENDBRANCH   7   8
ENDBRANCH   1   7
BRANCH   4  12
ATOM     12  C   UNL     1      46.266   6.764  12.989  0.00  0.00    +0.000 C 
BRANCH  12  13
ATOM     13  N   UNL     1      47.652   6.651  13.428  0.00  0.00    +0.000 N 
ATOM     14  C   UNL     1      48.069   6.212  14.657  0.00  0.00    +0.000 A 
ATOM     15  N   UNL     1      49.265   6.665  14.958  0.00  0.00    +0.000 NA
ATOM     16  C   UNL     1      49.658   7.397  13.867  0.00  0.00    +0.000 A 
ATOM     17  C   UNL     1      50.810   8.177  13.681  0.00  0.00    +0.000 A 
ATOM     18  C   UNL     1      50.989   8.840  12.461  0.00  0.00    +0.000 A 
ATOM     19  C   UNL     1      50.059   8.695  11.430  0.00  0.00    +0.000 A 
ATOM     20  C   UNL     1      48.898   7.933  11.600  0.00  0.00    +0.000 A 
ATOM     21  C   UNL     1      48.709   7.326  12.849  0.00  0.00    +0.000 A 
ENDBRANCH  12  13
ENDBRANCH   4  12
TORSDOF 5
ENDMDL
MODEL 9
REMARK VINA RESULT:    -5.314      2.924      4.466
REMARK INTER + INTRA:          -7.284
REMARK INTER:                  -6.949
REMARK INTRA:                  -0.335
REMARK UNBOUND:                -0.572
REMARK  Name = 
REMARK  5 active torsions:
REMARK  status: ('A' for Active; 'I' for Inactive)
REMARK    1  A    between atoms: N_1  and  C_2
REMARK    2  A    between atoms: C_2  and  C_3
REMARK    3  A    between atoms: C_3  and  C_4
REMARK    4  A    between atoms: C_7  and  C_8
REMARK    5  A    between atoms: C_8  and  N_9
REMARK                            x       y       z     vdW  Elec       q    Type
REMARK                         _______ _______ _______ _____ _____    ______ ____
ROOT
ATOM      1  C   UNL     1      44.906   3.946  10.872  0.00  0.00    +0.000 A 
ATOM      2  C   UNL     1      45.283   3.748  12.205  0.00  0.00    +0.000 A 
ATOM      3  C   UNL     1      46.023   4.722  12.885  0.00  0.00    +0.000 A 
ATOM      4  C   UNL     1      46.405   5.908  12.240  0.00  0.00    +0.000 A 
ATOM      5  C   UNL     1      46.023   6.108  10.912  0.00  0.00    +0.000 A 
ATOM      6  C   UNL     1      45.270   5.139  10.235  0.00  0.00    +0.000 A 
ENDROOT
BRANCH   1   7
ATOM      7  C   UNL     1      44.130   2.888  10.124  0.00  0.00    +0.000 C 
BRANCH   7   8
ATOM      8  C   UNL     1      44.718   2.581   8.742  0.00  0.00    +0.000 C 
BRANCH   8   9
ATOM      9  N   UNL     1      45.682   1.482   8.819  0.00  0.00    +0.000 NA
ATOM     10  H   UNL     1      45.186   0.592   8.797  0.00  0.00    +0.000 HD
ATOM     11  H   UNL     1      46.172   1.514   9.713  0.00  0.00    +0.000 HD
ENDBRANCH   8   9
ENDBRANCH   7   8
ENDBRANCH   1   7
BRANCH   4  12
ATOM     12  C   UNL     1      47.165   6.975  12.988  0.00  0.00    +0.000 C 
BRANCH  12  13
ATOM     13  N   UNL     1      46.651   8.332  12.833  0.00  0.00    +0.000 N 
ATOM     14  C   UNL     1      45.334   8.702  12.904  0.00  0.00    +0.000 A 
ATOM     15  N   UNL     1      45.106   9.825  12.260  0.00  0.00    +0.000 NA
ATOM     16  C   UNL     1      46.330  10.222  11.785  0.00  0.00    +0.000 A 
ATOM     17  C   UNL     1      46.658  11.303  10.953  0.00  0.00    +0.000 A 
ATOM     18  C   UNL     1      47.998  11.503  10.599  0.00  0.00    +0.000 A 
ATOM     19  C   UNL     1      48.997  10.666  11.098  0.00  0.00    +0.000 A 
ATOM     20  C   UNL     1      48.689   9.574  11.918  0.00  0.00    +0.000 A 
ATOM     21  C   UNL     1      47.337   9.357  12.212  0.00  0.00    +0.000 A 
ENDBRANCH  12  13
ENDBRANCH   4  12
TORSDOF 5
ENDMDL
