MODEL 1
REMARK VINA RESULT:    -8.696      0.000      0.000
REMARK INTER + INTRA:         -11.241
REMARK INTER:                 -10.730
REMARK INTRA:                  -0.511
REMARK UNBOUND:                -0.511
REMARK  Name = 
REMARK  5 active torsions:
REMARK  status: ('A' for Active; 'I' for Inactive)
REMARK    1  A    between atoms: C_1  and  O_2
REMARK    2  A    between atoms: O_2  and  C_3
REMARK    3  A    between atoms: C_7  and  C_8
REMARK    4  A    between atoms: C_8  and  N_9
REMARK    5  A    between atoms: C_14  and  C_15
REMARK                            x       y       z     vdW  Elec       q    Type
REMARK                         _______ _______ _______ _____ _____    ______ ____
ROOT
ATOM      1  N   UNL     1      43.684   4.698  10.633  0.00  0.00    +0.000 N 
ATOM      2  C   UNL     1      43.101   3.725  11.411  0.00  0.00    +0.000 A 
ATOM      3  N   UNL     1      43.433   2.516  11.011  0.00  0.00    +0.000 NA
ATOM      4  C   UNL     1      44.261   2.705   9.936  0.00  0.00    +0.000 A 
ATOM      5  C   UNL     1      45.054   1.778   9.244  0.00  0.00    +0.000 A 
ATOM      6  C   UNL     1      45.894   2.230   8.208  0.00  0.00    +0.000 A 
ATOM      7  C   UNL     1      45.832   3.569   7.794  0.00  0.00    +0.000 A 
ATOM      8  C   UNL     1      45.041   4.508   8.474  0.00  0.00    +0.000 A 
ATOM      9  C   UNL     1      44.322   4.051   9.585  0.00  0.00    +0.000 A 
ENDROOT
BRANCH   6  10
ATOM     10  C   UNL     1      46.890   1.253   7.673  0.00  0.00    +0.000 C 
ATOM     11  N   UNL     1      47.973   1.718   6.979  0.00  0.00    +0.000 N 
ATOM     12  O   UNL     1      46.783   0.050   7.879  0.00  0.00    +0.000 OA
ATOM     13  H   UNL     1      48.161   2.680   6.754  0.00  0.00    +0.000 HD
ATOM     14  H   UNL     1      48.650   1.022   6.692  0.00  0.00    +0.000 HD
ENDBRANCH   6  10
BRANCH   1  15
ATOM     15  C   UNL     1      44.146   5.973  11.174  0.00  0.00    +0.000 C 
BRANCH  15  20
ATOM     16  C   UNL     1      46.664   4.953  13.807  0.00  0.00    +0.000 A 
ATOM     17  C   UNL     1      47.810   5.637  13.430  0.00  0.00    +0.000 A 
ATOM     18  C   UNL     1      47.770   6.510  12.331  0.00  0.00    +0.000 A 
ATOM     19  C   UNL     1      46.590   6.693  11.593  0.00  0.00    +0.000 A 
ATOM     20  C   UNL     1      45.428   6.019  11.963  0.00  0.00    +0.000 A 
ATOM     21  C   UNL     1      45.489   5.161  13.083  0.00  0.00    +0.000 A 
BRANCH  16  23
ATOM     22  C   UNL     1      47.306   4.266  15.998  0.00  0.00    +0.000 C 
ATOM     23  O   UNL     1      46.536   4.051  14.824  0.00  0.00    +0.000 OA
ENDBRANCH  16  23
ENDBRANCH  15  20
ENDBRANCH   1  15
TORSDOF 4
ENDMDL
MODEL 2
REMARK VINA RESULT:    -8.533      1.391      2.121
REMARK INTER + INTRA:         -11.039
REMARK INTER:                 -10.324
REMARK INTRA:                  -0.715
REMARK UNBOUND:                -0.511
REMARK  Name = 
REMARK  5 active torsions:
REMARK  status: ('A' for Active; 'I' for Inactive)
REMARK    1  A    between atoms: C_1  and  O_2
REMARK    2  A    between atoms: O_2  and  C_3
REMARK    3  A    between atoms: C_7  and  C_8
REMARK    4  A    between atoms: C_8  and  N_9
REMARK    5  A    between atoms: C_14  and  C_15
REMARK                            x       y       z     vdW  Elec       q    Type
REMARK                         _______ _______ _______ _____ _____    ______ ____
ROOT
ATOM      1  N   UNL     1      43.933   4.514  10.507  0.00  0.00    +0.000 N 
ATOM      2  C   UNL     1      43.354   3.460  11.173  0.00  0.00    +0.000 A 
ATOM      3  N   UNL     1      43.714   2.302  10.661  0.00  0.00    +0.000 NA
ATOM      4  C   UNL     1      44.557   2.610   9.626  0.00  0.00    +0.000 A 
ATOM      5  C   UNL     1      45.377   1.770   8.860  0.00  0.00    +0.000 A 
ATOM      6  C   UNL     1      46.227   2.336   7.891  0.00  0.00    +0.000 A 
ATOM      7  C   UNL     1      46.149   3.708   7.610  0.00  0.00    +0.000 A 
ATOM      8  C   UNL     1      45.329   4.563   8.366  0.00  0.00    +0.000 A 
ATOM      9  C   UNL     1      44.600   3.985   9.412  0.00  0.00    +0.000 A 
ENDROOT
BRANCH   6  10
ATOM     10  C   UNL     1      47.249   1.434   7.279  0.00  0.00    +0.000 C 
ATOM     11  N   UNL     1      48.341   1.982   6.667  0.00  0.00    +0.000 N 
ATOM     12  O   UNL     1      47.154   0.214   7.353  0.00  0.00    +0.000 OA
ATOM     13  H   UNL     1      48.522   2.965   6.550  0.00  0.00    +0.000 HD
ATOM     14  H   UNL     1      49.035   1.329   6.325  0.00  0.00    +0.000 HD
ENDBRANCH   6  10
BRANCH   1  15
ATOM     15  C   UNL     1      44.363   5.736  11.181  0.00  0.00    +0.000 C 
BRANCH  15  20
ATOM     16  C   UNL     1      47.831   6.908  12.136  0.00  0.00    +0.000 A 
ATOM     17  C   UNL     1      48.078   6.230  13.321  0.00  0.00    +0.000 A 
ATOM     18  C   UNL     1      47.133   5.313  13.809  0.00  0.00    +0.000 A 
ATOM     19  C   UNL     1      45.931   5.078  13.124  0.00  0.00    +0.000 A 
ATOM     20  C   UNL     1      45.670   5.745  11.929  0.00  0.00    +0.000 A 
ATOM     21  C   UNL     1      46.644   6.649  11.450  0.00  0.00    +0.000 A 
BRANCH  16  23
ATOM     22  C   UNL     1      50.030   7.699  11.662  0.00  0.00    +0.000 C 
ATOM     23  O   UNL     1      48.622   7.848  11.541  0.00  0.00    +0.000 OA
ENDBRANCH  16  23
ENDBRANCH  15  20
ENDBRANCH   1  15
TORSDOF 4
ENDMDL
MODEL 3
REMARK VINA RESULT:    -7.246      2.493      3.465
REMARK INTER + INTRA:          -9.451
REMARK INTER:                  -8.906
REMARK INTRA:                  -0.545
REMARK UNBOUND:                -0.511
REMARK  Name = 
REMARK  5 active torsions:
REMARK  status: ('A' for Active; 'I' for Inactive)
REMARK    1  A    between atoms: C_1  and  O_2
REMARK    2  A    between atoms: O_2  and  C_3
REMARK    3  A    between atoms: C_7  and  C_8
REMARK    4  A    between atoms: C_8  and  N_9
REMARK    5  A    between atoms: C_14  and  C_15
REMARK                            x       y       z     vdW  Elec       q    Type
REMARK                         _______ _______ _______ _____ _____    ______ ____
ROOT
ATOM      1  N   UNL     1      44.552   4.615  10.847  0.00  0.00    +0.000 N 
ATOM      2  C   UNL     1      43.719   3.569  11.166  0.00  0.00    +0.000 A 
ATOM      3  N   UNL     1      43.839   2.572  10.315  0.00  0.00    +0.000 NA
ATOM      4  C   UNL     1      44.783   2.981   9.409  0.00  0.00    +0.000 A 
ATOM      5  C   UNL     1      45.435   2.251   8.406  0.00  0.00    +0.000 A 
ATOM      6  C   UNL     1      46.438   2.878   7.642  0.00  0.00    +0.000 A 
ATOM      7  C   UNL     1      46.681   4.251   7.800  0.00  0.00    +0.000 A 
ATOM      8  C   UNL     1      46.033   4.996   8.798  0.00  0.00    +0.000 A 
ATOM      9  C   UNL     1      45.140   4.309   9.630  0.00  0.00    +0.000 A 
ENDROOT
BRANCH   6  10
ATOM     10  C   UNL     1      47.265   1.998   6.762  0.00  0.00    +0.000 C 
ATOM     11  N   UNL     1      48.347   2.528   6.116  0.00  0.00    +0.000 N 
ATOM     12  O   UNL     1      47.023   0.803   6.641  0.00  0.00    +0.000 OA
ATOM     13  H   UNL     1      48.639   3.490   6.144  0.00  0.00    +0.000 HD
ATOM     14  H   UNL     1      48.911   1.877   5.583  0.00  0.00    +0.000 HD
ENDBRANCH   6  10
BRANCH   1  15
ATOM     15  C   UNL     1      45.206   5.443  11.856  0.00  0.00    +0.000 C 
BRANCH  15  20
ATOM     16  C   UNL     1      43.850   8.893  11.103  0.00  0.00    +0.000 A 
ATOM     17  C   UNL     1      44.854   9.734  11.560  0.00  0.00    +0.000 A 
ATOM     18  C   UNL     1      46.041   9.186  12.072  0.00  0.00    +0.000 A 
ATOM     19  C   UNL     1      46.227   7.797  12.144  0.00  0.00    +0.000 A 
ATOM     20  C   UNL     1      45.231   6.938  11.682  0.00  0.00    +0.000 A 
ATOM     21  C   UNL     1      44.054   7.513  11.155  0.00  0.00    +0.000 A 
BRANCH  16  23
ATOM     22  C   UNL     1      42.211  10.598  10.799  0.00  0.00    +0.000 C 
ATOM     23  O   UNL     1      42.631   9.255  10.606  0.00  0.00    +0.000 OA
ENDBRANCH  16  23
ENDBRANCH  15  20
ENDBRANCH   1  15
TORSDOF 4
ENDMDL
MODEL 4
REMARK VINA RESULT:    -7.165      1.999      2.553
REMARK INTER + INTRA:          -9.351
REMARK INTER:                  -8.785
REMARK INTRA:                  -0.566
REMARK UNBOUND:                -0.511
REMARK  Name = 
REMARK  5 active torsions:
REMARK  status: ('A' for Active; 'I' for Inactive)
REMARK    1  A    between atoms: C_1  and  O_2
REMARK    2  A    between atoms: O_2  and  C_3
REMARK    3  A    between atoms: C_7  and  C_8
REMARK    4  A    between atoms: C_8  and  N_9
REMARK    5  A    between atoms: C_14  and  C_15
REMARK                            x       y       z     vdW  Elec       q    Type
REMARK                         _______ _______ _______ _____ _____    ______ ____
ROOT
ATOM      1  N   UNL     1      44.597   4.342  10.924  0.00  0.00    +0.000 N 
ATOM      2  C   UNL     1      43.798   3.254  11.183  0.00  0.00    +0.000 A 
ATOM      3  N   UNL     1      43.882   2.349  10.231  0.00  0.00    +0.000 NA
ATOM      4  C   UNL     1      44.766   2.864   9.319  0.00  0.00    +0.000 A 
ATOM      5  C   UNL     1      45.369   2.250   8.213  0.00  0.00    +0.000 A 
ATOM      6  C   UNL     1      46.319   2.967   7.461  0.00  0.00    +0.000 A 
ATOM      7  C   UNL     1      46.554   4.322   7.743  0.00  0.00    +0.000 A 
ATOM      8  C   UNL     1      45.954   4.953   8.846  0.00  0.00    +0.000 A 
ATOM      9  C   UNL     1      45.119   4.169   9.652  0.00  0.00    +0.000 A 
ENDROOT
BRANCH   6  10
ATOM     10  C   UNL     1      47.106   2.195   6.453  0.00  0.00    +0.000 C 
ATOM     11  N   UNL     1      47.780   2.869   5.474  0.00  0.00    +0.000 N 
ATOM     12  O   UNL     1      47.197   0.974   6.510  0.00  0.00    +0.000 OA
ATOM     13  H   UNL     1      47.778   3.865   5.334  0.00  0.00    +0.000 HD
ATOM     14  H   UNL     1      48.348   2.305   4.854  0.00  0.00    +0.000 HD
ENDBRANCH   6  10
BRANCH   1  15
ATOM     15  C   UNL     1      45.298   5.077  11.974  0.00  0.00    +0.000 C 
BRANCH  15  20
ATOM     16  C   UNL     1      46.221   8.629  12.890  0.00  0.00    +0.000 A 
ATOM     17  C   UNL     1      45.361   9.390  12.112  0.00  0.00    +0.000 A 
ATOM     18  C   UNL     1      44.402   8.752  11.307  0.00  0.00    +0.000 A 
ATOM     19  C   UNL     1      44.307   7.353  11.265  0.00  0.00    +0.000 A 
ATOM     20  C   UNL     1      45.159   6.575  12.046  0.00  0.00    +0.000 A 
ATOM     21  C   UNL     1      46.102   7.239  12.860  0.00  0.00    +0.000 A 
BRANCH  16  23
ATOM     22  C   UNL     1      48.488   8.445  13.605  0.00  0.00    +0.000 C 
ATOM     23  O   UNL     1      47.223   9.082  13.700  0.00  0.00    +0.000 OA
ENDBRANCH  16  23
ENDBRANCH  15  20
ENDBRANCH   1  15
TORSDOF 4
ENDMDL
MODEL 5
REMARK VINA RESULT:    -6.483      2.722      3.584
REMARK INTER + INTRA:          -8.510
REMARK INTER:                  -8.059
REMARK INTRA:                  -0.451
REMARK UNBOUND:                -0.511
REMARK  Name = 
REMARK  5 active torsions:
REMARK  status: ('A' for Active; 'I' for Inactive)
REMARK    1  A    between atoms: C_1  and  O_2
REMARK    2  A    between atoms: O_2  and  C_3
REMARK    3  A    between atoms: C_7  and  C_8
REMARK    4  A    between atoms: C_8  and  N_9
REMARK    5  A    between atoms: C_14  and  C_15
REMARK                            x       y       z     vdW  Elec       q    Type
REMARK                         _______ _______ _______ _____ _____    ______ ____
ROOT
ATOM      1  N   UNL     1      45.127   5.391  12.522  0.00  0.00    +0.000 N 
ATOM      2  C   UNL     1      44.478   4.378  13.188  0.00  0.00    +0.000 A 
ATOM      3  N   UNL     1      44.241   3.350  12.403  0.00  0.00    +0.000 NA
ATOM      4  C   UNL     1      44.752   3.702  11.181  0.00  0.00    +0.000 A 
ATOM      5  C   UNL     1      44.945   2.921  10.033  0.00  0.00    +0.000 A 
ATOM      6  C   UNL     1      45.570   3.493   8.909  0.00  0.00    +0.000 A 
ATOM      7  C   UNL     1      45.870   4.864   8.900  0.00  0.00    +0.000 A 
ATOM      8  C   UNL     1      45.679   5.661  10.040  0.00  0.00    +0.000 A 
ATOM      9  C   UNL     1      45.182   5.026  11.185  0.00  0.00    +0.000 A 
ENDROOT
BRANCH   6  10
ATOM     10  C   UNL     1      45.971   2.562   7.812  0.00  0.00    +0.000 C 
ATOM     11  N   UNL     1      46.153   1.236   8.096  0.00  0.00    +0.000 N 
ATOM     12  O   UNL     1      46.099   2.949   6.656  0.00  0.00    +0.000 OA
ATOM     13  H   UNL     1      46.073   0.810   9.003  0.00  0.00    +0.000 HD
ATOM     14  H   UNL     1      46.362   0.637   7.307  0.00  0.00    +0.000 HD
ENDBRANCH   6  10
BRANCH   1  15
ATOM     15  C   UNL     1      46.137   6.235  13.154  0.00  0.00    +0.000 C 
BRANCH  15  20
ATOM     16  C   UNL     1      45.441   9.816  12.155  0.00  0.00    +0.000 A 
ATOM     17  C   UNL     1      46.703  10.317  11.873  0.00  0.00    +0.000 A 
ATOM     18  C   UNL     1      47.820   9.468  11.941  0.00  0.00    +0.000 A 
ATOM     19  C   UNL     1      47.684   8.120  12.304  0.00  0.00    +0.000 A 
ATOM     20  C   UNL     1      46.422   7.599  12.582  0.00  0.00    +0.000 A 
ATOM     21  C   UNL     1      45.312   8.468  12.490  0.00  0.00    +0.000 A 
BRANCH  16  23
ATOM     22  C   UNL     1      43.352  10.274  11.098  0.00  0.00    +0.000 C 
ATOM     23  O   UNL     1      44.261  10.505  12.165  0.00  0.00    +0.000 OA
ENDBRANCH  16  23
ENDBRANCH  15  20
ENDBRANCH   1  15
TORSDOF 4
ENDMDL
MODEL 6
REMARK VINA RESULT:    -6.242      3.422      7.262
REMARK INTER + INTRA:          -8.213
REMARK INTER:                  -7.733
REMARK INTRA:                  -0.480
REMARK UNBOUND:                -0.511
REMARK  Name = 
REMARK  5 active torsions:
REMARK  status: ('A' for Active; 'I' for Inactive)
REMARK    1  A    between atoms: C_1  and  O_2
REMARK    2  A    between atoms: O_2  and  C_3
REMARK    3  A    between atoms: C_7  and  C_8
REMARK    4  A    between atoms: C_8  and  N_9
REMARK    5  A    between atoms: C_14  and  C_15
REMARK                            x       y       z     vdW  Elec       q    Type
REMARK                         _______ _______ _______ _____ _____    ______ ____
ROOT
ATOM      1  N   UNL     1      46.499   5.475  12.461  0.00  0.00    +0.000 N 
ATOM      2  C   UNL     1      46.720   4.655  13.543  0.00  0.00    +0.000 A 
ATOM      3  N   UNL     1      47.504   5.224  14.435  0.00  0.00    +0.000 NA
ATOM      4  C   UNL     1      47.805   6.457  13.917  0.00  0.00    +0.000 A 
ATOM      5  C   UNL     1      48.442   7.549  14.522  0.00  0.00    +0.000 A 
ATOM      6  C   UNL     1      48.569   8.754  13.806  0.00  0.00    +0.000 A 
ATOM      7  C   UNL     1      48.180   8.809  12.458  0.00  0.00    +0.000 A 
ATOM      8  C   UNL     1      47.544   7.722  11.837  0.00  0.00    +0.000 A 
ATOM      9  C   UNL     1      47.311   6.586  12.622  0.00  0.00    +0.000 A 
ENDROOT
BRANCH   6  10
ATOM     10  C   UNL     1      49.030   9.951  14.573  0.00  0.00    +0.000 C 
ATOM     11  N   UNL     1      48.515  10.183  15.818  0.00  0.00    +0.000 N 
ATOM     12  O   UNL     1      49.890  10.704  14.131  0.00  0.00    +0.000 OA
ATOM     13  H   UNL     1      47.810   9.633  16.278  0.00  0.00    +0.000 HD
ATOM     14  H   UNL     1      48.905  10.970  16.321  0.00  0.00    +0.000 HD
ENDBRANCH   6  10
BRANCH   1  15
ATOM     15  C   UNL     1      45.224   5.522  11.752  0.00  0.00    +0.000 C 
BRANCH  15  20
ATOM     16  C   UNL     1      45.523   3.891   8.352  0.00  0.00    +0.000 A 
ATOM     17  C   UNL     1      44.889   2.669   8.531  0.00  0.00    +0.000 A 
ATOM     18  C   UNL     1      44.285   2.372   9.763  0.00  0.00    +0.000 A 
ATOM     19  C   UNL     1      44.322   3.287  10.827  0.00  0.00    +0.000 A 
ATOM     20  C   UNL     1      44.947   4.521  10.662  0.00  0.00    +0.000 A 
ATOM     21  C   UNL     1      45.532   4.803   9.408  0.00  0.00    +0.000 A 
BRANCH  16  23
ATOM     22  C   UNL     1      46.721   3.343   6.365  0.00  0.00    +0.000 C 
ATOM     23  O   UNL     1      46.182   4.325   7.238  0.00  0.00    +0.000 OA
ENDBRANCH  16  23
ENDBRANCH  15  20
ENDBRANCH   1  15
TORSDOF 4
ENDMDL
MODEL 7
REMARK VINA RESULT:    -6.082      3.923      7.920
REMARK INTER + INTRA:          -8.015
REMARK INTER:                  -7.608
REMARK INTRA:                  -0.408
REMARK UNBOUND:                -0.511
REMARK  Name = 
REMARK  5 active torsions:
REMARK  status: ('A' for Active; 'I' for Inactive)
REMARK    1  A    between atoms: C_1  and  O_2
REMARK    2  A    between atoms: O_2  and  C_3
REMARK    3  A    between atoms: C_7  and  C_8
REMARK    4  A    between atoms: C_8  and  N_9
REMARK    5  A    between atoms: C_14  and  C_15
REMARK                            x       y       z     vdW  Elec       q    Type
REMARK                         _______ _______ _______ _____ _____    ______ ____
ROOT
ATOM      1  N   UNL     1      47.163   5.163  14.505  0.00  0.00    +0.000 N 
ATOM      2  C   UNL     1      47.889   6.223  14.015  0.00  0.00    +0.000 A 
ATOM      3  N   UNL     1      48.817   6.613  14.863  0.00  0.00    +0.000 NA
ATOM      4  C   UNL     1      48.694   5.779  15.943  0.00  0.00    +0.000 A 
ATOM      5  C   UNL     1      49.540   5.617  17.049  0.00  0.00    +0.000 A 
ATOM      6  C   UNL     1      49.241   4.627  18.004  0.00  0.00    +0.000 A 
ATOM      7  C   UNL     1      48.039   3.908  17.911  0.00  0.00    +0.000 A 
ATOM      8  C   UNL     1      47.179   4.061  16.812  0.00  0.00    +0.000 A 
ATOM      9  C   UNL     1      47.577   4.958  15.812  0.00  0.00    +0.000 A 
ENDROOT
BRANCH   6  10
ATOM     10  C   UNL     1      50.293   4.331  19.022  0.00  0.00    +0.000 C 
ATOM     11  N   UNL     1      49.969   4.376  20.350  0.00  0.00    +0.000 N 
ATOM     12  O   UNL     1      51.429   4.007  18.695  0.00  0.00    +0.000 OA
ATOM     13  H   UNL     1      49.072   4.627  20.730  0.00  0.00    +0.000 HD
ATOM     14  H   UNL     1      50.700   4.106  20.996  0.00  0.00    +0.000 HD
ENDBRANCH   6  10
BRANCH   1  15
ATOM     15  C   UNL     1      46.662   4.087  13.655  0.00  0.00    +0.000 C 
BRANCH  15  20
ATOM     16  C   UNL     1      43.956   3.317  11.127  0.00  0.00    +0.000 A 
ATOM     17  C   UNL     1      42.963   4.234  11.437  0.00  0.00    +0.000 A 
ATOM     18  C   UNL     1      43.182   5.181  12.451  0.00  0.00    +0.000 A 
ATOM     19  C   UNL     1      44.388   5.208  13.168  0.00  0.00    +0.000 A 
ATOM     20  C   UNL     1      45.398   4.298  12.864  0.00  0.00    +0.000 A 
ATOM     21  C   UNL     1      45.161   3.368  11.829  0.00  0.00    +0.000 A 
BRANCH  16  23
ATOM     22  C   UNL     1      44.683   2.459   9.024  0.00  0.00    +0.000 C 
ATOM     23  O   UNL     1      43.897   2.317  10.198  0.00  0.00    +0.000 OA
ENDBRANCH  16  23
ENDBRANCH  15  20
ENDBRANCH   1  15
TORSDOF 4
ENDMDL
MODEL 8
REMARK VINA RESULT:    -6.059      2.810      3.714
REMARK INTER + INTRA:          -7.987
REMARK INTER:                  -7.403
REMARK INTRA:                  -0.584
REMARK UNBOUND:                -0.511
REMARK  Name = 
REMARK  5 active torsions:
REMARK  status: ('A' for Active; 'I' for Inactive)
REMARK    1  A    between atoms: C_1  and  O_2
REMARK    2  A    between atoms: O_2  and  C_3
REMARK    3  A    between atoms: C_7  and  C_8
REMARK    4  A    between atoms: C_8  and  N_9
REMARK    5  A    between atoms: C_14  and  C_15
REMARK                            x       y       z     vdW  Elec       q    Type
REMARK                         _______ _______ _______ _____ _____    ______ ____
ROOT
ATOM      1  N   UNL     1      45.438   5.661  12.782  0.00  0.00    +0.000 N 
ATOM      2  C   UNL     1      44.873   4.677  13.558  0.00  0.00    +0.000 A 
ATOM      3  N   UNL     1      44.540   3.623  12.844  0.00  0.00    +0.000 NA
ATOM      4  C   UNL     1      44.900   3.929  11.557  0.00  0.00    +0.000 A 
ATOM      5  C   UNL     1      44.951   3.106  10.423  0.00  0.00    +0.000 A 
ATOM      6  C   UNL     1      45.436   3.635   9.212  0.00  0.00    +0.000 A 
ATOM      7  C   UNL     1      45.736   5.002   9.118  0.00  0.00    +0.000 A 
ATOM      8  C   UNL     1      45.686   5.840  10.244  0.00  0.00    +0.000 A 
ATOM      9  C   UNL     1      45.330   5.249  11.463  0.00  0.00    +0.000 A 
ENDROOT
BRANCH   6  10
ATOM     10  C   UNL     1      45.700   2.662   8.109  0.00  0.00    +0.000 C 
ATOM     11  N   UNL     1      45.820   1.333   8.406  0.00  0.00    +0.000 N 
ATOM     12  O   UNL     1      45.767   3.022   6.939  0.00  0.00    +0.000 OA
ATOM     13  H   UNL     1      45.781   0.927   9.325  0.00  0.00    +0.000 HD
ATOM     14  H   UNL     1      45.935   0.709   7.617  0.00  0.00    +0.000 HD
ENDBRANCH   6  10
BRANCH   1  15
ATOM     15  C   UNL     1      46.519   6.520  13.256  0.00  0.00    +0.000 C 
BRANCH  15  20
ATOM     16  C   UNL     1      47.953   9.799  12.031  0.00  0.00    +0.000 A 
ATOM     17  C   UNL     1      46.824  10.571  11.800  0.00  0.00    +0.000 A 
ATOM     18  C   UNL     1      45.554  10.055  12.103  0.00  0.00    +0.000 A 
ATOM     19  C   UNL     1      45.403   8.762  12.626  0.00  0.00    +0.000 A 
ATOM     20  C   UNL     1      46.528   7.976  12.872  0.00  0.00    +0.000 A 
ATOM     21  C   UNL     1      47.795   8.524  12.575  0.00  0.00    +0.000 A 
BRANCH  16  23
ATOM     22  C   UNL     1      50.148   9.082  11.434  0.00  0.00    +0.000 C 
ATOM     23  O   UNL     1      49.251  10.132  11.767  0.00  0.00    +0.000 OA
ENDBRANCH  16  23
ENDBRANCH  15  20
ENDBRANCH   1  15
TORSDOF 4
ENDMDL
MODEL 9
REMARK VINA RESULT:    -5.992      3.779      5.421
REMARK INTER + INTRA:          -7.904
REMARK INTER:                  -7.375
REMARK INTRA:                  -0.529
REMARK UNBOUND:                -0.511
REMARK  Name = 
REMARK  5 active torsions:
REMARK  status: ('A' for Active; 'I' for Inactive)
REMARK    1  A    between atoms: C_1  and  O_2
REMARK    2  A    between atoms: O_2  and  C_3
REMARK    3  A    between atoms: C_7  and  C_8
REMARK    4  A    between atoms: C_8  and  N_9
REMARK    5  A    between atoms: C_14  and  C_15
REMARK                            x       y       z     vdW  Elec       q    Type
REMARK                         _______ _______ _______ _____ _____    ______ ____
ROOT
ATOM      1  N   UNL     1      47.700   6.472  13.097  0.00  0.00    +0.000 N 
ATOM      2  C   UNL     1      47.739   5.882  14.339  0.00  0.00    +0.000 A 
ATOM      3  N   UNL     1      46.845   4.923  14.452  0.00  0.00    +0.000 NA
ATOM      4  C   UNL     1      46.200   4.886  13.243  0.00  0.00    +0.000 A 
ATOM      5  C   UNL     1      45.294   3.940  12.743  0.00  0.00    +0.000 A 
ATOM      6  C   UNL     1      44.819   4.074  11.424  0.00  0.00    +0.000 A 
ATOM      7  C   UNL     1      45.151   5.214  10.675  0.00  0.00    +0.000 A 
ATOM      8  C   UNL     1      46.054   6.172  11.164  0.00  0.00    +0.000 A 
ATOM      9  C   UNL     1      46.612   5.936  12.427  0.00  0.00    +0.000 A 
ENDROOT
BRANCH   6  10
ATOM     10  C   UNL     1      44.057   2.920  10.860  0.00  0.00    +0.000 C 
ATOM     11  N   UNL     1      44.578   2.230   9.801  0.00  0.00    +0.000 N 
ATOM     12  O   UNL     1      42.998   2.549  11.352  0.00  0.00    +0.000 OA
ATOM     13  H   UNL     1      45.436   2.444   9.321  0.00  0.00    +0.000 HD
ATOM     14  H   UNL     1      44.055   1.419   9.497  0.00  0.00    +0.000 HD
ENDBRANCH   6  10
BRANCH   1  15
ATOM     15  C   UNL     1      48.897   6.949  12.409  0.00  0.00    +0.000 C 
BRANCH  15  20
ATOM     16  C   UNL     1      50.484  10.088  11.018  0.00  0.00    +0.000 A 
ATOM     17  C   UNL     1      49.430  10.990  10.992  0.00  0.00    +0.000 A 
ATOM     18  C   UNL     1      48.175  10.610  11.495  0.00  0.00    +0.000 A 
ATOM     19  C   UNL     1      47.962   9.323  12.013  0.00  0.00    +0.000 A 
ATOM     20  C   UNL     1      49.012   8.408  12.053  0.00  0.00    +0.000 A 
ATOM     21  C   UNL     1      50.269   8.820  11.558  0.00  0.00    +0.000 A 
BRANCH  16  23
ATOM     22  C   UNL     1      52.495   9.136  10.160  0.00  0.00    +0.000 C 
ATOM     23  O   UNL     1      51.750  10.283  10.546  0.00  0.00    +0.000 OA
ENDBRANCH  16  23
ENDBRANCH  15  20
ENDBRANCH   1  15
TORSDOF 4
ENDMDL
