MODEL 1
REMARK VINA RESULT:    -7.169      0.000      0.000
REMARK INTER + INTRA:         -12.207
REMARK INTER:                 -10.941
REMARK INTRA:                  -1.266
REMARK UNBOUND:                -1.266
REMARK  Name = 
REMARK  11 active torsions:
REMARK  status: ('A' for Active; 'I' for Inactive)
REMARK    1  A    between atoms: C_1  and  C_2
REMARK    2  A    between atoms: C_2  and  C_3
REMARK    3  A    between atoms: C_3  and  N_4
REMARK    4  A    between atoms: N_4  and  C_5
REMARK    5  A    between atoms: N_4  and  C_27
REMARK    6  A    between atoms: C_5  and  C_6
REMARK    7  A    between atoms: C_9  and  C_10
REMARK    8  A    between atoms: C_10  and  N_11
REMARK    9  A    between atoms: C_12  and  C_14
REMARK   10  A    between atoms: N_20  and  C_21
REMARK   11  A    between atoms: C_27  and  C_28
REMARK                            x       y       z     vdW  Elec       q    Type
REMARK                         _______ _______ _______ _____ _____    ______ ____
ROOT
ATOM      1  C   UNL     1      46.359   6.618  11.777  0.00  0.00    +0.000 A 
ATOM      2  C   UNL     1      45.652   7.747  12.210  0.00  0.00    +0.000 A 
ATOM      3  C   UNL     1      46.159   8.547  13.242  0.00  0.00    +0.000 A 
ATOM      4  C   UNL     1      47.394   8.254  13.837  0.00  0.00    +0.000 A 
ATOM      5  C   UNL     1      48.078   7.100  13.436  0.00  0.00    +0.000 A 
ATOM      6  C   UNL     1      47.562   6.290  12.425  0.00  0.00    +0.000 A 
ENDROOT
BRANCH   1   7
ATOM      7  C   UNL     1      45.868   5.771  10.616  0.00  0.00    +0.000 C 
BRANCH   7   8
ATOM      8  N   UNL     1      44.865   4.727  10.955  0.00  0.00    +0.000 NA
BRANCH   8   9
ATOM      9  C   UNL     1      44.606   4.712  12.409  0.00  0.00    +0.000 C 
BRANCH   9  11
ATOM     10  C   UNL     1      42.294   5.591  11.813  0.00  0.00    +0.000 C 
ATOM     11  C   UNL     1      43.130   4.827  12.827  0.00  0.00    +0.000 C 
ENDBRANCH   9  11
ENDBRANCH   8   9
BRANCH   8  12
ATOM     12  C   UNL     1      45.254   3.408  10.412  0.00  0.00    +0.000 C 
BRANCH  12  13
ATOM     13  C   UNL     1      44.508   2.874   9.161  0.00  0.00    +0.000 C 
ATOM     14  C   UNL     1      45.110   1.518   8.733  0.00  0.00    +0.000 C 
ATOM     15  C   UNL     1      46.497   1.677   8.108  0.00  0.00    +0.000 C 
ATOM     16  C   UNL     1      46.501   2.731   7.000  0.00  0.00    +0.000 C 
ATOM     17  N   UNL     1      45.928   3.999   7.444  0.00  0.00    +0.000 NA
ATOM     18  C   UNL     1      44.567   3.836   7.962  0.00  0.00    +0.000 C 
ATOM     19  H   UNL     1      45.923   4.666   6.674  0.00  0.00    +0.000 HD
ENDBRANCH  12  13
ENDBRANCH   8  12
ENDBRANCH   7   8
ENDBRANCH   1   7
BRANCH   4  20
ATOM     20  C   UNL     1      47.991   9.162  14.878  0.00  0.00    +0.000 C 
BRANCH  20  21
ATOM     21  N   UNL     1      48.168   8.485  16.137  0.00  0.00    +0.000 N 
ATOM     22  C   UNL     1      49.421   8.370  16.696  0.00  0.00    +0.000 C 
ATOM     23  O   UNL     1      50.434   8.787  16.149  0.00  0.00    +0.000 OA
ATOM     24  H   UNL     1      47.348   8.278  16.690  0.00  0.00    +0.000 HD
BRANCH  22  25
ATOM     25  C   UNL     1      49.453   7.658  17.973  0.00  0.00    +0.000 A 
ATOM     26  C   UNL     1      49.709   8.291  19.178  0.00  0.00    +0.000 A 
ATOM     27  S   UNL     1      49.568   7.253  20.525  0.00  0.00    +0.000 S 
ATOM     28  C   UNL     1      49.154   5.929  19.534  0.00  0.00    +0.000 A 
ATOM     29  N   UNL     1      48.867   4.720  20.073  0.00  0.00    +0.000 NA
ATOM     30  C   UNL     1      48.554   3.812  19.207  0.00  0.00    +0.000 A 
ATOM     31  N   UNL     1      48.521   3.986  17.840  0.00  0.00    +0.000 N 
ATOM     32  C   UNL     1      48.196   2.872  16.975  0.00  0.00    +0.000 C 
ATOM     33  C   UNL     1      48.892   5.195  17.243  0.00  0.00    +0.000 A 
ATOM     34  O   UNL     1      49.039   5.319  16.031  0.00  0.00    +0.000 OA
ATOM     35  C   UNL     1      49.162   6.263  18.195  0.00  0.00    +0.000 A 
ENDBRANCH  22  25
ENDBRANCH  20  21
ENDBRANCH   4  20
TORSDOF 9
ENDMDL
MODEL 2
REMARK VINA RESULT:    -7.164      3.065      8.650
REMARK INTER + INTRA:         -12.199
REMARK INTER:                 -10.067
REMARK INTRA:                  -2.132
REMARK UNBOUND:                -1.266
REMARK  Name = 
REMARK  11 active torsions:
REMARK  status: ('A' for Active; 'I' for Inactive)
REMARK    1  A    between atoms: C_1  and  C_2
REMARK    2  A    between atoms: C_2  and  C_3
REMARK    3  A    between atoms: C_3  and  N_4
REMARK    4  A    between atoms: N_4  and  C_5
REMARK    5  A    between atoms: N_4  and  C_27
REMARK    6  A    between atoms: C_5  and  C_6
REMARK    7  A    between atoms: C_9  and  C_10
REMARK    8  A    between atoms: C_10  and  N_11
REMARK    9  A    between atoms: C_12  and  C_14
REMARK   10  A    between atoms: N_20  and  C_21
REMARK   11  A    between atoms: C_27  and  C_28
REMARK                            x       y       z     vdW  Elec       q    Type
REMARK                         _______ _______ _______ _____ _____    ______ ____
ROOT
ATOM      1  C   UNL     1      49.175   8.073  15.792  0.00  0.00    +0.000 A 
ATOM      2  C   UNL     1      48.325   9.122  15.419  0.00  0.00    +0.000 A 
ATOM      3  C   UNL     1      47.660   9.092  14.188  0.00  0.00    +0.000 A 
ATOM      4  C   UNL     1      47.805   8.000  13.321  0.00  0.00    +0.000 A 
ATOM      5  C   UNL     1      48.689   6.973  13.672  0.00  0.00    +0.000 A 
ATOM      6  C   UNL     1      49.370   7.015  14.889  0.00  0.00    +0.000 A 
ENDROOT
BRANCH   1   7
ATOM      7  C   UNL     1      49.856   8.046  17.149  0.00  0.00    +0.000 C 
BRANCH   7   8
ATOM      8  N   UNL     1      49.062   7.458  18.260  0.00  0.00    +0.000 NA
BRANCH   8   9
ATOM      9  C   UNL     1      48.995   8.395  19.401  0.00  0.00    +0.000 C 
BRANCH   9  11
ATOM     10  C   UNL     1      47.492  10.368  18.836  0.00  0.00    +0.000 C 
ATOM     11  C   UNL     1      47.635   9.078  19.626  0.00  0.00    +0.000 C 
ENDBRANCH   9  11
ENDBRANCH   8   9
BRANCH   8  12
ATOM     12  C   UNL     1      49.561   6.116  18.628  0.00  0.00    +0.000 C 
BRANCH  12  13
ATOM     13  C   UNL     1      48.532   5.031  19.039  0.00  0.00    +0.000 C 
ATOM     14  C   UNL     1      49.034   3.640  18.597  0.00  0.00    +0.000 C 
ATOM     15  C   UNL     1      48.952   3.454  17.080  0.00  0.00    +0.000 C 
ATOM     16  C   UNL     1      47.566   3.811  16.542  0.00  0.00    +0.000 C 
ATOM     17  N   UNL     1      47.127   5.134  16.979  0.00  0.00    +0.000 NA
ATOM     18  C   UNL     1      47.135   5.261  18.438  0.00  0.00    +0.000 C 
ATOM     19  H   UNL     1      46.191   5.324  16.624  0.00  0.00    +0.000 HD
ENDBRANCH  12  13
ENDBRANCH   8  12
ENDBRANCH   7   8
ENDBRANCH   1   7
BRANCH   4  20
ATOM     20  C   UNL     1      47.019   7.914  12.040  0.00  0.00    +0.000 C 
BRANCH  20  21
ATOM     21  N   UNL     1      46.438   6.609  11.857  0.00  0.00    +0.000 N 
ATOM     22  C   UNL     1      45.106   6.479  11.532  0.00  0.00    +0.000 C 
ATOM     23  O   UNL     1      44.352   7.437  11.424  0.00  0.00    +0.000 OA
ATOM     24  H   UNL     1      47.057   5.815  11.775  0.00  0.00    +0.000 HD
BRANCH  22  25
ATOM     25  C   UNL     1      44.651   5.097  11.380  0.00  0.00    +0.000 A 
ATOM     26  C   UNL     1      43.885   4.451  12.337  0.00  0.00    +0.000 A 
ATOM     27  S   UNL     1      43.389   2.891  11.859  0.00  0.00    +0.000 S 
ATOM     28  C   UNL     1      44.180   3.038  10.355  0.00  0.00    +0.000 A 
ATOM     29  N   UNL     1      44.120   2.043   9.437  0.00  0.00    +0.000 NA
ATOM     30  C   UNL     1      44.751   2.295   8.338  0.00  0.00    +0.000 A 
ATOM     31  N   UNL     1      45.464   3.444   8.067  0.00  0.00    +0.000 N 
ATOM     32  C   UNL     1      46.164   3.584   6.808  0.00  0.00    +0.000 C 
ATOM     33  C   UNL     1      45.618   4.455   9.021  0.00  0.00    +0.000 A 
ATOM     34  O   UNL     1      46.387   5.399   8.869  0.00  0.00    +0.000 OA
ATOM     35  C   UNL     1      44.844   4.242  10.236  0.00  0.00    +0.000 A 
ENDBRANCH  22  25
ENDBRANCH  20  21
ENDBRANCH   4  20
TORSDOF 9
ENDMDL
MODEL 3
REMARK VINA RESULT:    -6.952      2.811      3.133
REMARK INTER + INTRA:         -11.876
REMARK INTER:                 -10.259
REMARK INTRA:                  -1.617
REMARK UNBOUND:                -1.266
REMARK  Name = 
REMARK  11 active torsions:
REMARK  status: ('A' for Active; 'I' for Inactive)
REMARK    1  A    between atoms: C_1  and  C_2
REMARK    2  A    between atoms: C_2  and  C_3
REMARK    3  A    between atoms: C_3  and  N_4
REMARK    4  A    between atoms: N_4  and  C_5
REMARK    5  A    between atoms: N_4  and  C_27
REMARK    6  A    between atoms: C_5  and  C_6
REMARK    7  A    between atoms: C_9  and  C_10
REMARK    8  A    between atoms: C_10  and  N_11
REMARK    9  A    between atoms: C_12  and  C_14
REMARK   10  A    between atoms: N_20  and  C_21
REMARK   11  A    between atoms: C_27  and  C_28
REMARK                            x       y       z     vdW  Elec       q    Type
REMARK                         _______ _______ _______ _____ _____    ______ ____
ROOT
ATOM      1  C   UNL     1      46.434   5.210  12.868  0.00  0.00    +0.000 A 
ATOM      2  C   UNL     1      46.567   6.157  11.845  0.00  0.00    +0.000 A 
ATOM      3  C   UNL     1      47.518   7.179  11.945  0.00  0.00    +0.000 A 
ATOM      4  C   UNL     1      48.374   7.256  13.053  0.00  0.00    +0.000 A 
ATOM      5  C   UNL     1      48.210   6.338  14.097  0.00  0.00    +0.000 A 
ATOM      6  C   UNL     1      47.247   5.333  14.007  0.00  0.00    +0.000 A 
ENDROOT
BRANCH   1   7
ATOM      7  C   UNL     1      45.458   4.050  12.755  0.00  0.00    +0.000 C 
BRANCH   7   8
ATOM      8  N   UNL     1      44.672   3.987  11.495  0.00  0.00    +0.000 NA
BRANCH   8   9
ATOM      9  C   UNL     1      43.226   3.907  11.792  0.00  0.00    +0.000 C 
BRANCH   9  11
ATOM     10  C   UNL     1      42.837   6.381  11.342  0.00  0.00    +0.000 C 
ATOM     11  C   UNL     1      42.569   5.212  12.275  0.00  0.00    +0.000 C 
ENDBRANCH   9  11
ENDBRANCH   8   9
BRANCH   8  12
ATOM     12  C   UNL     1      45.153   2.904  10.612  0.00  0.00    +0.000 C 
BRANCH  12  13
ATOM     13  C   UNL     1      44.486   2.732   9.222  0.00  0.00    +0.000 C 
ATOM     14  C   UNL     1      45.186   1.596   8.444  0.00  0.00    +0.000 C 
ATOM     15  C   UNL     1      46.582   2.001   7.967  0.00  0.00    +0.000 C 
ATOM     16  C   UNL     1      46.560   3.337   7.223  0.00  0.00    +0.000 C 
ATOM     17  N   UNL     1      45.894   4.386   7.991  0.00  0.00    +0.000 NA
ATOM     18  C   UNL     1      44.528   4.009   8.366  0.00  0.00    +0.000 C 
ATOM     19  H   UNL     1      45.875   5.251   7.454  0.00  0.00    +0.000 HD
ENDBRANCH  12  13
ENDBRANCH   8  12
ENDBRANCH   7   8
ENDBRANCH   1   7
BRANCH   4  20
ATOM     20  C   UNL     1      49.463   8.293  13.125  0.00  0.00    +0.000 C 
BRANCH  20  21
ATOM     21  N   UNL     1      50.682   7.750  13.666  0.00  0.00    +0.000 N 
ATOM     22  C   UNL     1      51.329   8.388  14.701  0.00  0.00    +0.000 C 
ATOM     23  O   UNL     1      50.939   9.447  15.177  0.00  0.00    +0.000 OA
ATOM     24  H   UNL     1      50.940   6.807  13.416  0.00  0.00    +0.000 HD
BRANCH  22  25
ATOM     25  C   UNL     1      52.555   7.728  15.149  0.00  0.00    +0.000 A 
ATOM     26  C   UNL     1      53.817   8.146  14.757  0.00  0.00    +0.000 A 
ATOM     27  S   UNL     1      55.075   7.281  15.517  0.00  0.00    +0.000 S 
ATOM     28  C   UNL     1      53.967   6.328  16.397  0.00  0.00    +0.000 A 
ATOM     29  N   UNL     1      54.400   5.394  17.277  0.00  0.00    +0.000 NA
ATOM     30  C   UNL     1      53.453   4.758  17.885  0.00  0.00    +0.000 A 
ATOM     31  N   UNL     1      52.102   4.946  17.683  0.00  0.00    +0.000 N 
ATOM     32  C   UNL     1      51.141   4.134  18.400  0.00  0.00    +0.000 C 
ATOM     33  C   UNL     1      51.620   5.841  16.723  0.00  0.00    +0.000 A 
ATOM     34  O   UNL     1      50.436   5.898  16.404  0.00  0.00    +0.000 OA
ATOM     35  C   UNL     1      52.659   6.638  16.086  0.00  0.00    +0.000 A 
ENDBRANCH  22  25
ENDBRANCH  20  21
ENDBRANCH   4  20
TORSDOF 9
ENDMDL
MODEL 4
REMARK VINA RESULT:    -6.845      2.800      3.047
REMARK INTER + INTRA:         -11.712
REMARK INTER:                 -10.172
REMARK INTRA:                  -1.541
REMARK UNBOUND:                -1.266
REMARK  Name = 
REMARK  11 active torsions:
REMARK  status: ('A' for Active; 'I' for Inactive)
REMARK    1  A    between atoms: C_1  and  C_2
REMARK    2  A    between atoms: C_2  and  C_3
REMARK    3  A    between atoms: C_3  and  N_4
REMARK    4  A    between atoms: N_4  and  C_5
REMARK    5  A    between atoms: N_4  and  C_27
REMARK    6  A    between atoms: C_5  and  C_6
REMARK    7  A    between atoms: C_9  and  C_10
REMARK    8  A    between atoms: C_10  and  N_11
REMARK    9  A    between atoms: C_12  and  C_14
REMARK   10  A    between atoms: N_20  and  C_21
REMARK   11  A    between atoms: C_27  and  C_28
REMARK                            x       y       z     vdW  Elec       q    Type
REMARK                         _______ _______ _______ _____ _____    ______ ____
ROOT
ATOM      1  C   UNL     1      46.776   4.475  13.916  0.00  0.00    +0.000 A 
ATOM      2  C   UNL     1      47.168   5.609  13.194  0.00  0.00    +0.000 A 
ATOM      3  C   UNL     1      47.946   6.602  13.801  0.00  0.00    +0.000 A 
ATOM      4  C   UNL     1      48.375   6.465  15.130  0.00  0.00    +0.000 A 
ATOM      5  C   UNL     1      47.944   5.355  15.865  0.00  0.00    +0.000 A 
ATOM      6  C   UNL     1      47.149   4.377  15.267  0.00  0.00    +0.000 A 
ENDROOT
BRANCH   1   7
ATOM      7  C   UNL     1      45.989   3.351  13.264  0.00  0.00    +0.000 C 
BRANCH   7   8
ATOM      8  N   UNL     1      45.115   3.747  12.129  0.00  0.00    +0.000 NA
BRANCH   8   9
ATOM      9  C   UNL     1      43.691   3.607  12.500  0.00  0.00    +0.000 C 
BRANCH   9  11
ATOM     10  C   UNL     1      42.377   5.658  11.765  0.00  0.00    +0.000 C 
ATOM     11  C   UNL     1      42.984   4.902  12.935  0.00  0.00    +0.000 C 
ENDBRANCH   9  11
ENDBRANCH   8   9
BRANCH   8  12
ATOM     12  C   UNL     1      45.475   3.022  10.892  0.00  0.00    +0.000 C 
BRANCH  12  13
ATOM     13  C   UNL     1      44.466   3.020   9.714  0.00  0.00    +0.000 C 
ATOM     14  C   UNL     1      44.844   1.917   8.703  0.00  0.00    +0.000 C 
ATOM     15  C   UNL     1      46.103   2.272   7.909  0.00  0.00    +0.000 C 
ATOM     16  C   UNL     1      46.008   3.668   7.293  0.00  0.00    +0.000 C 
ATOM     17  N   UNL     1      45.652   4.684   8.281  0.00  0.00    +0.000 NA
ATOM     18  C   UNL     1      44.399   4.365   8.970  0.00  0.00    +0.000 C 
ATOM     19  H   UNL     1      45.572   5.593   7.829  0.00  0.00    +0.000 HD
ENDBRANCH  12  13
ENDBRANCH   8  12
ENDBRANCH   7   8
ENDBRANCH   1   7
BRANCH   4  20
ATOM     20  C   UNL     1      49.291   7.479  15.760  0.00  0.00    +0.000 C 
BRANCH  20  21
ATOM     21  N   UNL     1      50.545   6.892  16.154  0.00  0.00    +0.000 N 
ATOM     22  C   UNL     1      50.873   6.781  17.487  0.00  0.00    +0.000 C 
ATOM     23  O   UNL     1      50.156   7.202  18.386  0.00  0.00    +0.000 OA
ATOM     24  H   UNL     1      51.080   6.390  15.460  0.00  0.00    +0.000 HD
BRANCH  22  25
ATOM     25  C   UNL     1      52.176   6.168  17.742  0.00  0.00    +0.000 A 
ATOM     26  C   UNL     1      53.308   6.911  18.041  0.00  0.00    +0.000 A 
ATOM     27  S   UNL     1      54.665   5.946  18.412  0.00  0.00    +0.000 S 
ATOM     28  C   UNL     1      53.775   4.508  18.191  0.00  0.00    +0.000 A 
ATOM     29  N   UNL     1      54.350   3.297  18.390  0.00  0.00    +0.000 NA
ATOM     30  C   UNL     1      53.556   2.295  18.202  0.00  0.00    +0.000 A 
ATOM     31  N   UNL     1      52.237   2.379  17.808  0.00  0.00    +0.000 N 
ATOM     32  C   UNL     1      51.466   1.173  17.590  0.00  0.00    +0.000 C 
ATOM     33  C   UNL     1      51.635   3.606  17.512  0.00  0.00    +0.000 A 
ATOM     34  O   UNL     1      50.525   3.693  16.995  0.00  0.00    +0.000 OA
ATOM     35  C   UNL     1      52.475   4.759  17.801  0.00  0.00    +0.000 A 
ENDBRANCH  22  25
ENDBRANCH  20  21
ENDBRANCH   4  20
TORSDOF 9
ENDMDL
MODEL 5
REMARK VINA RESULT:    -6.662      4.976      8.342
REMARK INTER + INTRA:         -11.433
REMARK INTER:                  -9.652
REMARK INTRA:                  -1.781
REMARK UNBOUND:                -1.266
REMARK  Name = 
REMARK  11 active torsions:
REMARK  status: ('A' for Active; 'I' for Inactive)
REMARK    1  A    between atoms: C_1  and  C_2
REMARK    2  A    between atoms: C_2  and  C_3
REMARK    3  A    between atoms: C_3  and  N_4
REMARK    4  A    between atoms: N_4  and  C_5
REMARK    5  A    between atoms: N_4  and  C_27
REMARK    6  A    between atoms: C_5  and  C_6
REMARK    7  A    between atoms: C_9  and  C_10
REMARK    8  A    between atoms: C_10  and  N_11
REMARK    9  A    between atoms: C_12  and  C_14
REMARK   10  A    between atoms: N_20  and  C_21
REMARK   11  A    between atoms: C_27  and  C_28
REMARK                            x       y       z     vdW  Elec       q    Type
REMARK                         _______ _______ _______ _____ _____    ______ ____
ROOT
ATOM      1  C   UNL     1      49.711   9.481  11.373  0.00  0.00    +0.000 A 
ATOM      2  C   UNL     1      48.761  10.460  11.689  0.00  0.00    +0.000 A 
ATOM      3  C   UNL     1      47.492  10.092  12.154  0.00  0.00    +0.000 A 
ATOM      4  C   UNL     1      47.162   8.742  12.343  0.00  0.00    +0.000 A 
ATOM      5  C   UNL     1      48.095   7.763  11.984  0.00  0.00    +0.000 A 
ATOM      6  C   UNL     1      49.351   8.130  11.498  0.00  0.00    +0.000 A 
ENDROOT
BRANCH   1   7
ATOM      7  C   UNL     1      51.117   9.853  10.932  0.00  0.00    +0.000 C 
BRANCH   7   8
ATOM      8  N   UNL     1      52.147   8.793  11.093  0.00  0.00    +0.000 NA
BRANCH   8   9
ATOM      9  C   UNL     1      53.159   9.202  12.088  0.00  0.00    +0.000 C 
BRANCH   9  11
ATOM     10  C   UNL     1      51.945   8.334  14.149  0.00  0.00    +0.000 C 
ATOM     11  C   UNL     1      53.241   8.333  13.355  0.00  0.00    +0.000 C 
ENDBRANCH   9  11
ENDBRANCH   8   9
BRANCH   8  12
ATOM     12  C   UNL     1      52.726   8.401   9.790  0.00  0.00    +0.000 C 
BRANCH  12  13
ATOM     13  C   UNL     1      52.447   6.971   9.257  0.00  0.00    +0.000 C 
ATOM     14  C   UNL     1      53.427   5.971   9.908  0.00  0.00    +0.000 C 
ATOM     15  C   UNL     1      54.851   6.129   9.371  0.00  0.00    +0.000 C 
ATOM     16  C   UNL     1      54.884   6.120   7.843  0.00  0.00    +0.000 C 
ATOM     17  N   UNL     1      53.948   7.081   7.265  0.00  0.00    +0.000 NA
ATOM     18  C   UNL     1      52.576   6.858   7.728  0.00  0.00    +0.000 C 
ATOM     19  H   UNL     1      53.979   7.027   6.248  0.00  0.00    +0.000 HD
ENDBRANCH  12  13
ENDBRANCH   8  12
ENDBRANCH   7   8
ENDBRANCH   1   7
BRANCH   4  20
ATOM     20  C   UNL     1      45.836   8.341  12.933  0.00  0.00    +0.000 C 
BRANCH  20  21
ATOM     21  N   UNL     1      45.524   6.963  12.655  0.00  0.00    +0.000 N 
ATOM     22  C   UNL     1      44.567   6.642  11.718  0.00  0.00    +0.000 C 
ATOM     23  O   UNL     1      43.916   7.486  11.116  0.00  0.00    +0.000 OA
ATOM     24  H   UNL     1      46.147   6.250  13.004  0.00  0.00    +0.000 HD
BRANCH  22  25
ATOM     25  C   UNL     1      44.351   5.207  11.539  0.00  0.00    +0.000 A 
ATOM     26  C   UNL     1      43.611   4.444  12.429  0.00  0.00    +0.000 A 
ATOM     27  S   UNL     1      43.413   2.827  11.924  0.00  0.00    +0.000 S 
ATOM     28  C   UNL     1      44.305   3.103  10.497  0.00  0.00    +0.000 A 
ATOM     29  N   UNL     1      44.486   2.115   9.588  0.00  0.00    +0.000 NA
ATOM     30  C   UNL     1      45.167   2.468   8.548  0.00  0.00    +0.000 A 
ATOM     31  N   UNL     1      45.712   3.716   8.331  0.00  0.00    +0.000 N 
ATOM     32  C   UNL     1      46.493   3.970   7.139  0.00  0.00    +0.000 C 
ATOM     33  C   UNL     1      45.617   4.734   9.285  0.00  0.00    +0.000 A 
ATOM     34  O   UNL     1      46.239   5.789   9.193  0.00  0.00    +0.000 OA
ATOM     35  C   UNL     1      44.780   4.397  10.427  0.00  0.00    +0.000 A 
ENDBRANCH  22  25
ENDBRANCH  20  21
ENDBRANCH   4  20
TORSDOF 9
ENDMDL
MODEL 6
REMARK VINA RESULT:    -6.601      1.728      2.174
REMARK INTER + INTRA:         -11.340
REMARK INTER:                  -9.751
REMARK INTRA:                  -1.588
REMARK UNBOUND:                -1.266
REMARK  Name = 
REMARK  11 active torsions:
REMARK  status: ('A' for Active; 'I' for Inactive)
REMARK    1  A    between atoms: C_1  and  C_2
REMARK    2  A    between atoms: C_2  and  C_3
REMARK    3  A    between atoms: C_3  and  N_4
REMARK    4  A    between atoms: N_4  and  C_5
REMARK    5  A    between atoms: N_4  and  C_27
REMARK    6  A    between atoms: C_5  and  C_6
REMARK    7  A    between atoms: C_9  and  C_10
REMARK    8  A    between atoms: C_10  and  N_11
REMARK    9  A    between atoms: C_12  and  C_14
REMARK   10  A    between atoms: N_20  and  C_21
REMARK   11  A    between atoms: C_27  and  C_28
REMARK                            x       y       z     vdW  Elec       q    Type
REMARK                         _______ _______ _______ _____ _____    ______ ____
ROOT
ATOM      1  C   UNL     1      45.649   7.013  11.882  0.00  0.00    +0.000 A 
ATOM      2  C   UNL     1      46.875   6.617  11.334  0.00  0.00    +0.000 A 
ATOM      3  C   UNL     1      48.073   7.166  11.808  0.00  0.00    +0.000 A 
ATOM      4  C   UNL     1      48.071   8.096  12.857  0.00  0.00    +0.000 A 
ATOM      5  C   UNL     1      46.842   8.526  13.373  0.00  0.00    +0.000 A 
ATOM      6  C   UNL     1      45.648   7.996  12.885  0.00  0.00    +0.000 A 
ENDROOT
BRANCH   1   7
ATOM      7  C   UNL     1      44.340   6.385  11.436  0.00  0.00    +0.000 C 
BRANCH   7   8
ATOM      8  N   UNL     1      44.282   4.901  11.493  0.00  0.00    +0.000 NA
BRANCH   8   9
ATOM      9  C   UNL     1      44.658   4.420  12.839  0.00  0.00    +0.000 C 
BRANCH   9  11
ATOM     10  C   UNL     1      46.944   3.631  13.632  0.00  0.00    +0.000 C 
ATOM     11  C   UNL     1      45.676   3.267  12.877  0.00  0.00    +0.000 C 
ENDBRANCH   9  11
ENDBRANCH   8   9
BRANCH   8  12
ATOM     12  C   UNL     1      45.073   4.287  10.406  0.00  0.00    +0.000 C 
BRANCH  12  13
ATOM     13  C   UNL     1      44.321   3.718   9.174  0.00  0.00    +0.000 C 
ATOM     14  C   UNL     1      44.430   2.178   9.160  0.00  0.00    +0.000 C 
ATOM     15  C   UNL     1      45.839   1.705   8.792  0.00  0.00    +0.000 C 
ATOM     16  C   UNL     1      46.343   2.372   7.512  0.00  0.00    +0.000 C 
ATOM     17  N   UNL     1      46.226   3.828   7.565  0.00  0.00    +0.000 NA
ATOM     18  C   UNL     1      44.852   4.259   7.836  0.00  0.00    +0.000 C 
ATOM     19  H   UNL     1      46.546   4.234   6.687  0.00  0.00    +0.000 HD
ENDBRANCH  12  13
ENDBRANCH   8  12
ENDBRANCH   7   8
ENDBRANCH   1   7
BRANCH   4  20
ATOM     20  C   UNL     1      49.358   8.618  13.437  0.00  0.00    +0.000 C 
BRANCH  20  21
ATOM     21  N   UNL     1      50.017   7.629  14.250  0.00  0.00    +0.000 N 
ATOM     22  C   UNL     1      50.271   7.878  15.581  0.00  0.00    +0.000 C 
ATOM     23  O   UNL     1      49.997   8.942  16.122  0.00  0.00    +0.000 OA
ATOM     24  H   UNL     1      50.105   6.691  13.887  0.00  0.00    +0.000 HD
BRANCH  22  25
ATOM     25  C   UNL     1      50.947   6.788  16.283  0.00  0.00    +0.000 A 
ATOM     26  C   UNL     1      52.299   6.816  16.584  0.00  0.00    +0.000 A 
ATOM     27  S   UNL     1      52.808   5.477  17.511  0.00  0.00    +0.000 S 
ATOM     28  C   UNL     1      51.232   4.827  17.543  0.00  0.00    +0.000 A 
ATOM     29  N   UNL     1      50.966   3.681  18.215  0.00  0.00    +0.000 NA
ATOM     30  C   UNL     1      49.727   3.313  18.168  0.00  0.00    +0.000 A 
ATOM     31  N   UNL     1      48.721   3.968  17.491  0.00  0.00    +0.000 N 
ATOM     32  C   UNL     1      47.379   3.424  17.482  0.00  0.00    +0.000 C 
ATOM     33  C   UNL     1      48.975   5.106  16.718  0.00  0.00    +0.000 A 
ATOM     34  O   UNL     1      48.135   5.601  15.971  0.00  0.00    +0.000 OA
ATOM     35  C   UNL     1      50.341   5.598  16.824  0.00  0.00    +0.000 A 
ENDBRANCH  22  25
ENDBRANCH  20  21
ENDBRANCH   4  20
TORSDOF 9
ENDMDL
MODEL 7
REMARK VINA RESULT:    -6.530      1.468      3.266
REMARK INTER + INTRA:         -11.232
REMARK INTER:                  -9.215
REMARK INTRA:                  -2.017
REMARK UNBOUND:                -1.266
REMARK  Name = 
REMARK  11 active torsions:
REMARK  status: ('A' for Active; 'I' for Inactive)
REMARK    1  A    between atoms: C_1  and  C_2
REMARK    2  A    between atoms: C_2  and  C_3
REMARK    3  A    between atoms: C_3  and  N_4
REMARK    4  A    between atoms: N_4  and  C_5
REMARK    5  A    between atoms: N_4  and  C_27
REMARK    6  A    between atoms: C_5  and  C_6
REMARK    7  A    between atoms: C_9  and  C_10
REMARK    8  A    between atoms: C_10  and  N_11
REMARK    9  A    between atoms: C_12  and  C_14
REMARK   10  A    between atoms: N_20  and  C_21
REMARK   11  A    between atoms: C_27  and  C_28
REMARK                            x       y       z     vdW  Elec       q    Type
REMARK                         _______ _______ _______ _____ _____    ______ ____
ROOT
ATOM      1  C   UNL     1      46.109   6.630  10.872  0.00  0.00    +0.000 A 
ATOM      2  C   UNL     1      47.332   6.360  11.496  0.00  0.00    +0.000 A 
ATOM      3  C   UNL     1      47.739   7.106  12.610  0.00  0.00    +0.000 A 
ATOM      4  C   UNL     1      46.917   8.111  13.139  0.00  0.00    +0.000 A 
ATOM      5  C   UNL     1      45.715   8.412  12.487  0.00  0.00    +0.000 A 
ATOM      6  C   UNL     1      45.322   7.684  11.363  0.00  0.00    +0.000 A 
ENDROOT
BRANCH   1   7
ATOM      7  C   UNL     1      45.611   5.793   9.705  0.00  0.00    +0.000 C 
BRANCH   7   8
ATOM      8  N   UNL     1      44.934   4.519  10.065  0.00  0.00    +0.000 NA
BRANCH   8   9
ATOM      9  C   UNL     1      44.980   3.572   8.931  0.00  0.00    +0.000 C 
BRANCH   9  11
ATOM     10  C   UNL     1      46.679   2.663   7.270  0.00  0.00    +0.000 C 
ATOM     11  C   UNL     1      45.997   3.902   7.825  0.00  0.00    +0.000 C 
ENDBRANCH   9  11
ENDBRANCH   8   9
BRANCH   8  12
ATOM     12  C   UNL     1      43.569   4.759  10.577  0.00  0.00    +0.000 C 
BRANCH  12  13
ATOM     13  C   UNL     1      43.105   3.983  11.838  0.00  0.00    +0.000 C 
ATOM     14  C   UNL     1      43.225   4.888  13.083  0.00  0.00    +0.000 C 
ATOM     15  C   UNL     1      44.683   5.113  13.491  0.00  0.00    +0.000 C 
ATOM     16  C   UNL     1      45.447   3.794  13.610  0.00  0.00    +0.000 C 
ATOM     17  N   UNL     1      45.311   2.968  12.413  0.00  0.00    +0.000 NA
ATOM     18  C   UNL     1      43.909   2.696  12.089  0.00  0.00    +0.000 C 
ATOM     19  H   UNL     1      45.810   2.089  12.540  0.00  0.00    +0.000 HD
ENDBRANCH  12  13
ENDBRANCH   8  12
ENDBRANCH   7   8
ENDBRANCH   1   7
BRANCH   4  20
ATOM     20  C   UNL     1      47.302   8.851  14.392  0.00  0.00    +0.000 C 
BRANCH  20  21
ATOM     21  N   UNL     1      48.304   8.141  15.144  0.00  0.00    +0.000 N 
ATOM     22  C   UNL     1      48.480   8.398  16.485  0.00  0.00    +0.000 C 
ATOM     23  O   UNL     1      47.842   9.252  17.088  0.00  0.00    +0.000 OA
ATOM     24  H   UNL     1      48.728   7.325  14.727  0.00  0.00    +0.000 HD
BRANCH  22  25
ATOM     25  C   UNL     1      49.533   7.607  17.122  0.00  0.00    +0.000 A 
ATOM     26  C   UNL     1      50.611   8.183  17.774  0.00  0.00    +0.000 A 
ATOM     27  S   UNL     1      51.626   7.039  18.530  0.00  0.00    +0.000 S 
ATOM     28  C   UNL     1      50.647   5.742  18.012  0.00  0.00    +0.000 A 
ATOM     29  N   UNL     1      50.945   4.466  18.355  0.00  0.00    +0.000 NA
ATOM     30  C   UNL     1      50.109   3.587  17.908  0.00  0.00    +0.000 A 
ATOM     31  N   UNL     1      49.007   3.854  17.124  0.00  0.00    +0.000 N 
ATOM     32  C   UNL     1      48.172   2.769  16.651  0.00  0.00    +0.000 C 
ATOM     33  C   UNL     1      48.716   5.148  16.681  0.00  0.00    +0.000 A 
ATOM     34  O   UNL     1      47.848   5.384  15.845  0.00  0.00    +0.000 OA
ATOM     35  C   UNL     1      49.586   6.172  17.242  0.00  0.00    +0.000 A 
ENDBRANCH  22  25
ENDBRANCH  20  21
ENDBRANCH   4  20
TORSDOF 9
ENDMDL
MODEL 8
REMARK VINA RESULT:    -6.476      3.545      5.698
REMARK INTER + INTRA:         -11.149
REMARK INTER:                  -9.817
REMARK INTRA:                  -1.332
REMARK UNBOUND:                -1.266
REMARK  Name = 
REMARK  11 active torsions:
REMARK  status: ('A' for Active; 'I' for Inactive)
REMARK    1  A    between atoms: C_1  and  C_2
REMARK    2  A    between atoms: C_2  and  C_3
REMARK    3  A    between atoms: C_3  and  N_4
REMARK    4  A    between atoms: N_4  and  C_5
REMARK    5  A    between atoms: N_4  and  C_27
REMARK    6  A    between atoms: C_5  and  C_6
REMARK    7  A    between atoms: C_9  and  C_10
REMARK    8  A    between atoms: C_10  and  N_11
REMARK    9  A    between atoms: C_12  and  C_14
REMARK   10  A    between atoms: N_20  and  C_21
REMARK   11  A    between atoms: C_27  and  C_28
REMARK                            x       y       z     vdW  Elec       q    Type
REMARK                         _______ _______ _______ _____ _____    ______ ____
ROOT
ATOM      1  C   UNL     1      47.729   5.986  14.805  0.00  0.00    +0.000 A 
ATOM      2  C   UNL     1      47.136   4.721  14.711  0.00  0.00    +0.000 A 
ATOM      3  C   UNL     1      47.375   3.751  15.692  0.00  0.00    +0.000 A 
ATOM      4  C   UNL     1      48.183   4.037  16.802  0.00  0.00    +0.000 A 
ATOM      5  C   UNL     1      48.812   5.286  16.873  0.00  0.00    +0.000 A 
ATOM      6  C   UNL     1      48.593   6.243  15.882  0.00  0.00    +0.000 A 
ENDROOT
BRANCH   1   7
ATOM      7  C   UNL     1      47.434   7.079  13.792  0.00  0.00    +0.000 C 
BRANCH   7   8
ATOM      8  N   UNL     1      46.920   6.619  12.475  0.00  0.00    +0.000 NA
BRANCH   8   9
ATOM      9  C   UNL     1      47.728   7.191  11.378  0.00  0.00    +0.000 C 
BRANCH   9  11
ATOM     10  C   UNL     1      49.297   9.187  11.547  0.00  0.00    +0.000 C 
ATOM     11  C   UNL     1      49.128   7.693  11.769  0.00  0.00    +0.000 C 
ENDBRANCH   9  11
ENDBRANCH   8   9
BRANCH   8  12
ATOM     12  C   UNL     1      45.472   6.881  12.340  0.00  0.00    +0.000 C 
BRANCH  12  13
ATOM     13  C   UNL     1      44.681   6.117  11.245  0.00  0.00    +0.000 C 
ATOM     14  C   UNL     1      43.190   6.042  11.635  0.00  0.00    +0.000 C 
ATOM     15  C   UNL     1      42.947   5.072  12.794  0.00  0.00    +0.000 C 
ATOM     16  C   UNL     1      43.587   3.709  12.534  0.00  0.00    +0.000 C 
ATOM     17  N   UNL     1      44.998   3.822  12.172  0.00  0.00    +0.000 NA
ATOM     18  C   UNL     1      45.198   4.688  11.008  0.00  0.00    +0.000 C 
ATOM     19  H   UNL     1      45.382   2.898  11.981  0.00  0.00    +0.000 HD
ENDBRANCH  12  13
ENDBRANCH   8  12
ENDBRANCH   7   8
ENDBRANCH   1   7
BRANCH   4  20
ATOM     20  C   UNL     1      48.366   3.035  17.909  0.00  0.00    +0.000 C 
BRANCH  20  21
ATOM     21  N   UNL     1      49.759   2.758  18.152  0.00  0.00    +0.000 N 
ATOM     22  C   UNL     1      50.505   2.070  17.220  0.00  0.00    +0.000 C 
ATOM     23  O   UNL     1      50.029   1.631  16.181  0.00  0.00    +0.000 OA
ATOM     24  H   UNL     1      50.220   3.242  18.909  0.00  0.00    +0.000 HD
BRANCH  22  25
ATOM     25  C   UNL     1      51.901   1.858  17.598  0.00  0.00    +0.000 A 
ATOM     26  C   UNL     1      52.448   0.596  17.769  0.00  0.00    +0.000 A 
ATOM     27  S   UNL     1      54.122   0.628  18.090  0.00  0.00    +0.000 S 
ATOM     28  C   UNL     1      54.165   2.330  18.003  0.00  0.00    +0.000 A 
ATOM     29  N   UNL     1      55.330   3.005  18.157  0.00  0.00    +0.000 NA
ATOM     30  C   UNL     1      55.219   4.288  18.050  0.00  0.00    +0.000 A 
ATOM     31  N   UNL     1      54.045   4.976  17.827  0.00  0.00    +0.000 N 
ATOM     32  C   UNL     1      54.050   6.423  17.772  0.00  0.00    +0.000 C 
ATOM     33  C   UNL     1      52.812   4.319  17.747  0.00  0.00    +0.000 A 
ATOM     34  O   UNL     1      51.741   4.919  17.725  0.00  0.00    +0.000 OA
ATOM     35  C   UNL     1      52.916   2.867  17.772  0.00  0.00    +0.000 A 
ENDBRANCH  22  25
ENDBRANCH  20  21
ENDBRANCH   4  20
TORSDOF 9
ENDMDL
MODEL 9
REMARK VINA RESULT:    -5.984      3.147      8.102
REMARK INTER + INTRA:         -10.398
REMARK INTER:                  -8.003
REMARK INTRA:                  -2.395
REMARK UNBOUND:                -1.266
REMARK  Name = 
REMARK  11 active torsions:
REMARK  status: ('A' for Active; 'I' for Inactive)
REMARK    1  A    between atoms: C_1  and  C_2
REMARK    2  A    between atoms: C_2  and  C_3
REMARK    3  A    between atoms: C_3  and  N_4
REMARK    4  A    between atoms: N_4  and  C_5
REMARK    5  A    between atoms: N_4  and  C_27
REMARK    6  A    between atoms: C_5  and  C_6
REMARK    7  A    between atoms: C_9  and  C_10
REMARK    8  A    between atoms: C_10  and  N_11
REMARK    9  A    between atoms: C_12  and  C_14
REMARK   10  A    between atoms: N_20  and  C_21
REMARK   11  A    between atoms: C_27  and  C_28
REMARK                            x       y       z     vdW  Elec       q    Type
REMARK                         _______ _______ _______ _____ _____    ______ ____
ROOT
ATOM      1  C   UNL     1      50.938   6.600  17.001  0.00  0.00    +0.000 A 
ATOM      2  C   UNL     1      51.121   7.038  15.684  0.00  0.00    +0.000 A 
ATOM      3  C   UNL     1      50.266   8.000  15.131  0.00  0.00    +0.000 A 
ATOM      4  C   UNL     1      49.233   8.564  15.894  0.00  0.00    +0.000 A 
ATOM      5  C   UNL     1      49.021   8.092  17.195  0.00  0.00    +0.000 A 
ATOM      6  C   UNL     1      49.859   7.117  17.737  0.00  0.00    +0.000 A 
ENDROOT
BRANCH   1   7
ATOM      7  C   UNL     1      51.891   5.609  17.648  0.00  0.00    +0.000 C 
BRANCH   7   8
ATOM      8  N   UNL     1      51.261   4.404  18.249  0.00  0.00    +0.000 NA
BRANCH   8   9
ATOM      9  C   UNL     1      52.271   3.594  18.961  0.00  0.00    +0.000 C 
BRANCH   9  11
ATOM     10  C   UNL     1      53.318   1.473  18.024  0.00  0.00    +0.000 C 
ATOM     11  C   UNL     1      53.383   2.990  18.085  0.00  0.00    +0.000 C 
ENDBRANCH   9  11
ENDBRANCH   8   9
BRANCH   8  12
ATOM     12  C   UNL     1      50.493   3.638  17.245  0.00  0.00    +0.000 C 
BRANCH  12  13
ATOM     13  C   UNL     1      49.263   2.821  17.720  0.00  0.00    +0.000 C 
ATOM     14  C   UNL     1      48.131   2.926  16.675  0.00  0.00    +0.000 C 
ATOM     15  C   UNL     1      47.482   4.312  16.668  0.00  0.00    +0.000 C 
ATOM     16  C   UNL     1      47.068   4.749  18.073  0.00  0.00    +0.000 C 
ATOM     17  N   UNL     1      48.165   4.639  19.031  0.00  0.00    +0.000 NA
ATOM     18  C   UNL     1      48.716   3.282  19.081  0.00  0.00    +0.000 C 
ATOM     19  H   UNL     1      47.844   4.912  19.959  0.00  0.00    +0.000 HD
ENDBRANCH  12  13
ENDBRANCH   8  12
ENDBRANCH   7   8
ENDBRANCH   1   7
BRANCH   4  20
ATOM     20  C   UNL     1      48.371   9.666  15.340  0.00  0.00    +0.000 C 
BRANCH  20  21
ATOM     21  N   UNL     1      47.270   9.146  14.571  0.00  0.00    +0.000 N 
ATOM     22  C   UNL     1      47.291   9.207  13.195  0.00  0.00    +0.000 C 
ATOM     23  O   UNL     1      48.203   9.731  12.567  0.00  0.00    +0.000 OA
ATOM     24  H   UNL     1      46.588   8.566  15.040  0.00  0.00    +0.000 HD
BRANCH  22  25
ATOM     25  C   UNL     1      46.108   8.645  12.545  0.00  0.00    +0.000 A 
ATOM     26  C   UNL     1      45.189   9.423  11.860  0.00  0.00    +0.000 A 
ATOM     27  S   UNL     1      43.971   8.506  11.095  0.00  0.00    +0.000 S 
ATOM     28  C   UNL     1      44.643   7.042  11.652  0.00  0.00    +0.000 A 
ATOM     29  N   UNL     1      44.090   5.851  11.318  0.00  0.00    +0.000 NA
ATOM     30  C   UNL     1      44.711   4.823  11.796  0.00  0.00    +0.000 A 
ATOM     31  N   UNL     1      45.829   4.865  12.603  0.00  0.00    +0.000 N 
ATOM     32  C   UNL     1      46.405   3.637  13.108  0.00  0.00    +0.000 C 
ATOM     33  C   UNL     1      46.377   6.077  13.036  0.00  0.00    +0.000 A 
ATOM     34  O   UNL     1      47.258   6.138  13.889  0.00  0.00    +0.000 OA
ATOM     35  C   UNL     1      45.755   7.251  12.442  0.00  0.00    +0.000 A 
ENDBRANCH  22  25
ENDBRANCH  20  21
ENDBRANCH   4  20
TORSDOF 9
ENDMDL
