MODEL 1
REMARK VINA RESULT:    -8.051      0.000      0.000
REMARK INTER + INTRA:          -9.016
REMARK INTER:                  -9.463
REMARK INTRA:                   0.447
REMARK UNBOUND:                 0.447
REMARK  Name = 
REMARK  3 active torsions:
REMARK  status: ('A' for Active; 'I' for Inactive)
REMARK    1  A    between atoms: C_2  and  C_4
REMARK    2  A    between atoms: N_8  and  C_9
REMARK    3  A    between atoms: C_9  and  C_10
REMARK                            x       y       z     vdW  Elec       q    Type
REMARK                         _______ _______ _______ _____ _____    ______ ____
ROOT
ATOM      1  C   UNL     1      46.399   2.659   7.591  0.00  0.00    +0.000 A 
ATOM      2  C   UNL     1      45.819   1.688   8.370  0.00  0.00    +0.000 A 
ATOM      3  N   UNL     1      44.993   1.951   9.408  0.00  0.00    +0.000 NA
ATOM      4  C   UNL     1      44.749   3.245   9.687  0.00  0.00    +0.000 A 
ATOM      5  N   UNL     1      43.927   3.484  10.785  0.00  0.00    +0.000 N 
ATOM      6  N   UNL     1      45.280   4.260   8.986  0.00  0.00    +0.000 NA
ATOM      7  C   UNL     1      46.106   3.948   7.962  0.00  0.00    +0.000 A 
ATOM      8  H   UNL     1      43.746   2.615  11.265  0.00  0.00    +0.000 HD
ENDROOT
BRANCH   1  10
ATOM      9  N   UNL     1      47.214   3.222   5.372  0.00  0.00    +0.000 N 
ATOM     10  C   UNL     1      47.295   2.392   6.456  0.00  0.00    +0.000 C 
ATOM     11  O   UNL     1      48.111   1.482   6.497  0.00  0.00    +0.000 OA
ATOM     12  H   UNL     1      47.916   3.085   4.654  0.00  0.00    +0.000 HD
ATOM     13  H   UNL     1      46.747   4.119   5.388  0.00  0.00    +0.000 HD
ENDBRANCH   1  10
BRANCH   5  14
ATOM     14  C   UNL     1      43.930   4.753  11.523  0.00  0.00    +0.000 C 
ATOM     15  C   UNL     1      42.694   5.241  12.265  0.00  0.00    +0.000 C 
ATOM     16  C   UNL     1      43.069   5.891  10.974  0.00  0.00    +0.000 C 
BRANCH  14  17
ATOM     17  C   UNL     1      45.309   5.177  12.029  0.00  0.00    +0.000 A 
ATOM     18  C   UNL     1      45.976   6.289  11.479  0.00  0.00    +0.000 A 
ATOM     19  C   UNL     1      47.172   6.766  12.024  0.00  0.00    +0.000 A 
ATOM     20  C   UNL     1      47.735   6.132  13.125  0.00  0.00    +0.000 A 
ATOM     21  C   UNL     1      47.124   5.000  13.657  0.00  0.00    +0.000 A 
ATOM     22  C   UNL     1      45.933   4.523  13.105  0.00  0.00    +0.000 A 
ENDBRANCH  14  17
ENDBRANCH   5  14
TORSDOF 3
ENDMDL
MODEL 2
REMARK VINA RESULT:    -7.698      3.513      6.184
REMARK INTER + INTRA:          -8.600
REMARK INTER:                  -8.391
REMARK INTRA:                  -0.209
REMARK UNBOUND:                 0.447
REMARK  Name = 
REMARK  3 active torsions:
REMARK  status: ('A' for Active; 'I' for Inactive)
REMARK    1  A    between atoms: C_2  and  C_4
REMARK    2  A    between atoms: N_8  and  C_9
REMARK    3  A    between atoms: C_9  and  C_10
REMARK                            x       y       z     vdW  Elec       q    Type
REMARK                         _______ _______ _______ _____ _____    ______ ____
ROOT
ATOM      1  C   UNL     1      47.895   5.840  14.750  0.00  0.00    +0.000 A 
ATOM      2  C   UNL     1      47.264   4.717  15.226  0.00  0.00    +0.000 A 
ATOM      3  N   UNL     1      46.390   3.982  14.501  0.00  0.00    +0.000 NA
ATOM      4  C   UNL     1      46.125   4.400  13.249  0.00  0.00    +0.000 A 
ATOM      5  N   UNL     1      45.192   3.645  12.543  0.00  0.00    +0.000 N 
ATOM      6  N   UNL     1      46.688   5.491  12.705  0.00  0.00    +0.000 NA
ATOM      7  C   UNL     1      47.549   6.199  13.471  0.00  0.00    +0.000 A 
ATOM      8  H   UNL     1      44.779   2.961  13.158  0.00  0.00    +0.000 HD
ENDROOT
BRANCH   1  10
ATOM      9  N   UNL     1      48.369   7.365  16.581  0.00  0.00    +0.000 N 
ATOM     10  C   UNL     1      48.851   6.649  15.521  0.00  0.00    +0.000 C 
ATOM     11  O   UNL     1      50.044   6.648  15.246  0.00  0.00    +0.000 OA
ATOM     12  H   UNL     1      49.063   7.823  17.160  0.00  0.00    +0.000 HD
ATOM     13  H   UNL     1      47.461   7.208  16.996  0.00  0.00    +0.000 HD
ENDBRANCH   1  10
BRANCH   5  14
ATOM     14  C   UNL     1      44.432   4.178  11.406  0.00  0.00    +0.000 C 
ATOM     15  C   UNL     1      43.683   5.499  11.504  0.00  0.00    +0.000 C 
ATOM     16  C   UNL     1      42.909   4.223  11.535  0.00  0.00    +0.000 C 
BRANCH  14  17
ATOM     17  C   UNL     1      44.949   3.724  10.041  0.00  0.00    +0.000 A 
ATOM     18  C   UNL     1      45.437   4.653   9.102  0.00  0.00    +0.000 A 
ATOM     19  C   UNL     1      46.036   4.239   7.908  0.00  0.00    +0.000 A 
ATOM     20  C   UNL     1      46.147   2.884   7.621  0.00  0.00    +0.000 A 
ATOM     21  C   UNL     1      45.627   1.945   8.508  0.00  0.00    +0.000 A 
ATOM     22  C   UNL     1      45.023   2.364   9.696  0.00  0.00    +0.000 A 
ENDBRANCH  14  17
ENDBRANCH   5  14
TORSDOF 3
ENDMDL
MODEL 3
REMARK VINA RESULT:    -6.844      3.418      6.087
REMARK INTER + INTRA:          -7.597
REMARK INTER:                  -8.461
REMARK INTRA:                   0.864
REMARK UNBOUND:                 0.447
REMARK  Name = 
REMARK  3 active torsions:
REMARK  status: ('A' for Active; 'I' for Inactive)
REMARK    1  A    between atoms: C_2  and  C_4
REMARK    2  A    between atoms: N_8  and  C_9
REMARK    3  A    between atoms: C_9  and  C_10
REMARK                            x       y       z     vdW  Elec       q    Type
REMARK                         _______ _______ _______ _____ _____    ______ ____
ROOT
ATOM      1  C   UNL     1      46.269   7.940  12.779  0.00  0.00    +0.000 A 
ATOM      2  C   UNL     1      45.297   8.258  11.862  0.00  0.00    +0.000 A 
ATOM      3  N   UNL     1      44.486   7.344  11.281  0.00  0.00    +0.000 NA
ATOM      4  C   UNL     1      44.667   6.055  11.622  0.00  0.00    +0.000 A 
ATOM      5  N   UNL     1      43.844   5.135  10.977  0.00  0.00    +0.000 N 
ATOM      6  N   UNL     1      45.599   5.652  12.502  0.00  0.00    +0.000 NA
ATOM      7  C   UNL     1      46.391   6.600  13.051  0.00  0.00    +0.000 A 
ATOM      8  H   UNL     1      43.316   5.604  10.256  0.00  0.00    +0.000 HD
ENDROOT
BRANCH   1  10
ATOM      9  N   UNL     1      47.245   8.895  14.789  0.00  0.00    +0.000 N 
ATOM     10  C   UNL     1      47.156   8.919  13.425  0.00  0.00    +0.000 C 
ATOM     11  O   UNL     1      47.821   9.703  12.760  0.00  0.00    +0.000 OA
ATOM     12  H   UNL     1      47.943   9.503  15.200  0.00  0.00    +0.000 HD
ATOM     13  H   UNL     1      46.920   8.124  15.357  0.00  0.00    +0.000 HD
ENDBRANCH   1  10
BRANCH   5  14
ATOM     14  C   UNL     1      44.189   3.715  10.840  0.00  0.00    +0.000 C 
ATOM     15  C   UNL     1      43.348   2.630  11.496  0.00  0.00    +0.000 C 
ATOM     16  C   UNL     1      44.670   2.982  12.093  0.00  0.00    +0.000 C 
BRANCH  14  17
ATOM     17  C   UNL     1      44.959   3.380   9.563  0.00  0.00    +0.000 A 
ATOM     18  C   UNL     1      45.489   4.396   8.745  0.00  0.00    +0.000 A 
ATOM     19  C   UNL     1      46.308   4.101   7.651  0.00  0.00    +0.000 A 
ATOM     20  C   UNL     1      46.605   2.778   7.343  0.00  0.00    +0.000 A 
ATOM     21  C   UNL     1      46.053   1.751   8.105  0.00  0.00    +0.000 A 
ATOM     22  C   UNL     1      45.229   2.052   9.192  0.00  0.00    +0.000 A 
ENDBRANCH  14  17
ENDBRANCH   5  14
TORSDOF 3
ENDMDL
MODEL 4
REMARK VINA RESULT:    -6.495      2.756      4.415
REMARK INTER + INTRA:          -7.187
REMARK INTER:                  -7.077
REMARK INTRA:                  -0.110
REMARK UNBOUND:                 0.447
REMARK  Name = 
REMARK  3 active torsions:
REMARK  status: ('A' for Active; 'I' for Inactive)
REMARK    1  A    between atoms: C_2  and  C_4
REMARK    2  A    between atoms: N_8  and  C_9
REMARK    3  A    between atoms: C_9  and  C_10
REMARK                            x       y       z     vdW  Elec       q    Type
REMARK                         _______ _______ _______ _____ _____    ______ ____
ROOT
ATOM      1  C   UNL     1      44.965   3.857  10.292  0.00  0.00    +0.000 A 
ATOM      2  C   UNL     1      44.810   3.532  11.618  0.00  0.00    +0.000 A 
ATOM      3  N   UNL     1      45.199   4.332  12.637  0.00  0.00    +0.000 NA
ATOM      4  C   UNL     1      45.781   5.502  12.314  0.00  0.00    +0.000 A 
ATOM      5  N   UNL     1      46.205   6.284  13.385  0.00  0.00    +0.000 N 
ATOM      6  N   UNL     1      45.981   5.896  11.046  0.00  0.00    +0.000 NA
ATOM      7  C   UNL     1      45.584   5.060  10.060  0.00  0.00    +0.000 A 
ATOM      8  H   UNL     1      46.100   5.764  14.243  0.00  0.00    +0.000 HD
ENDROOT
BRANCH   1  10
ATOM      9  N   UNL     1      44.242   3.613   7.985  0.00  0.00    +0.000 N 
ATOM     10  C   UNL     1      44.545   3.003   9.171  0.00  0.00    +0.000 C 
ATOM     11  O   UNL     1      44.507   1.785   9.285  0.00  0.00    +0.000 OA
ATOM     12  H   UNL     1      44.064   2.996   7.201  0.00  0.00    +0.000 HD
ATOM     13  H   UNL     1      44.494   4.567   7.767  0.00  0.00    +0.000 HD
ENDBRANCH   1  10
BRANCH   5  14
ATOM     14  C   UNL     1      47.248   7.309  13.260  0.00  0.00    +0.000 C 
ATOM     15  C   UNL     1      48.706   6.933  13.040  0.00  0.00    +0.000 C 
ATOM     16  C   UNL     1      48.276   7.411  14.387  0.00  0.00    +0.000 C 
BRANCH  14  17
ATOM     17  C   UNL     1      46.745   8.650  12.725  0.00  0.00    +0.000 A 
ATOM     18  C   UNL     1      47.629   9.580  12.144  0.00  0.00    +0.000 A 
ATOM     19  C   UNL     1      47.162  10.747  11.532  0.00  0.00    +0.000 A 
ATOM     20  C   UNL     1      45.799  11.017  11.499  0.00  0.00    +0.000 A 
ATOM     21  C   UNL     1      44.907  10.140  12.111  0.00  0.00    +0.000 A 
ATOM     22  C   UNL     1      45.379   8.980  12.728  0.00  0.00    +0.000 A 
ENDBRANCH  14  17
ENDBRANCH   5  14
TORSDOF 3
ENDMDL
MODEL 5
REMARK VINA RESULT:    -6.458      4.399      6.398
REMARK INTER + INTRA:          -7.144
REMARK INTER:                  -7.066
REMARK INTRA:                  -0.077
REMARK UNBOUND:                 0.447
REMARK  Name = 
REMARK  3 active torsions:
REMARK  status: ('A' for Active; 'I' for Inactive)
REMARK    1  A    between atoms: C_2  and  C_4
REMARK    2  A    between atoms: N_8  and  C_9
REMARK    3  A    between atoms: C_9  and  C_10
REMARK                            x       y       z     vdW  Elec       q    Type
REMARK                         _______ _______ _______ _____ _____    ______ ____
ROOT
ATOM      1  C   UNL     1      45.682   4.284  12.301  0.00  0.00    +0.000 A 
ATOM      2  C   UNL     1      45.987   5.570  12.673  0.00  0.00    +0.000 A 
ATOM      3  N   UNL     1      46.712   5.883  13.771  0.00  0.00    +0.000 NA
ATOM      4  C   UNL     1      47.136   4.862  14.539  0.00  0.00    +0.000 A 
ATOM      5  N   UNL     1      47.845   5.217  15.683  0.00  0.00    +0.000 N 
ATOM      6  N   UNL     1      46.876   3.574  14.258  0.00  0.00    +0.000 NA
ATOM      7  C   UNL     1      46.142   3.311  13.153  0.00  0.00    +0.000 A 
ATOM      8  H   UNL     1      47.815   6.220  15.799  0.00  0.00    +0.000 HD
ENDROOT
BRANCH   1  10
ATOM      9  N   UNL     1      44.770   2.597  10.808  0.00  0.00    +0.000 N 
ATOM     10  C   UNL     1      44.900   3.924  11.108  0.00  0.00    +0.000 C 
ATOM     11  O   UNL     1      44.353   4.784  10.430  0.00  0.00    +0.000 OA
ATOM     12  H   UNL     1      44.138   2.372  10.049  0.00  0.00    +0.000 HD
ATOM     13  H   UNL     1      44.984   1.853  11.459  0.00  0.00    +0.000 HD
ENDBRANCH   1  10
BRANCH   5  14
ATOM     14  C   UNL     1      47.966   4.338  16.852  0.00  0.00    +0.000 C 
ATOM     15  C   UNL     1      46.763   3.590  17.409  0.00  0.00    +0.000 C 
ATOM     16  C   UNL     1      47.280   4.782  18.144  0.00  0.00    +0.000 C 
BRANCH  14  17
ATOM     17  C   UNL     1      49.359   3.736  17.038  0.00  0.00    +0.000 A 
ATOM     18  C   UNL     1      50.456   4.539  17.404  0.00  0.00    +0.000 A 
ATOM     19  C   UNL     1      51.701   3.980  17.709  0.00  0.00    +0.000 A 
ATOM     20  C   UNL     1      51.880   2.604  17.639  0.00  0.00    +0.000 A 
ATOM     21  C   UNL     1      50.827   1.790  17.229  0.00  0.00    +0.000 A 
ATOM     22  C   UNL     1      49.587   2.354  16.919  0.00  0.00    +0.000 A 
ENDBRANCH  14  17
ENDBRANCH   5  14
TORSDOF 3
ENDMDL
MODEL 6
REMARK VINA RESULT:    -6.347      3.769      6.197
REMARK INTER + INTRA:          -7.013
REMARK INTER:                  -7.044
REMARK INTRA:                   0.031
REMARK UNBOUND:                 0.447
REMARK  Name = 
REMARK  3 active torsions:
REMARK  status: ('A' for Active; 'I' for Inactive)
REMARK    1  A    between atoms: C_2  and  C_4
REMARK    2  A    between atoms: N_8  and  C_9
REMARK    3  A    between atoms: C_9  and  C_10
REMARK                            x       y       z     vdW  Elec       q    Type
REMARK                         _______ _______ _______ _____ _____    ______ ____
ROOT
ATOM      1  C   UNL     1      47.618   8.245  13.256  0.00  0.00    +0.000 A 
ATOM      2  C   UNL     1      47.790   7.165  14.086  0.00  0.00    +0.000 A 
ATOM      3  N   UNL     1      47.241   5.949  13.861  0.00  0.00    +0.000 NA
ATOM      4  C   UNL     1      46.473   5.815  12.764  0.00  0.00    +0.000 A 
ATOM      5  N   UNL     1      45.890   4.564  12.582  0.00  0.00    +0.000 N 
ATOM      6  N   UNL     1      46.241   6.819  11.903  0.00  0.00    +0.000 NA
ATOM      7  C   UNL     1      46.805   8.018  12.173  0.00  0.00    +0.000 A 
ATOM      8  H   UNL     1      46.060   3.992  13.396  0.00  0.00    +0.000 HD
ENDROOT
BRANCH   1  10
ATOM      9  N   UNL     1      47.586  10.652  12.921  0.00  0.00    +0.000 N 
ATOM     10  C   UNL     1      48.211   9.572  13.481  0.00  0.00    +0.000 C 
ATOM     11  O   UNL     1      49.207   9.708  14.179  0.00  0.00    +0.000 OA
ATOM     12  H   UNL     1      47.950  11.561  13.182  0.00  0.00    +0.000 HD
ATOM     13  H   UNL     1      46.643  10.625  12.556  0.00  0.00    +0.000 HD
ENDBRANCH   1  10
BRANCH   5  14
ATOM     14  C   UNL     1      44.688   4.355  11.766  0.00  0.00    +0.000 C 
ATOM     15  C   UNL     1      43.410   5.141  12.023  0.00  0.00    +0.000 C 
ATOM     16  C   UNL     1      43.478   3.709  12.443  0.00  0.00    +0.000 C 
BRANCH  14  17
ATOM     17  C   UNL     1      44.974   3.857  10.349  0.00  0.00    +0.000 A 
ATOM     18  C   UNL     1      45.353   4.749   9.327  0.00  0.00    +0.000 A 
ATOM     19  C   UNL     1      45.747   4.290   8.067  0.00  0.00    +0.000 A 
ATOM     20  C   UNL     1      45.757   2.927   7.796  0.00  0.00    +0.000 A 
ATOM     21  C   UNL     1      45.338   2.026   8.772  0.00  0.00    +0.000 A 
ATOM     22  C   UNL     1      44.938   2.490  10.027  0.00  0.00    +0.000 A 
ENDBRANCH  14  17
ENDBRANCH   5  14
TORSDOF 3
ENDMDL
MODEL 7
REMARK VINA RESULT:    -6.154      3.553      6.186
REMARK INTER + INTRA:          -6.786
REMARK INTER:                  -7.713
REMARK INTRA:                   0.927
REMARK UNBOUND:                 0.447
REMARK  Name = 
REMARK  3 active torsions:
REMARK  status: ('A' for Active; 'I' for Inactive)
REMARK    1  A    between atoms: C_2  and  C_4
REMARK    2  A    between atoms: N_8  and  C_9
REMARK    3  A    between atoms: C_9  and  C_10
REMARK                            x       y       z     vdW  Elec       q    Type
REMARK                         _______ _______ _______ _____ _____    ______ ____
ROOT
ATOM      1  C   UNL     1      48.095   6.626  13.919  0.00  0.00    +0.000 A 
ATOM      2  C   UNL     1      47.769   7.517  12.926  0.00  0.00    +0.000 A 
ATOM      3  N   UNL     1      46.723   7.353  12.083  0.00  0.00    +0.000 NA
ATOM      4  C   UNL     1      45.983   6.239  12.232  0.00  0.00    +0.000 A 
ATOM      5  N   UNL     1      44.939   6.079  11.325  0.00  0.00    +0.000 N 
ATOM      6  N   UNL     1      46.235   5.309  13.168  0.00  0.00    +0.000 NA
ATOM      7  C   UNL     1      47.295   5.513  13.982  0.00  0.00    +0.000 A 
ATOM      8  H   UNL     1      44.996   6.797  10.617  0.00  0.00    +0.000 HD
ENDROOT
BRANCH   1  10
ATOM      9  N   UNL     1      50.366   7.369  14.365  0.00  0.00    +0.000 N 
ATOM     10  C   UNL     1      49.224   6.790  14.847  0.00  0.00    +0.000 C 
ATOM     11  O   UNL     1      49.129   6.456  16.021  0.00  0.00    +0.000 OA
ATOM     12  H   UNL     1      51.085   7.570  15.050  0.00  0.00    +0.000 HD
ATOM     13  H   UNL     1      50.409   7.880  13.495  0.00  0.00    +0.000 HD
ENDBRANCH   1  10
BRANCH   5  14
ATOM     14  C   UNL     1      44.347   4.773  11.012  0.00  0.00    +0.000 C 
ATOM     15  C   UNL     1      42.875   4.488  11.272  0.00  0.00    +0.000 C 
ATOM     16  C   UNL     1      43.900   3.901  12.186  0.00  0.00    +0.000 C 
BRANCH  14  17
ATOM     17  C   UNL     1      45.055   4.021   9.885  0.00  0.00    +0.000 A 
ATOM     18  C   UNL     1      45.016   2.614   9.812  0.00  0.00    +0.000 A 
ATOM     19  C   UNL     1      45.543   1.925   8.716  0.00  0.00    +0.000 A 
ATOM     20  C   UNL     1      46.135   2.628   7.673  0.00  0.00    +0.000 A 
ATOM     21  C   UNL     1      46.233   4.015   7.743  0.00  0.00    +0.000 A 
ATOM     22  C   UNL     1      45.711   4.699   8.844  0.00  0.00    +0.000 A 
ENDBRANCH  14  17
ENDBRANCH   5  14
TORSDOF 3
ENDMDL
MODEL 8
REMARK VINA RESULT:    -5.825      5.176      7.669
REMARK INTER + INTRA:          -6.399
REMARK INTER:                  -6.287
REMARK INTRA:                  -0.113
REMARK UNBOUND:                 0.447
REMARK  Name = 
REMARK  3 active torsions:
REMARK  status: ('A' for Active; 'I' for Inactive)
REMARK    1  A    between atoms: C_2  and  C_4
REMARK    2  A    between atoms: N_8  and  C_9
REMARK    3  A    between atoms: C_9  and  C_10
REMARK                            x       y       z     vdW  Elec       q    Type
REMARK                         _______ _______ _______ _____ _____    ______ ____
ROOT
ATOM      1  C   UNL     1      48.029   4.620  16.707  0.00  0.00    +0.000 A 
ATOM      2  C   UNL     1      48.817   5.684  17.072  0.00  0.00    +0.000 A 
ATOM      3  N   UNL     1      49.065   6.745  16.270  0.00  0.00    +0.000 NA
ATOM      4  C   UNL     1      48.512   6.731  15.043  0.00  0.00    +0.000 A 
ATOM      5  N   UNL     1      48.818   7.817  14.227  0.00  0.00    +0.000 N 
ATOM      6  N   UNL     1      47.736   5.729  14.599  0.00  0.00    +0.000 NA
ATOM      7  C   UNL     1      47.523   4.686  15.432  0.00  0.00    +0.000 A 
ATOM      8  H   UNL     1      49.520   8.387  14.676  0.00  0.00    +0.000 HD
ENDROOT
BRANCH   1  10
ATOM      9  N   UNL     1      48.688   3.105  18.489  0.00  0.00    +0.000 N 
ATOM     10  C   UNL     1      47.744   3.461  17.566  0.00  0.00    +0.000 C 
ATOM     11  O   UNL     1      46.680   2.862  17.484  0.00  0.00    +0.000 OA
ATOM     12  H   UNL     1      48.421   2.376  19.140  0.00  0.00    +0.000 HD
ATOM     13  H   UNL     1      49.455   3.704  18.764  0.00  0.00    +0.000 HD
ENDBRANCH   1  10
BRANCH   5  14
ATOM     14  C   UNL     1      48.728   7.766  12.763  0.00  0.00    +0.000 C 
ATOM     15  C   UNL     1      49.842   7.160  11.922  0.00  0.00    +0.000 C 
ATOM     16  C   UNL     1      49.692   8.645  11.966  0.00  0.00    +0.000 C 
BRANCH  14  17
ATOM     17  C   UNL     1      47.297   7.730  12.227  0.00  0.00    +0.000 A 
ATOM     18  C   UNL     1      46.819   6.620  11.503  0.00  0.00    +0.000 A 
ATOM     19  C   UNL     1      45.477   6.517  11.126  0.00  0.00    +0.000 A 
ATOM     20  C   UNL     1      44.584   7.531  11.452  0.00  0.00    +0.000 A 
ATOM     21  C   UNL     1      45.040   8.663  12.123  0.00  0.00    +0.000 A 
ATOM     22  C   UNL     1      46.384   8.764  12.491  0.00  0.00    +0.000 A 
ENDBRANCH  14  17
ENDBRANCH   5  14
TORSDOF 3
ENDMDL
MODEL 9
REMARK VINA RESULT:    -5.738      5.050      7.448
REMARK INTER + INTRA:          -6.297
REMARK INTER:                  -6.153
REMARK INTRA:                  -0.144
REMARK UNBOUND:                 0.447
REMARK  Name = 
REMARK  3 active torsions:
REMARK  status: ('A' for Active; 'I' for Inactive)
REMARK    1  A    between atoms: C_2  and  C_4
REMARK    2  A    between atoms: N_8  and  C_9
REMARK    3  A    between atoms: C_9  and  C_10
REMARK                            x       y       z     vdW  Elec       q    Type
REMARK                         _______ _______ _______ _____ _____    ______ ____
ROOT
ATOM      1  C   UNL     1      46.611   6.189  13.100  0.00  0.00    +0.000 A 
ATOM      2  C   UNL     1      47.433   7.239  13.430  0.00  0.00    +0.000 A 
ATOM      3  N   UNL     1      48.275   7.231  14.488  0.00  0.00    +0.000 NA
ATOM      4  C   UNL     1      48.283   6.128  15.259  0.00  0.00    +0.000 A 
ATOM      5  N   UNL     1      49.130   6.165  16.363  0.00  0.00    +0.000 N 
ATOM      6  N   UNL     1      47.507   5.058  15.018  0.00  0.00    +0.000 NA
ATOM      7  C   UNL     1      46.676   5.115  13.953  0.00  0.00    +0.000 A 
ATOM      8  H   UNL     1      49.517   7.093  16.458  0.00  0.00    +0.000 HD
ENDROOT
BRANCH   1  10
ATOM      9  N   UNL     1      44.491   6.813  12.090  0.00  0.00    +0.000 N 
ATOM     10  C   UNL     1      45.694   6.178  11.951  0.00  0.00    +0.000 C 
ATOM     11  O   UNL     1      46.014   5.651  10.893  0.00  0.00    +0.000 OA
ATOM     12  H   UNL     1      43.927   6.886  11.252  0.00  0.00    +0.000 HD
ATOM     13  H   UNL     1      44.286   7.464  12.836  0.00  0.00    +0.000 HD
ENDBRANCH   1  10
BRANCH   5  14
ATOM     14  C   UNL     1      48.939   5.316  17.544  0.00  0.00    +0.000 C 
ATOM     15  C   UNL     1      47.595   5.237  18.255  0.00  0.00    +0.000 C 
ATOM     16  C   UNL     1      48.704   6.013  18.885  0.00  0.00    +0.000 C 
BRANCH  14  17
ATOM     17  C   UNL     1      49.875   4.109  17.603  0.00  0.00    +0.000 A 
ATOM     18  C   UNL     1      49.424   2.820  17.258  0.00  0.00    +0.000 A 
ATOM     19  C   UNL     1      50.302   1.736  17.177  0.00  0.00    +0.000 A 
ATOM     20  C   UNL     1      51.652   1.913  17.456  0.00  0.00    +0.000 A 
ATOM     21  C   UNL     1      52.117   3.166  17.849  0.00  0.00    +0.000 A 
ATOM     22  C   UNL     1      51.234   4.244  17.935  0.00  0.00    +0.000 A 
ENDBRANCH  14  17
ENDBRANCH   5  14
TORSDOF 3
ENDMDL
