MODEL 1
REMARK VINA RESULT:    -8.360      0.000      0.000
REMARK INTER + INTRA:         -12.625
REMARK INTER:                 -11.782
REMARK INTRA:                  -0.844
REMARK UNBOUND:                -0.844
REMARK  Name = 
REMARK  8 active torsions:
REMARK  status: ('A' for Active; 'I' for Inactive)
REMARK    1  A    between atoms: C_1  and  C_2
REMARK    2  A    between atoms: C_2  and  N_3
REMARK    3  A    between atoms: C_2  and  C_16
REMARK    4  A    between atoms: C_4  and  C_6
REMARK    5  A    between atoms: C_19  and  O_20
REMARK    6  A    between atoms: O_20  and  C_21
REMARK    7  A    between atoms: C_21  and  C_22
REMARK    8  A    between atoms: C_26  and  C_27
REMARK                            x       y       z     vdW  Elec       q    Type
REMARK                         _______ _______ _______ _____ _____    ______ ____
ROOT
ATOM      1  C   UNL     1      46.136   6.357  12.922  0.00  0.00    +0.000 A 
ATOM      2  C   UNL     1      44.918   6.796  12.376  0.00  0.00    +0.000 A 
ATOM      3  C   UNL     1      43.973   5.875  11.915  0.00  0.00    +0.000 A 
ATOM      4  C   UNL     1      44.234   4.508  11.994  0.00  0.00    +0.000 A 
ATOM      5  C   UNL     1      45.392   4.065  12.631  0.00  0.00    +0.000 A 
ATOM      6  C   UNL     1      46.334   4.981  13.087  0.00  0.00    +0.000 A 
ENDROOT
BRANCH   1   8
ATOM      7  C   UNL     1      47.947   8.006  12.206  0.00  0.00    +0.000 C 
ATOM      8  C   UNL     1      47.175   7.368  13.370  0.00  0.00    +0.000 C 
BRANCH   8   9
ATOM      9  N   UNL     1      48.088   6.721  14.287  0.00  0.00    +0.000 N 
ATOM     10  C   UNL     1      48.645   7.379  15.350  0.00  0.00    +0.000 C 
ATOM     11  O   UNL     1      48.318   8.521  15.664  0.00  0.00    +0.000 OA
ATOM     12  H   UNL     1      48.494   5.847  13.974  0.00  0.00    +0.000 HD
BRANCH  10  13
ATOM     13  C   UNL     1      49.621   6.620  16.132  0.00  0.00    +0.000 A 
ATOM     14  C   UNL     1      50.898   7.127  16.321  0.00  0.00    +0.000 A 
ATOM     15  S   UNL     1      51.901   6.114  17.256  0.00  0.00    +0.000 S 
ATOM     16  C   UNL     1      50.677   4.941  17.399  0.00  0.00    +0.000 A 
ATOM     17  N   UNL     1      50.902   3.773  18.059  0.00  0.00    +0.000 NA
ATOM     18  C   UNL     1      49.900   2.958  18.057  0.00  0.00    +0.000 A 
ATOM     19  N   UNL     1      48.689   3.210  17.467  0.00  0.00    +0.000 N 
ATOM     20  C   UNL     1      48.398   4.398  16.836  0.00  0.00    +0.000 A 
ATOM     21  O   UNL     1      47.274   4.630  16.400  0.00  0.00    +0.000 OA
ATOM     22  C   UNL     1      49.506   5.332  16.774  0.00  0.00    +0.000 A 
ATOM     23  H   UNL     1      47.937   2.538  17.523  0.00  0.00    +0.000 HD
ENDBRANCH  10  13
ENDBRANCH   8   9
ENDBRANCH   1   8
BRANCH   4  24
ATOM     24  O   UNL     1      43.312   3.679  11.412  0.00  0.00    +0.000 OA
BRANCH  24  25
ATOM     25  C   UNL     1      43.881   2.490  10.850  0.00  0.00    +0.000 C 
BRANCH  25  26
ATOM     26  C   UNL     1      44.638   2.810   9.585  0.00  0.00    +0.000 A 
ATOM     27  C   UNL     1      44.622   4.101   9.068  0.00  0.00    +0.000 A 
ATOM     28  C   UNL     1      45.386   4.381   7.943  0.00  0.00    +0.000 A 
ATOM     29  C   UNL     1      46.148   3.368   7.369  0.00  0.00    +0.000 A 
ATOM     30  C   UNL     1      46.128   2.093   7.935  0.00  0.00    +0.000 A 
ATOM     31  N   UNL     1      45.383   1.816   9.043  0.00  0.00    +0.000 NA
BRANCH  30  32
ATOM     32  C   UNL     1      46.960   0.975   7.323  0.00  0.00    +0.000 C 
ATOM     33  F   UNL     1      46.766   0.831   5.978  0.00  0.00    +0.000 F 
ATOM     34  F   UNL     1      48.303   1.163   7.476  0.00  0.00    +0.000 F 
ATOM     35  F   UNL     1      46.689  -0.250   7.860  0.00  0.00    +0.000 F 
ENDBRANCH  30  32
ENDBRANCH  25  26
ENDBRANCH  24  25
ENDBRANCH   4  24
TORSDOF 7
ENDMDL
MODEL 2
REMARK VINA RESULT:    -8.026      1.532      2.070
REMARK INTER + INTRA:         -12.155
REMARK INTER:                 -10.553
REMARK INTRA:                  -1.602
REMARK UNBOUND:                -0.844
REMARK  Name = 
REMARK  8 active torsions:
REMARK  status: ('A' for Active; 'I' for Inactive)
REMARK    1  A    between atoms: C_1  and  C_2
REMARK    2  A    between atoms: C_2  and  N_3
REMARK    3  A    between atoms: C_2  and  C_16
REMARK    4  A    between atoms: C_4  and  C_6
REMARK    5  A    between atoms: C_19  and  O_20
REMARK    6  A    between atoms: O_20  and  C_21
REMARK    7  A    between atoms: C_21  and  C_22
REMARK    8  A    between atoms: C_26  and  C_27
REMARK                            x       y       z     vdW  Elec       q    Type
REMARK                         _______ _______ _______ _____ _____    ______ ____
ROOT
ATOM      1  C   UNL     1      47.598   7.202  12.674  0.00  0.00    +0.000 A 
ATOM      2  C   UNL     1      46.516   7.957  12.190  0.00  0.00    +0.000 A 
ATOM      3  C   UNL     1      45.256   7.374  12.034  0.00  0.00    +0.000 A 
ATOM      4  C   UNL     1      45.062   6.032  12.358  0.00  0.00    +0.000 A 
ATOM      5  C   UNL     1      46.103   5.308  12.937  0.00  0.00    +0.000 A 
ATOM      6  C   UNL     1      47.358   5.887  13.091  0.00  0.00    +0.000 A 
ENDROOT
BRANCH   1   8
ATOM      7  C   UNL     1      49.770   7.803  11.477  0.00  0.00    +0.000 C 
ATOM      8  C   UNL     1      48.974   7.833  12.789  0.00  0.00    +0.000 C 
BRANCH   8   9
ATOM      9  N   UNL     1      49.706   7.162  13.840  0.00  0.00    +0.000 N 
ATOM     10  C   UNL     1      50.299   7.844  14.868  0.00  0.00    +0.000 C 
ATOM     11  O   UNL     1      50.149   9.052  15.031  0.00  0.00    +0.000 OA
ATOM     12  H   UNL     1      49.979   6.203  13.656  0.00  0.00    +0.000 HD
BRANCH  10  13
ATOM     13  C   UNL     1      51.084   7.037  15.803  0.00  0.00    +0.000 A 
ATOM     14  C   UNL     1      52.454   7.232  15.900  0.00  0.00    +0.000 A 
ATOM     15  S   UNL     1      53.207   6.209  17.037  0.00  0.00    +0.000 S 
ATOM     16  C   UNL     1      51.735   5.438  17.402  0.00  0.00    +0.000 A 
ATOM     17  N   UNL     1      51.686   4.409  18.290  0.00  0.00    +0.000 NA
ATOM     18  C   UNL     1      50.512   3.892  18.443  0.00  0.00    +0.000 A 
ATOM     19  N   UNL     1      49.381   4.317  17.797  0.00  0.00    +0.000 N 
ATOM     20  C   UNL     1      49.372   5.387  16.933  0.00  0.00    +0.000 A 
ATOM     21  O   UNL     1      48.325   5.803  16.443  0.00  0.00    +0.000 OA
ATOM     22  C   UNL     1      50.675   5.977  16.695  0.00  0.00    +0.000 A 
ATOM     23  H   UNL     1      48.488   3.883  17.981  0.00  0.00    +0.000 HD
ENDBRANCH  10  13
ENDBRANCH   8   9
ENDBRANCH   1   8
BRANCH   4  24
ATOM     24  O   UNL     1      43.833   5.507  12.063  0.00  0.00    +0.000 OA
BRANCH  24  25
ATOM     25  C   UNL     1      43.562   5.428  10.658  0.00  0.00    +0.000 C 
BRANCH  25  26
ATOM     26  C   UNL     1      44.192   4.194  10.064  0.00  0.00    +0.000 A 
ATOM     27  C   UNL     1      43.791   2.931  10.487  0.00  0.00    +0.000 A 
ATOM     28  C   UNL     1      44.339   1.813   9.871  0.00  0.00    +0.000 A 
ATOM     29  C   UNL     1      45.266   1.986   8.849  0.00  0.00    +0.000 A 
ATOM     30  C   UNL     1      45.627   3.278   8.463  0.00  0.00    +0.000 A 
ATOM     31  N   UNL     1      45.087   4.378   9.062  0.00  0.00    +0.000 NA
BRANCH  30  32
ATOM     32  C   UNL     1      46.635   3.485   7.342  0.00  0.00    +0.000 C 
ATOM     33  F   UNL     1      47.231   4.716   7.372  0.00  0.00    +0.000 F 
ATOM     34  F   UNL     1      47.662   2.587   7.373  0.00  0.00    +0.000 F 
ATOM     35  F   UNL     1      46.083   3.382   6.099  0.00  0.00    +0.000 F 
ENDBRANCH  30  32
ENDBRANCH  25  26
ENDBRANCH  24  25
ENDBRANCH   4  24
TORSDOF 7
ENDMDL
MODEL 3
REMARK VINA RESULT:    -7.782      1.933      2.913
REMARK INTER + INTRA:         -11.810
REMARK INTER:                 -10.351
REMARK INTRA:                  -1.459
REMARK UNBOUND:                -0.844
REMARK  Name = 
REMARK  8 active torsions:
REMARK  status: ('A' for Active; 'I' for Inactive)
REMARK    1  A    between atoms: C_1  and  C_2
REMARK    2  A    between atoms: C_2  and  N_3
REMARK    3  A    between atoms: C_2  and  C_16
REMARK    4  A    between atoms: C_4  and  C_6
REMARK    5  A    between atoms: C_19  and  O_20
REMARK    6  A    between atoms: O_20  and  C_21
REMARK    7  A    between atoms: C_21  and  C_22
REMARK    8  A    between atoms: C_26  and  C_27
REMARK                            x       y       z     vdW  Elec       q    Type
REMARK                         _______ _______ _______ _____ _____    ______ ____
ROOT
ATOM      1  C   UNL     1      47.967   8.073  13.246  0.00  0.00    +0.000 A 
ATOM      2  C   UNL     1      47.985   7.185  12.157  0.00  0.00    +0.000 A 
ATOM      3  C   UNL     1      46.836   6.979  11.389  0.00  0.00    +0.000 A 
ATOM      4  C   UNL     1      45.657   7.655  11.700  0.00  0.00    +0.000 A 
ATOM      5  C   UNL     1      45.662   8.614  12.711  0.00  0.00    +0.000 A 
ATOM      6  C   UNL     1      46.804   8.818  13.477  0.00  0.00    +0.000 A 
ENDROOT
BRANCH   1   8
ATOM      7  C   UNL     1      50.516   8.148  13.312  0.00  0.00    +0.000 C 
ATOM      8  C   UNL     1      49.206   8.247  14.105  0.00  0.00    +0.000 C 
BRANCH   8   9
ATOM      9  N   UNL     1      49.179   7.263  15.164  0.00  0.00    +0.000 N 
ATOM     10  C   UNL     1      48.866   7.588  16.456  0.00  0.00    +0.000 C 
ATOM     11  O   UNL     1      48.473   8.706  16.779  0.00  0.00    +0.000 OA
ATOM     12  H   UNL     1      49.643   6.383  14.971  0.00  0.00    +0.000 HD
BRANCH  10  13
ATOM     13  C   UNL     1      48.974   6.503  17.433  0.00  0.00    +0.000 A 
ATOM     14  C   UNL     1      49.705   6.694  18.596  0.00  0.00    +0.000 A 
ATOM     15  S   UNL     1      49.724   5.330  19.619  0.00  0.00    +0.000 S 
ATOM     16  C   UNL     1      48.795   4.423  18.518  0.00  0.00    +0.000 A 
ATOM     17  N   UNL     1      48.484   3.123  18.771  0.00  0.00    +0.000 NA
ATOM     18  C   UNL     1      47.808   2.545  17.834  0.00  0.00    +0.000 A 
ATOM     19  N   UNL     1      47.405   3.152  16.672  0.00  0.00    +0.000 N 
ATOM     20  C   UNL     1      47.651   4.477  16.398  0.00  0.00    +0.000 A 
ATOM     21  O   UNL     1      47.196   5.015  15.392  0.00  0.00    +0.000 OA
ATOM     22  C   UNL     1      48.443   5.161  17.402  0.00  0.00    +0.000 A 
ATOM     23  H   UNL     1      46.858   2.648  15.990  0.00  0.00    +0.000 HD
ENDBRANCH  10  13
ENDBRANCH   8   9
ENDBRANCH   1   8
BRANCH   4  24
ATOM     24  O   UNL     1      44.548   7.307  10.976  0.00  0.00    +0.000 OA
BRANCH  24  25
ATOM     25  C   UNL     1      43.666   6.414  11.667  0.00  0.00    +0.000 C 
BRANCH  25  26
ATOM     26  C   UNL     1      43.881   4.994  11.207  0.00  0.00    +0.000 A 
ATOM     27  C   UNL     1      43.308   3.938  11.908  0.00  0.00    +0.000 A 
ATOM     28  C   UNL     1      43.465   2.647  11.418  0.00  0.00    +0.000 A 
ATOM     29  C   UNL     1      44.183   2.447  10.244  0.00  0.00    +0.000 A 
ATOM     30  C   UNL     1      44.730   3.547   9.582  0.00  0.00    +0.000 A 
ATOM     31  N   UNL     1      44.574   4.816  10.056  0.00  0.00    +0.000 NA
BRANCH  30  32
ATOM     32  C   UNL     1      45.514   3.347   8.292  0.00  0.00    +0.000 C 
ATOM     33  F   UNL     1      46.413   4.348   8.045  0.00  0.00    +0.000 F 
ATOM     34  F   UNL     1      46.246   2.196   8.284  0.00  0.00    +0.000 F 
ATOM     35  F   UNL     1      44.719   3.295   7.184  0.00  0.00    +0.000 F 
ENDBRANCH  30  32
ENDBRANCH  25  26
ENDBRANCH  24  25
ENDBRANCH   4  24
TORSDOF 7
ENDMDL
MODEL 4
REMARK VINA RESULT:    -7.661      2.303      2.699
REMARK INTER + INTRA:         -11.639
REMARK INTER:                 -10.346
REMARK INTRA:                  -1.294
REMARK UNBOUND:                -0.844
REMARK  Name = 
REMARK  8 active torsions:
REMARK  status: ('A' for Active; 'I' for Inactive)
REMARK    1  A    between atoms: C_1  and  C_2
REMARK    2  A    between atoms: C_2  and  N_3
REMARK    3  A    between atoms: C_2  and  C_16
REMARK    4  A    between atoms: C_4  and  C_6
REMARK    5  A    between atoms: C_19  and  O_20
REMARK    6  A    between atoms: O_20  and  C_21
REMARK    7  A    between atoms: C_21  and  C_22
REMARK    8  A    between atoms: C_26  and  C_27
REMARK                            x       y       z     vdW  Elec       q    Type
REMARK                         _______ _______ _______ _____ _____    ______ ____
ROOT
ATOM      1  C   UNL     1      47.503   7.356  13.695  0.00  0.00    +0.000 A 
ATOM      2  C   UNL     1      46.683   8.225  12.955  0.00  0.00    +0.000 A 
ATOM      3  C   UNL     1      45.714   7.719  12.084  0.00  0.00    +0.000 A 
ATOM      4  C   UNL     1      45.552   6.342  11.942  0.00  0.00    +0.000 A 
ATOM      5  C   UNL     1      46.288   5.477  12.751  0.00  0.00    +0.000 A 
ATOM      6  C   UNL     1      47.255   5.980  13.615  0.00  0.00    +0.000 A 
ENDROOT
BRANCH   1   8
ATOM      7  C   UNL     1      49.995   7.424  14.236  0.00  0.00    +0.000 C 
ATOM      8  C   UNL     1      48.587   7.917  14.595  0.00  0.00    +0.000 C 
BRANCH   8   9
ATOM      9  N   UNL     1      48.269   7.585  15.967  0.00  0.00    +0.000 N 
ATOM     10  C   UNL     1      48.688   8.352  17.020  0.00  0.00    +0.000 C 
ATOM     11  O   UNL     1      49.255   9.429  16.868  0.00  0.00    +0.000 OA
ATOM     12  H   UNL     1      47.946   6.639  16.137  0.00  0.00    +0.000 HD
BRANCH  10  13
ATOM     13  C   UNL     1      48.369   7.836  18.353  0.00  0.00    +0.000 A 
ATOM     14  C   UNL     1      47.762   8.664  19.285  0.00  0.00    +0.000 A 
ATOM     15  S   UNL     1      47.462   7.901  20.780  0.00  0.00    +0.000 S 
ATOM     16  C   UNL     1      48.179   6.453  20.247  0.00  0.00    +0.000 A 
ATOM     17  N   UNL     1      48.291   5.381  21.077  0.00  0.00    +0.000 NA
ATOM     18  C   UNL     1      48.889   4.363  20.555  0.00  0.00    +0.000 A 
ATOM     19  N   UNL     1      49.375   4.313  19.275  0.00  0.00    +0.000 N 
ATOM     20  C   UNL     1      49.237   5.351  18.383  0.00  0.00    +0.000 A 
ATOM     21  O   UNL     1      49.599   5.241  17.215  0.00  0.00    +0.000 OA
ATOM     22  C   UNL     1      48.607   6.536  18.934  0.00  0.00    +0.000 A 
ATOM     23  H   UNL     1      49.812   3.475  18.921  0.00  0.00    +0.000 HD
ENDBRANCH  10  13
ENDBRANCH   8   9
ENDBRANCH   1   8
BRANCH   4  24
ATOM     24  O   UNL     1      44.667   5.929  10.983  0.00  0.00    +0.000 OA
BRANCH  24  25
ATOM     25  C   UNL     1      45.244   5.816   9.677  0.00  0.00    +0.000 C 
BRANCH  25  26
ATOM     26  C   UNL     1      45.333   4.370   9.259  0.00  0.00    +0.000 A 
ATOM     27  C   UNL     1      44.564   3.407   9.905  0.00  0.00    +0.000 A 
ATOM     28  C   UNL     1      44.614   2.096   9.450  0.00  0.00    +0.000 A 
ATOM     29  C   UNL     1      45.424   1.782   8.364  0.00  0.00    +0.000 A 
ATOM     30  C   UNL     1      46.169   2.792   7.753  0.00  0.00    +0.000 A 
ATOM     31  N   UNL     1      46.118   4.082   8.192  0.00  0.00    +0.000 NA
BRANCH  30  32
ATOM     32  C   UNL     1      47.056   2.468   6.558  0.00  0.00    +0.000 C 
ATOM     33  F   UNL     1      46.679   3.114   5.414  0.00  0.00    +0.000 F 
ATOM     34  F   UNL     1      48.362   2.814   6.753  0.00  0.00    +0.000 F 
ATOM     35  F   UNL     1      47.062   1.142   6.239  0.00  0.00    +0.000 F 
ENDBRANCH  30  32
ENDBRANCH  25  26
ENDBRANCH  24  25
ENDBRANCH   4  24
TORSDOF 7
ENDMDL
MODEL 5
REMARK VINA RESULT:    -7.655      2.204      3.498
REMARK INTER + INTRA:         -11.631
REMARK INTER:                 -10.229
REMARK INTRA:                  -1.401
REMARK UNBOUND:                -0.844
REMARK  Name = 
REMARK  8 active torsions:
REMARK  status: ('A' for Active; 'I' for Inactive)
REMARK    1  A    between atoms: C_1  and  C_2
REMARK    2  A    between atoms: C_2  and  N_3
REMARK    3  A    between atoms: C_2  and  C_16
REMARK    4  A    between atoms: C_4  and  C_6
REMARK    5  A    between atoms: C_19  and  O_20
REMARK    6  A    between atoms: O_20  and  C_21
REMARK    7  A    between atoms: C_21  and  C_22
REMARK    8  A    between atoms: C_26  and  C_27
REMARK                            x       y       z     vdW  Elec       q    Type
REMARK                         _______ _______ _______ _____ _____    ______ ____
ROOT
ATOM      1  C   UNL     1      48.453   7.513  15.117  0.00  0.00    +0.000 A 
ATOM      2  C   UNL     1      47.878   8.545  14.356  0.00  0.00    +0.000 A 
ATOM      3  C   UNL     1      47.253   8.267  13.138  0.00  0.00    +0.000 A 
ATOM      4  C   UNL     1      47.194   6.957  12.666  0.00  0.00    +0.000 A 
ATOM      5  C   UNL     1      47.667   5.917  13.465  0.00  0.00    +0.000 A 
ATOM      6  C   UNL     1      48.292   6.194  14.676  0.00  0.00    +0.000 A 
ENDROOT
BRANCH   1   8
ATOM      7  C   UNL     1      49.973   9.145  16.356  0.00  0.00    +0.000 C 
ATOM      8  C   UNL     1      49.176   7.835  16.411  0.00  0.00    +0.000 C 
BRANCH   8   9
ATOM      9  N   UNL     1      50.045   6.728  16.746  0.00  0.00    +0.000 N 
ATOM     10  C   UNL     1      50.209   6.290  18.032  0.00  0.00    +0.000 C 
ATOM     11  O   UNL     1      49.545   6.727  18.968  0.00  0.00    +0.000 OA
ATOM     12  H   UNL     1      50.715   6.453  16.037  0.00  0.00    +0.000 HD
BRANCH  10  13
ATOM     13  C   UNL     1      51.193   5.223  18.224  0.00  0.00    +0.000 A 
ATOM     14  C   UNL     1      52.417   5.511  18.810  0.00  0.00    +0.000 A 
ATOM     15  S   UNL     1      53.437   4.154  18.957  0.00  0.00    +0.000 S 
ATOM     16  C   UNL     1      52.296   3.145  18.197  0.00  0.00    +0.000 A 
ATOM     17  N   UNL     1      52.569   1.833  17.964  0.00  0.00    +0.000 NA
ATOM     18  C   UNL     1      51.631   1.196  17.346  0.00  0.00    +0.000 A 
ATOM     19  N   UNL     1      50.440   1.747  16.951  0.00  0.00    +0.000 N 
ATOM     20  C   UNL     1      50.098   3.053  17.213  0.00  0.00    +0.000 A 
ATOM     21  O   UNL     1      48.987   3.492  16.930  0.00  0.00    +0.000 OA
ATOM     22  C   UNL     1      51.136   3.825  17.869  0.00  0.00    +0.000 A 
ATOM     23  H   UNL     1      49.738   1.185  16.492  0.00  0.00    +0.000 HD
ENDBRANCH  10  13
ENDBRANCH   8   9
ENDBRANCH   1   8
BRANCH   4  24
ATOM     24  O   UNL     1      46.672   6.786  11.412  0.00  0.00    +0.000 OA
BRANCH  24  25
ATOM     25  C   UNL     1      45.240   6.775  11.380  0.00  0.00    +0.000 C 
BRANCH  25  26
ATOM     26  C   UNL     1      44.719   5.360  11.392  0.00  0.00    +0.000 A 
ATOM     27  C   UNL     1      43.912   4.920  12.436  0.00  0.00    +0.000 A 
ATOM     28  C   UNL     1      43.390   3.635  12.383  0.00  0.00    +0.000 A 
ATOM     29  C   UNL     1      43.683   2.826  11.289  0.00  0.00    +0.000 A 
ATOM     30  C   UNL     1      44.494   3.324  10.269  0.00  0.00    +0.000 A 
ATOM     31  N   UNL     1      45.004   4.588  10.315  0.00  0.00    +0.000 NA
BRANCH  30  32
ATOM     32  C   UNL     1      44.819   2.455   9.061  0.00  0.00    +0.000 C 
ATOM     33  F   UNL     1      46.161   2.258   8.883  0.00  0.00    +0.000 F 
ATOM     34  F   UNL     1      44.279   1.205   9.141  0.00  0.00    +0.000 F 
ATOM     35  F   UNL     1      44.373   2.983   7.885  0.00  0.00    +0.000 F 
ENDBRANCH  30  32
ENDBRANCH  25  26
ENDBRANCH  24  25
ENDBRANCH   4  24
TORSDOF 7
ENDMDL
MODEL 6
REMARK VINA RESULT:    -7.362      3.791      8.540
REMARK INTER + INTRA:         -11.219
REMARK INTER:                 -10.725
REMARK INTRA:                  -0.494
REMARK UNBOUND:                -0.844
REMARK  Name = 
REMARK  8 active torsions:
REMARK  status: ('A' for Active; 'I' for Inactive)
REMARK    1  A    between atoms: C_1  and  C_2
REMARK    2  A    between atoms: C_2  and  N_3
REMARK    3  A    between atoms: C_2  and  C_16
REMARK    4  A    between atoms: C_4  and  C_6
REMARK    5  A    between atoms: C_19  and  O_20
REMARK    6  A    between atoms: O_20  and  C_21
REMARK    7  A    between atoms: C_21  and  C_22
REMARK    8  A    between atoms: C_26  and  C_27
REMARK                            x       y       z     vdW  Elec       q    Type
REMARK                         _______ _______ _______ _____ _____    ______ ____
ROOT
ATOM      1  C   UNL     1      47.657   8.110  13.242  0.00  0.00    +0.000 A 
ATOM      2  C   UNL     1      48.830   7.373  13.004  0.00  0.00    +0.000 A 
ATOM      3  C   UNL     1      49.839   7.312  13.968  0.00  0.00    +0.000 A 
ATOM      4  C   UNL     1      49.690   7.984  15.180  0.00  0.00    +0.000 A 
ATOM      5  C   UNL     1      48.487   8.628  15.465  0.00  0.00    +0.000 A 
ATOM      6  C   UNL     1      47.483   8.691  14.504  0.00  0.00    +0.000 A 
ENDROOT
BRANCH   1   8
ATOM      7  C   UNL     1      45.413   9.112  12.559  0.00  0.00    +0.000 C 
ATOM      8  C   UNL     1      46.592   8.212  12.167  0.00  0.00    +0.000 C 
BRANCH   8   9
ATOM      9  N   UNL     1      46.128   6.881  11.844  0.00  0.00    +0.000 N 
ATOM     10  C   UNL     1      44.880   6.646  11.333  0.00  0.00    +0.000 C 
ATOM     11  O   UNL     1      44.121   7.553  11.003  0.00  0.00    +0.000 OA
ATOM     12  H   UNL     1      46.655   6.113  12.243  0.00  0.00    +0.000 HD
BRANCH  10  13
ATOM     13  C   UNL     1      44.520   5.239  11.147  0.00  0.00    +0.000 A 
ATOM     14  C   UNL     1      43.741   4.596  12.097  0.00  0.00    +0.000 A 
ATOM     15  S   UNL     1      43.416   2.966  11.721  0.00  0.00    +0.000 S 
ATOM     16  C   UNL     1      44.347   3.052  10.298  0.00  0.00    +0.000 A 
ATOM     17  N   UNL     1      44.522   1.956   9.510  0.00  0.00    +0.000 NA
ATOM     18  C   UNL     1      45.282   2.154   8.485  0.00  0.00    +0.000 A 
ATOM     19  N   UNL     1      45.873   3.350   8.169  0.00  0.00    +0.000 N 
ATOM     20  C   UNL     1      45.682   4.495   8.905  0.00  0.00    +0.000 A 
ATOM     21  O   UNL     1      46.149   5.572   8.544  0.00  0.00    +0.000 OA
ATOM     22  C   UNL     1      44.868   4.317  10.093  0.00  0.00    +0.000 A 
ATOM     23  H   UNL     1      46.438   3.442   7.337  0.00  0.00    +0.000 HD
ENDBRANCH  10  13
ENDBRANCH   8   9
ENDBRANCH   1   8
BRANCH   4  24
ATOM     24  O   UNL     1      50.772   7.973  16.018  0.00  0.00    +0.000 OA
BRANCH  24  25
ATOM     25  C   UNL     1      51.307   6.665  16.251  0.00  0.00    +0.000 C 
BRANCH  25  26
ATOM     26  C   UNL     1      50.406   5.878  17.169  0.00  0.00    +0.000 A 
ATOM     27  C   UNL     1      50.207   6.295  18.480  0.00  0.00    +0.000 A 
ATOM     28  C   UNL     1      49.315   5.590  19.279  0.00  0.00    +0.000 A 
ATOM     29  C   UNL     1      48.644   4.495  18.746  0.00  0.00    +0.000 A 
ATOM     30  C   UNL     1      48.880   4.126  17.421  0.00  0.00    +0.000 A 
ATOM     31  N   UNL     1      49.751   4.819  16.632  0.00  0.00    +0.000 NA
BRANCH  30  32
ATOM     32  C   UNL     1      48.150   2.933  16.819  0.00  0.00    +0.000 C 
ATOM     33  F   UNL     1      48.966   1.860  16.590  0.00  0.00    +0.000 F 
ATOM     34  F   UNL     1      47.150   2.461  17.618  0.00  0.00    +0.000 F 
ATOM     35  F   UNL     1      47.572   3.210  15.615  0.00  0.00    +0.000 F 
ENDBRANCH  30  32
ENDBRANCH  25  26
ENDBRANCH  24  25
ENDBRANCH   4  24
TORSDOF 7
ENDMDL
MODEL 7
REMARK VINA RESULT:    -7.331      4.320      8.318
REMARK INTER + INTRA:         -11.174
REMARK INTER:                 -10.281
REMARK INTRA:                  -0.894
REMARK UNBOUND:                -0.844
REMARK  Name = 
REMARK  8 active torsions:
REMARK  status: ('A' for Active; 'I' for Inactive)
REMARK    1  A    between atoms: C_1  and  C_2
REMARK    2  A    between atoms: C_2  and  N_3
REMARK    3  A    between atoms: C_2  and  C_16
REMARK    4  A    between atoms: C_4  and  C_6
REMARK    5  A    between atoms: C_19  and  O_20
REMARK    6  A    between atoms: O_20  and  C_21
REMARK    7  A    between atoms: C_21  and  C_22
REMARK    8  A    between atoms: C_26  and  C_27
REMARK                            x       y       z     vdW  Elec       q    Type
REMARK                         _______ _______ _______ _____ _____    ______ ____
ROOT
ATOM      1  C   UNL     1      49.225   8.083  14.241  0.00  0.00    +0.000 A 
ATOM      2  C   UNL     1      48.221   8.891  14.801  0.00  0.00    +0.000 A 
ATOM      3  C   UNL     1      48.185   9.129  16.178  0.00  0.00    +0.000 A 
ATOM      4  C   UNL     1      49.150   8.564  17.010  0.00  0.00    +0.000 A 
ATOM      5  C   UNL     1      50.208   7.851  16.450  0.00  0.00    +0.000 A 
ATOM      6  C   UNL     1      50.243   7.611  15.080  0.00  0.00    +0.000 A 
ENDROOT
BRANCH   1   8
ATOM      7  C   UNL     1      49.732   8.956  11.898  0.00  0.00    +0.000 C 
ATOM      8  C   UNL     1      49.222   7.788  12.753  0.00  0.00    +0.000 C 
BRANCH   8   9
ATOM      9  N   UNL     1      47.881   7.418  12.356  0.00  0.00    +0.000 N 
ATOM     10  C   UNL     1      47.323   6.216  12.698  0.00  0.00    +0.000 C 
ATOM     11  O   UNL     1      47.873   5.426  13.459  0.00  0.00    +0.000 OA
ATOM     12  H   UNL     1      47.467   7.966  11.611  0.00  0.00    +0.000 HD
BRANCH  10  13
ATOM     13  C   UNL     1      45.996   5.947  12.143  0.00  0.00    +0.000 A 
ATOM     14  C   UNL     1      45.280   6.971  11.539  0.00  0.00    +0.000 A 
ATOM     15  S   UNL     1      43.758   6.480  10.949  0.00  0.00    +0.000 S 
ATOM     16  C   UNL     1      43.984   4.894  11.523  0.00  0.00    +0.000 A 
ATOM     17  N   UNL     1      43.012   3.953  11.380  0.00  0.00    +0.000 NA
ATOM     18  C   UNL     1      43.302   2.805  11.896  0.00  0.00    +0.000 A 
ATOM     19  N   UNL     1      44.480   2.508  12.531  0.00  0.00    +0.000 N 
ATOM     20  C   UNL     1      45.511   3.410  12.652  0.00  0.00    +0.000 A 
ATOM     21  O   UNL     1      46.589   3.085  13.143  0.00  0.00    +0.000 OA
ATOM     22  C   UNL     1      45.220   4.730  12.124  0.00  0.00    +0.000 A 
ATOM     23  H   UNL     1      44.652   1.581  12.891  0.00  0.00    +0.000 HD
ENDBRANCH  10  13
ENDBRANCH   8   9
ENDBRANCH   1   8
BRANCH   4  24
ATOM     24  O   UNL     1      48.975   8.747  18.355  0.00  0.00    +0.000 OA
BRANCH  24  25
ATOM     25  C   UNL     1      47.866   8.018  18.896  0.00  0.00    +0.000 C 
BRANCH  25  26
ATOM     26  C   UNL     1      48.216   6.561  19.058  0.00  0.00    +0.000 A 
ATOM     27  C   UNL     1      48.930   6.133  20.173  0.00  0.00    +0.000 A 
ATOM     28  C   UNL     1      49.175   4.775  20.329  0.00  0.00    +0.000 A 
ATOM     29  C   UNL     1      48.699   3.883  19.374  0.00  0.00    +0.000 A 
ATOM     30  C   UNL     1      47.985   4.371  18.279  0.00  0.00    +0.000 A 
ATOM     31  N   UNL     1      47.737   5.703  18.125  0.00  0.00    +0.000 NA
BRANCH  30  32
ATOM     32  C   UNL     1      47.451   3.408  17.227  0.00  0.00    +0.000 C 
ATOM     33  F   UNL     1      46.599   2.468  17.737  0.00  0.00    +0.000 F 
ATOM     34  F   UNL     1      46.749   4.033  16.238  0.00  0.00    +0.000 F 
ATOM     35  F   UNL     1      48.434   2.700  16.601  0.00  0.00    +0.000 F 
ENDBRANCH  30  32
ENDBRANCH  25  26
ENDBRANCH  24  25
ENDBRANCH   4  24
TORSDOF 7
ENDMDL
MODEL 8
REMARK VINA RESULT:    -7.243      2.766      4.436
REMARK INTER + INTRA:         -11.051
REMARK INTER:                  -9.819
REMARK INTRA:                  -1.232
REMARK UNBOUND:                -0.844
REMARK  Name = 
REMARK  8 active torsions:
REMARK  status: ('A' for Active; 'I' for Inactive)
REMARK    1  A    between atoms: C_1  and  C_2
REMARK    2  A    between atoms: C_2  and  N_3
REMARK    3  A    between atoms: C_2  and  C_16
REMARK    4  A    between atoms: C_4  and  C_6
REMARK    5  A    between atoms: C_19  and  O_20
REMARK    6  A    between atoms: O_20  and  C_21
REMARK    7  A    between atoms: C_21  and  C_22
REMARK    8  A    between atoms: C_26  and  C_27
REMARK                            x       y       z     vdW  Elec       q    Type
REMARK                         _______ _______ _______ _____ _____    ______ ____
ROOT
ATOM      1  C   UNL     1      48.636   6.242  15.875  0.00  0.00    +0.000 A 
ATOM      2  C   UNL     1      48.782   7.336  15.006  0.00  0.00    +0.000 A 
ATOM      3  C   UNL     1      48.207   7.315  13.732  0.00  0.00    +0.000 A 
ATOM      4  C   UNL     1      47.480   6.202  13.313  0.00  0.00    +0.000 A 
ATOM      5  C   UNL     1      47.242   5.160  14.207  0.00  0.00    +0.000 A 
ATOM      6  C   UNL     1      47.817   5.179  15.474  0.00  0.00    +0.000 A 
ENDROOT
BRANCH   1   8
ATOM      7  C   UNL     1      49.927   7.613  17.596  0.00  0.00    +0.000 C 
ATOM      8  C   UNL     1      49.311   6.255  17.233  0.00  0.00    +0.000 C 
BRANCH   8   9
ATOM      9  N   UNL     1      50.319   5.219  17.261  0.00  0.00    +0.000 N 
ATOM     10  C   UNL     1      50.120   4.021  17.894  0.00  0.00    +0.000 C 
ATOM     11  O   UNL     1      49.036   3.702  18.374  0.00  0.00    +0.000 OA
ATOM     12  H   UNL     1      51.262   5.502  17.019  0.00  0.00    +0.000 HD
BRANCH  10  13
ATOM     13  C   UNL     1      51.266   3.112  17.917  0.00  0.00    +0.000 A 
ATOM     14  C   UNL     1      51.162   1.856  17.338  0.00  0.00    +0.000 A 
ATOM     15  S   UNL     1      52.589   0.931  17.455  0.00  0.00    +0.000 S 
ATOM     16  C   UNL     1      53.379   2.160  18.327  0.00  0.00    +0.000 A 
ATOM     17  N   UNL     1      54.649   1.988  18.784  0.00  0.00    +0.000 NA
ATOM     18  C   UNL     1      55.111   2.985  19.463  0.00  0.00    +0.000 A 
ATOM     19  N   UNL     1      54.424   4.144  19.716  0.00  0.00    +0.000 N 
ATOM     20  C   UNL     1      53.160   4.384  19.230  0.00  0.00    +0.000 A 
ATOM     21  O   UNL     1      52.608   5.469  19.395  0.00  0.00    +0.000 OA
ATOM     22  C   UNL     1      52.579   3.277  18.495  0.00  0.00    +0.000 A 
ATOM     23  H   UNL     1      54.854   4.896  20.235  0.00  0.00    +0.000 HD
ENDBRANCH  10  13
ENDBRANCH   8   9
ENDBRANCH   1   8
BRANCH   4  24
ATOM     24  O   UNL     1      47.052   6.210  12.012  0.00  0.00    +0.000 OA
BRANCH  24  25
ATOM     25  C   UNL     1      45.638   6.391  11.872  0.00  0.00    +0.000 C 
BRANCH  25  26
ATOM     26  C   UNL     1      44.950   5.063  11.680  0.00  0.00    +0.000 A 
ATOM     27  C   UNL     1      44.021   4.615  12.614  0.00  0.00    +0.000 A 
ATOM     28  C   UNL     1      43.352   3.422  12.373  0.00  0.00    +0.000 A 
ATOM     29  C   UNL     1      43.623   2.713  11.207  0.00  0.00    +0.000 A 
ATOM     30  C   UNL     1      44.561   3.215  10.304  0.00  0.00    +0.000 A 
ATOM     31  N   UNL     1      45.216   4.389  10.534  0.00  0.00    +0.000 NA
BRANCH  30  32
ATOM     32  C   UNL     1      44.866   2.455   9.020  0.00  0.00    +0.000 C 
ATOM     33  F   UNL     1      44.302   1.211   8.982  0.00  0.00    +0.000 F 
ATOM     34  F   UNL     1      44.412   3.092   7.902  0.00  0.00    +0.000 F 
ATOM     35  F   UNL     1      46.200   2.252   8.822  0.00  0.00    +0.000 F 
ENDBRANCH  30  32
ENDBRANCH  25  26
ENDBRANCH  24  25
ENDBRANCH   4  24
TORSDOF 7
ENDMDL
MODEL 9
REMARK VINA RESULT:    -6.978      4.269      8.498
REMARK INTER + INTRA:         -10.677
REMARK INTER:                  -9.425
REMARK INTRA:                  -1.253
REMARK UNBOUND:                -0.844
REMARK  Name = 
REMARK  8 active torsions:
REMARK  status: ('A' for Active; 'I' for Inactive)
REMARK    1  A    between atoms: C_1  and  C_2
REMARK    2  A    between atoms: C_2  and  N_3
REMARK    3  A    between atoms: C_2  and  C_16
REMARK    4  A    between atoms: C_4  and  C_6
REMARK    5  A    between atoms: C_19  and  O_20
REMARK    6  A    between atoms: O_20  and  C_21
REMARK    7  A    between atoms: C_21  and  C_22
REMARK    8  A    between atoms: C_26  and  C_27
REMARK                            x       y       z     vdW  Elec       q    Type
REMARK                         _______ _______ _______ _____ _____    ______ ____
ROOT
ATOM      1  C   UNL     1      49.388   8.011  15.265  0.00  0.00    +0.000 A 
ATOM      2  C   UNL     1      50.623   7.345  15.185  0.00  0.00    +0.000 A 
ATOM      3  C   UNL     1      51.307   6.975  16.346  0.00  0.00    +0.000 A 
ATOM      4  C   UNL     1      50.768   7.266  17.598  0.00  0.00    +0.000 A 
ATOM      5  C   UNL     1      49.496   7.830  17.684  0.00  0.00    +0.000 A 
ATOM      6  C   UNL     1      48.816   8.201  16.529  0.00  0.00    +0.000 A 
ENDROOT
BRANCH   1   8
ATOM      7  C   UNL     1      48.234   9.923  14.031  0.00  0.00    +0.000 C 
ATOM      8  C   UNL     1      48.681   8.455  13.999  0.00  0.00    +0.000 C 
BRANCH   8   9
ATOM      9  N   UNL     1      47.547   7.586  13.771  0.00  0.00    +0.000 N 
ATOM     10  C   UNL     1      47.662   6.391  13.113  0.00  0.00    +0.000 C 
ATOM     11  O   UNL     1      48.747   5.923  12.779  0.00  0.00    +0.000 OA
ATOM     12  H   UNL     1      46.631   8.003  13.888  0.00  0.00    +0.000 HD
BRANCH  10  13
ATOM     13  C   UNL     1      46.411   5.668  12.876  0.00  0.00    +0.000 A 
ATOM     14  C   UNL     1      46.317   4.325  13.211  0.00  0.00    +0.000 A 
ATOM     15  S   UNL     1      44.792   3.644  12.869  0.00  0.00    +0.000 S 
ATOM     16  C   UNL     1      44.222   5.110  12.217  0.00  0.00    +0.000 A 
ATOM     17  N   UNL     1      42.971   5.201  11.691  0.00  0.00    +0.000 NA
ATOM     18  C   UNL     1      42.685   6.359  11.196  0.00  0.00    +0.000 A 
ATOM     19  N   UNL     1      43.530   7.438  11.192  0.00  0.00    +0.000 N 
ATOM     20  C   UNL     1      44.782   7.408  11.760  0.00  0.00    +0.000 A 
ATOM     21  O   UNL     1      45.478   8.418  11.823  0.00  0.00    +0.000 OA
ATOM     22  C   UNL     1      45.169   6.116  12.293  0.00  0.00    +0.000 A 
ATOM     23  H   UNL     1      43.233   8.324  10.810  0.00  0.00    +0.000 HD
ENDBRANCH  10  13
ENDBRANCH   8   9
ENDBRANCH   1   8
BRANCH   4  24
ATOM     24  O   UNL     1      51.556   6.979  18.681  0.00  0.00    +0.000 OA
BRANCH  24  25
ATOM     25  C   UNL     1      51.048   5.917  19.497  0.00  0.00    +0.000 C 
BRANCH  25  26
ATOM     26  C   UNL     1      50.725   4.709  18.655  0.00  0.00    +0.000 A 
ATOM     27  C   UNL     1      51.722   3.795  18.329  0.00  0.00    +0.000 A 
ATOM     28  C   UNL     1      51.378   2.656  17.613  0.00  0.00    +0.000 A 
ATOM     29  C   UNL     1      50.051   2.457  17.246  0.00  0.00    +0.000 A 
ATOM     30  C   UNL     1      49.093   3.406  17.606  0.00  0.00    +0.000 A 
ATOM     31  N   UNL     1      49.425   4.523  18.314  0.00  0.00    +0.000 NA
BRANCH  30  32
ATOM     32  C   UNL     1      47.635   3.202  17.218  0.00  0.00    +0.000 C 
ATOM     33  F   UNL     1      46.858   4.305  17.436  0.00  0.00    +0.000 F 
ATOM     34  F   UNL     1      47.470   2.899  15.898  0.00  0.00    +0.000 F 
ATOM     35  F   UNL     1      47.032   2.194  17.913  0.00  0.00    +0.000 F 
ENDBRANCH  30  32
ENDBRANCH  25  26
ENDBRANCH  24  25
ENDBRANCH   4  24
TORSDOF 7
ENDMDL
