MODEL 1
REMARK VINA RESULT:    -8.428      0.000      0.000
REMARK INTER + INTRA:         -12.789
REMARK INTER:                 -11.877
REMARK INTRA:                  -0.912
REMARK UNBOUND:                -0.912
REMARK  Name = 
REMARK  7 active torsions:
REMARK  status: ('A' for Active; 'I' for Inactive)
REMARK    1  A    between atoms: C_2  and  C_20
REMARK    2  A    between atoms: N_3  and  C_4
REMARK    3  A    between atoms: C_4  and  C_5
REMARK    4  A    between atoms: C_8  and  C_9
REMARK    5  A    between atoms: C_9  and  N_10
REMARK    6  A    between atoms: N_10  and  C_11
REMARK    7  A    between atoms: C_11  and  C_12
REMARK                            x       y       z     vdW  Elec       q    Type
REMARK                         _______ _______ _______ _____ _____    ______ ____
ROOT
ATOM      1  C   UNL     1      47.998   6.939  13.512  0.00  0.00    +0.000 C 
ENDROOT
BRANCH   1   2
ATOM      2  C   UNL     1      46.985   6.026  12.869  0.00  0.00    +0.000 A 
ATOM      3  C   UNL     1      46.615   4.835  13.509  0.00  0.00    +0.000 A 
ATOM      4  C   UNL     1      45.642   4.000  12.957  0.00  0.00    +0.000 A 
ATOM      5  C   UNL     1      45.010   4.335  11.750  0.00  0.00    +0.000 A 
ATOM      6  C   UNL     1      45.389   5.518  11.104  0.00  0.00    +0.000 A 
ATOM      7  C   UNL     1      46.382   6.345  11.645  0.00  0.00    +0.000 A 
BRANCH   5   8
ATOM      8  C   UNL     1      43.985   3.411  11.133  0.00  0.00    +0.000 C 
BRANCH   8   9
ATOM      9  N   UNL     1      44.607   2.444  10.228  0.00  0.00    +0.000 NA
ATOM     10  H   UNL     1      44.107   1.558  10.301  0.00  0.00    +0.000 HD
BRANCH   9  11
ATOM     11  C   UNL     1      44.569   2.904   8.841  0.00  0.00    +0.000 C 
BRANCH  11  12
ATOM     12  C   UNL     1      45.788   2.429   8.088  0.00  0.00    +0.000 A 
ATOM     13  C   UNL     1      46.565   3.322   7.351  0.00  0.00    +0.000 A 
ATOM     14  C   UNL     1      47.667   2.835   6.661  0.00  0.00    +0.000 A 
ATOM     15  N   UNL     1      48.043   1.537   6.660  0.00  0.00    +0.000 NA
ATOM     16  C   UNL     1      47.279   0.691   7.381  0.00  0.00    +0.000 A 
ATOM     17  C   UNL     1      46.166   1.079   8.110  0.00  0.00    +0.000 A 
ENDBRANCH  11  12
ENDBRANCH   9  11
ENDBRANCH   8   9
ENDBRANCH   5   8
ENDBRANCH   1   2
BRANCH   1  20
ATOM     18  O   UNL     1      50.182   6.705  15.304  0.00  0.00    +0.000 OA
ATOM     19  C   UNL     1      49.049   6.863  15.746  0.00  0.00    +0.000 C 
ATOM     20  N   UNL     1      47.933   6.922  14.950  0.00  0.00    +0.000 N 
ATOM     21  H   UNL     1      47.047   7.193  15.359  0.00  0.00    +0.000 HD
BRANCH  19  22
ATOM     22  C   UNL     1      48.790   6.931  17.186  0.00  0.00    +0.000 A 
ATOM     23  C   UNL     1      48.443   8.129  17.794  0.00  0.00    +0.000 A 
ATOM     24  S   UNL     1      48.243   7.993  19.486  0.00  0.00    +0.000 S 
ATOM     25  C   UNL     1      48.569   6.324  19.448  0.00  0.00    +0.000 A 
ATOM     26  N   UNL     1      48.560   5.577  20.585  0.00  0.00    +0.000 NA
ATOM     27  C   UNL     1      48.779   4.314  20.396  0.00  0.00    +0.000 A 
ATOM     28  N   UNL     1      49.001   3.736  19.177  0.00  0.00    +0.000 N 
ATOM     29  C   UNL     1      49.089   4.458  18.015  0.00  0.00    +0.000 A 
ATOM     30  O   UNL     1      49.416   3.918  16.964  0.00  0.00    +0.000 OA
ATOM     31  C   UNL     1      48.825   5.873  18.168  0.00  0.00    +0.000 A 
ATOM     32  H   UNL     1      49.192   2.745  19.097  0.00  0.00    +0.000 HD
ENDBRANCH  19  22
ENDBRANCH   1  20
TORSDOF 7
ENDMDL
MODEL 2
REMARK VINA RESULT:    -7.986      1.441      2.286
REMARK INTER + INTRA:         -12.167
REMARK INTER:                 -10.989
REMARK INTRA:                  -1.178
REMARK UNBOUND:                -0.912
REMARK  Name = 
REMARK  7 active torsions:
REMARK  status: ('A' for Active; 'I' for Inactive)
REMARK    1  A    between atoms: C_2  and  C_20
REMARK    2  A    between atoms: N_3  and  C_4
REMARK    3  A    between atoms: C_4  and  C_5
REMARK    4  A    between atoms: C_8  and  C_9
REMARK    5  A    between atoms: C_9  and  N_10
REMARK    6  A    between atoms: N_10  and  C_11
REMARK    7  A    between atoms: C_11  and  C_12
REMARK                            x       y       z     vdW  Elec       q    Type
REMARK                         _______ _______ _______ _____ _____    ______ ____
ROOT
ATOM      1  C   UNL     1      47.703   6.991  13.481  0.00  0.00    +0.000 C 
ENDROOT
BRANCH   1   2
ATOM      2  C   UNL     1      46.622   6.222  12.765  0.00  0.00    +0.000 A 
ATOM      3  C   UNL     1      45.816   5.325  13.479  0.00  0.00    +0.000 A 
ATOM      4  C   UNL     1      44.776   4.640  12.848  0.00  0.00    +0.000 A 
ATOM      5  C   UNL     1      44.512   4.837  11.485  0.00  0.00    +0.000 A 
ATOM      6  C   UNL     1      45.324   5.724  10.767  0.00  0.00    +0.000 A 
ATOM      7  C   UNL     1      46.383   6.393  11.395  0.00  0.00    +0.000 A 
BRANCH   5   8
ATOM      8  C   UNL     1      43.410   4.066  10.792  0.00  0.00    +0.000 C 
BRANCH   8   9
ATOM      9  N   UNL     1      43.804   3.659   9.444  0.00  0.00    +0.000 NA
ATOM     10  H   UNL     1      44.395   4.386   9.040  0.00  0.00    +0.000 HD
BRANCH   9  11
ATOM     11  C   UNL     1      44.538   2.396   9.456  0.00  0.00    +0.000 C 
BRANCH  11  12
ATOM     12  C   UNL     1      45.633   2.404   8.417  0.00  0.00    +0.000 A 
ATOM     13  C   UNL     1      46.328   1.237   8.102  0.00  0.00    +0.000 A 
ATOM     14  C   UNL     1      47.339   1.297   7.152  0.00  0.00    +0.000 A 
ATOM     15  N   UNL     1      47.695   2.427   6.502  0.00  0.00    +0.000 NA
ATOM     16  C   UNL     1      47.009   3.544   6.819  0.00  0.00    +0.000 A 
ATOM     17  C   UNL     1      45.979   3.585   7.746  0.00  0.00    +0.000 A 
ENDBRANCH  11  12
ENDBRANCH   9  11
ENDBRANCH   8   9
ENDBRANCH   5   8
ENDBRANCH   1   2
BRANCH   1  20
ATOM     18  O   UNL     1      50.087   6.800  15.002  0.00  0.00    +0.000 OA
ATOM     19  C   UNL     1      49.003   6.631  15.550  0.00  0.00    +0.000 C 
ATOM     20  N   UNL     1      47.809   6.644  14.874  0.00  0.00    +0.000 N 
ATOM     21  H   UNL     1      46.943   6.638  15.397  0.00  0.00    +0.000 HD
BRANCH  19  22
ATOM     22  C   UNL     1      48.905   6.325  16.979  0.00  0.00    +0.000 A 
ATOM     23  C   UNL     1      49.285   5.085  17.472  0.00  0.00    +0.000 A 
ATOM     24  S   UNL     1      49.034   4.924  19.156  0.00  0.00    +0.000 S 
ATOM     25  C   UNL     1      48.457   6.519  19.281  0.00  0.00    +0.000 A 
ATOM     26  N   UNL     1      48.060   7.034  20.475  0.00  0.00    +0.000 NA
ATOM     27  C   UNL     1      47.689   8.274  20.425  0.00  0.00    +0.000 A 
ATOM     28  N   UNL     1      47.682   9.040  19.292  0.00  0.00    +0.000 N 
ATOM     29  C   UNL     1      48.005   8.544  18.056  0.00  0.00    +0.000 A 
ATOM     30  O   UNL     1      47.863   9.229  17.048  0.00  0.00    +0.000 OA
ATOM     31  C   UNL     1      48.454   7.167  18.061  0.00  0.00    +0.000 A 
ATOM     32  H   UNL     1      47.356   9.998  19.312  0.00  0.00    +0.000 HD
ENDBRANCH  19  22
ENDBRANCH   1  20
TORSDOF 7
ENDMDL
MODEL 3
REMARK VINA RESULT:    -7.952      1.857      2.115
REMARK INTER + INTRA:         -12.118
REMARK INTER:                 -11.001
REMARK INTRA:                  -1.118
REMARK UNBOUND:                -0.912
REMARK  Name = 
REMARK  7 active torsions:
REMARK  status: ('A' for Active; 'I' for Inactive)
REMARK    1  A    between atoms: C_2  and  C_20
REMARK    2  A    between atoms: N_3  and  C_4
REMARK    3  A    between atoms: C_4  and  C_5
REMARK    4  A    between atoms: C_8  and  C_9
REMARK    5  A    between atoms: C_9  and  N_10
REMARK    6  A    between atoms: N_10  and  C_11
REMARK    7  A    between atoms: C_11  and  C_12
REMARK                            x       y       z     vdW  Elec       q    Type
REMARK                         _______ _______ _______ _____ _____    ______ ____
ROOT
ATOM      1  C   UNL     1      47.077   7.750  13.640  0.00  0.00    +0.000 C 
ENDROOT
BRANCH   1   2
ATOM      2  C   UNL     1      46.166   6.815  12.887  0.00  0.00    +0.000 A 
ATOM      3  C   UNL     1      45.229   7.333  11.982  0.00  0.00    +0.000 A 
ATOM      4  C   UNL     1      44.410   6.483  11.236  0.00  0.00    +0.000 A 
ATOM      5  C   UNL     1      44.508   5.091  11.373  0.00  0.00    +0.000 A 
ATOM      6  C   UNL     1      45.435   4.572  12.286  0.00  0.00    +0.000 A 
ATOM      7  C   UNL     1      46.241   5.425  13.052  0.00  0.00    +0.000 A 
BRANCH   5   8
ATOM      8  C   UNL     1      43.595   4.171  10.594  0.00  0.00    +0.000 C 
BRANCH   8   9
ATOM      9  N   UNL     1      44.353   3.195   9.811  0.00  0.00    +0.000 NA
ATOM     10  H   UNL     1      43.774   2.369   9.666  0.00  0.00    +0.000 HD
BRANCH   9  11
ATOM     11  C   UNL     1      44.750   3.737   8.514  0.00  0.00    +0.000 C 
BRANCH  11  12
ATOM     12  C   UNL     1      45.856   2.911   7.905  0.00  0.00    +0.000 A 
ATOM     13  C   UNL     1      46.742   3.470   6.984  0.00  0.00    +0.000 A 
ATOM     14  C   UNL     1      47.733   2.666   6.438  0.00  0.00    +0.000 A 
ATOM     15  N   UNL     1      47.900   1.361   6.748  0.00  0.00    +0.000 NA
ATOM     16  C   UNL     1      47.035   0.841   7.642  0.00  0.00    +0.000 A 
ATOM     17  C   UNL     1      46.018   1.562   8.249  0.00  0.00    +0.000 A 
ENDBRANCH  11  12
ENDBRANCH   9  11
ENDBRANCH   8   9
ENDBRANCH   5   8
ENDBRANCH   1   2
BRANCH   1  20
ATOM     18  O   UNL     1      48.368   8.660  15.994  0.00  0.00    +0.000 OA
ATOM     19  C   UNL     1      48.632   7.548  15.548  0.00  0.00    +0.000 C 
ATOM     20  N   UNL     1      48.099   7.060  14.382  0.00  0.00    +0.000 N 
ATOM     21  H   UNL     1      48.245   6.088  14.140  0.00  0.00    +0.000 HD
BRANCH  19  22
ATOM     22  C   UNL     1      49.607   6.672  16.202  0.00  0.00    +0.000 A 
ATOM     23  C   UNL     1      50.909   7.094  16.425  0.00  0.00    +0.000 A 
ATOM     24  S   UNL     1      51.892   5.896  17.147  0.00  0.00    +0.000 S 
ATOM     25  C   UNL     1      50.596   4.798  17.224  0.00  0.00    +0.000 A 
ATOM     26  N   UNL     1      50.756   3.551  17.745  0.00  0.00    +0.000 NA
ATOM     27  C   UNL     1      49.671   2.844  17.780  0.00  0.00    +0.000 A 
ATOM     28  N   UNL     1      48.448   3.272  17.345  0.00  0.00    +0.000 N 
ATOM     29  C   UNL     1      48.253   4.490  16.749  0.00  0.00    +0.000 A 
ATOM     30  O   UNL     1      47.168   4.783  16.259  0.00  0.00    +0.000 OA
ATOM     31  C   UNL     1      49.430   5.333  16.709  0.00  0.00    +0.000 A 
ATOM     32  H   UNL     1      47.641   2.661  17.376  0.00  0.00    +0.000 HD
ENDBRANCH  19  22
ENDBRANCH   1  20
TORSDOF 7
ENDMDL
MODEL 4
REMARK VINA RESULT:    -7.307      3.688      8.378
REMARK INTER + INTRA:         -11.209
REMARK INTER:                  -9.804
REMARK INTRA:                  -1.405
REMARK UNBOUND:                -0.912
REMARK  Name = 
REMARK  7 active torsions:
REMARK  status: ('A' for Active; 'I' for Inactive)
REMARK    1  A    between atoms: C_2  and  C_20
REMARK    2  A    between atoms: N_3  and  C_4
REMARK    3  A    between atoms: C_4  and  C_5
REMARK    4  A    between atoms: C_8  and  C_9
REMARK    5  A    between atoms: C_9  and  N_10
REMARK    6  A    between atoms: N_10  and  C_11
REMARK    7  A    between atoms: C_11  and  C_12
REMARK                            x       y       z     vdW  Elec       q    Type
REMARK                         _______ _______ _______ _____ _____    ______ ____
ROOT
ATOM      1  C   UNL     1      47.923   8.277  12.163  0.00  0.00    +0.000 C 
ENDROOT
BRANCH   1   2
ATOM      2  C   UNL     1      48.406   8.089  13.579  0.00  0.00    +0.000 A 
ATOM      3  C   UNL     1      47.890   8.895  14.603  0.00  0.00    +0.000 A 
ATOM      4  C   UNL     1      48.285   8.705  15.929  0.00  0.00    +0.000 A 
ATOM      5  C   UNL     1      49.204   7.701  16.267  0.00  0.00    +0.000 A 
ATOM      6  C   UNL     1      49.729   6.904  15.242  0.00  0.00    +0.000 A 
ATOM      7  C   UNL     1      49.352   7.110  13.908  0.00  0.00    +0.000 A 
BRANCH   5   8
ATOM      8  C   UNL     1      49.661   7.521  17.697  0.00  0.00    +0.000 C 
BRANCH   8   9
ATOM      9  N   UNL     1      49.017   6.368  18.326  0.00  0.00    +0.000 NA
ATOM     10  H   UNL     1      48.320   5.989  17.684  0.00  0.00    +0.000 HD
BRANCH   9  11
ATOM     11  C   UNL     1      49.985   5.324  18.654  0.00  0.00    +0.000 C 
BRANCH  11  12
ATOM     12  C   UNL     1      49.745   4.091  17.817  0.00  0.00    +0.000 A 
ATOM     13  C   UNL     1      50.734   3.117  17.679  0.00  0.00    +0.000 A 
ATOM     14  C   UNL     1      50.473   2.008  16.885  0.00  0.00    +0.000 A 
ATOM     15  N   UNL     1      49.306   1.807  16.232  0.00  0.00    +0.000 NA
ATOM     16  C   UNL     1      48.363   2.759  16.381  0.00  0.00    +0.000 A 
ATOM     17  C   UNL     1      48.524   3.897  17.156  0.00  0.00    +0.000 A 
ENDBRANCH  11  12
ENDBRANCH   9  11
ENDBRANCH   8   9
ENDBRANCH   5   8
ENDBRANCH   1   2
BRANCH   1  20
ATOM     18  O   UNL     1      45.143   7.934  11.727  0.00  0.00    +0.000 OA
ATOM     19  C   UNL     1      45.923   7.045  11.399  0.00  0.00    +0.000 C 
ATOM     20  N   UNL     1      47.273   7.106  11.633  0.00  0.00    +0.000 N 
ATOM     21  H   UNL     1      47.881   6.411  11.217  0.00  0.00    +0.000 HD
BRANCH  19  22
ATOM     22  C   UNL     1      45.453   5.799  10.788  0.00  0.00    +0.000 A 
ATOM     23  C   UNL     1      45.728   5.508   9.460  0.00  0.00    +0.000 A 
ATOM     24  S   UNL     1      45.038   4.034   8.937  0.00  0.00    +0.000 S 
ATOM     25  C   UNL     1      44.395   3.721  10.480  0.00  0.00    +0.000 A 
ATOM     26  N   UNL     1      43.674   2.595  10.729  0.00  0.00    +0.000 NA
ATOM     27  C   UNL     1      43.288   2.470  11.959  0.00  0.00    +0.000 A 
ATOM     28  N   UNL     1      43.562   3.364  12.957  0.00  0.00    +0.000 N 
ATOM     29  C   UNL     1      44.223   4.544  12.738  0.00  0.00    +0.000 A 
ATOM     30  O   UNL     1      44.335   5.376  13.632  0.00  0.00    +0.000 OA
ATOM     31  C   UNL     1      44.700   4.722  11.382  0.00  0.00    +0.000 A 
ATOM     32  H   UNL     1      43.210   3.223  13.896  0.00  0.00    +0.000 HD
ENDBRANCH  19  22
ENDBRANCH   1  20
TORSDOF 7
ENDMDL
MODEL 5
REMARK VINA RESULT:    -7.265      3.396      8.715
REMARK INTER + INTRA:         -11.150
REMARK INTER:                  -9.581
REMARK INTRA:                  -1.569
REMARK UNBOUND:                -0.912
REMARK  Name = 
REMARK  7 active torsions:
REMARK  status: ('A' for Active; 'I' for Inactive)
REMARK    1  A    between atoms: C_2  and  C_20
REMARK    2  A    between atoms: N_3  and  C_4
REMARK    3  A    between atoms: C_4  and  C_5
REMARK    4  A    between atoms: C_8  and  C_9
REMARK    5  A    between atoms: C_9  and  N_10
REMARK    6  A    between atoms: N_10  and  C_11
REMARK    7  A    between atoms: C_11  and  C_12
REMARK                            x       y       z     vdW  Elec       q    Type
REMARK                         _______ _______ _______ _____ _____    ______ ____
ROOT
ATOM      1  C   UNL     1      47.541   7.796  11.855  0.00  0.00    +0.000 C 
ENDROOT
BRANCH   1   2
ATOM      2  C   UNL     1      48.244   7.901  13.184  0.00  0.00    +0.000 A 
ATOM      3  C   UNL     1      47.656   8.628  14.228  0.00  0.00    +0.000 A 
ATOM      4  C   UNL     1      48.265   8.697  15.483  0.00  0.00    +0.000 A 
ATOM      5  C   UNL     1      49.478   8.038  15.728  0.00  0.00    +0.000 A 
ATOM      6  C   UNL     1      50.073   7.321  14.682  0.00  0.00    +0.000 A 
ATOM      7  C   UNL     1      49.475   7.271  13.416  0.00  0.00    +0.000 A 
BRANCH   5   8
ATOM      8  C   UNL     1      50.157   8.144  17.075  0.00  0.00    +0.000 C 
BRANCH   8   9
ATOM      9  N   UNL     1      50.488   6.827  17.617  0.00  0.00    +0.000 NA
ATOM     10  H   UNL     1      51.166   6.941  18.370  0.00  0.00    +0.000 HD
BRANCH   9  11
ATOM     11  C   UNL     1      49.304   6.146  18.136  0.00  0.00    +0.000 C 
BRANCH  11  12
ATOM     12  C   UNL     1      49.125   4.802  17.472  0.00  0.00    +0.000 A 
ATOM     13  C   UNL     1      48.017   4.546  16.665  0.00  0.00    +0.000 A 
ATOM     14  C   UNL     1      47.887   3.290  16.089  0.00  0.00    +0.000 A 
ATOM     15  N   UNL     1      48.778   2.287  16.258  0.00  0.00    +0.000 NA
ATOM     16  C   UNL     1      49.843   2.557  17.040  0.00  0.00    +0.000 A 
ATOM     17  C   UNL     1      50.067   3.780  17.653  0.00  0.00    +0.000 A 
ENDBRANCH  11  12
ENDBRANCH   9  11
ENDBRANCH   8   9
ENDBRANCH   5   8
ENDBRANCH   1   2
BRANCH   1  20
ATOM     18  O   UNL     1      44.724   7.612  11.596  0.00  0.00    +0.000 OA
ATOM     19  C   UNL     1      45.405   6.593  11.547  0.00  0.00    +0.000 C 
ATOM     20  N   UNL     1      46.765   6.589  11.726  0.00  0.00    +0.000 N 
ATOM     21  H   UNL     1      47.288   5.743  11.537  0.00  0.00    +0.000 HD
BRANCH  19  22
ATOM     22  C   UNL     1      44.798   5.273  11.361  0.00  0.00    +0.000 A 
ATOM     23  C   UNL     1      43.999   4.709  12.346  0.00  0.00    +0.000 A 
ATOM     24  S   UNL     1      43.442   3.143  11.947  0.00  0.00    +0.000 S 
ATOM     25  C   UNL     1      44.212   3.193  10.431  0.00  0.00    +0.000 A 
ATOM     26  N   UNL     1      44.135   2.147   9.565  0.00  0.00    +0.000 NA
ATOM     27  C   UNL     1      44.731   2.347   8.432  0.00  0.00    +0.000 A 
ATOM     28  N   UNL     1      45.391   3.495   8.090  0.00  0.00    +0.000 N 
ATOM     29  C   UNL     1      45.555   4.545   8.955  0.00  0.00    +0.000 A 
ATOM     30  O   UNL     1      46.261   5.501   8.654  0.00  0.00    +0.000 OA
ATOM     31  C   UNL     1      44.884   4.384  10.228  0.00  0.00    +0.000 A 
ATOM     32  H   UNL     1      45.859   3.581   7.197  0.00  0.00    +0.000 HD
ENDBRANCH  19  22
ENDBRANCH   1  20
TORSDOF 7
ENDMDL
MODEL 6
REMARK VINA RESULT:    -7.145      4.568      5.533
REMARK INTER + INTRA:         -10.981
REMARK INTER:                  -9.776
REMARK INTRA:                  -1.205
REMARK UNBOUND:                -0.912
REMARK  Name = 
REMARK  7 active torsions:
REMARK  status: ('A' for Active; 'I' for Inactive)
REMARK    1  A    between atoms: C_2  and  C_20
REMARK    2  A    between atoms: N_3  and  C_4
REMARK    3  A    between atoms: C_4  and  C_5
REMARK    4  A    between atoms: C_8  and  C_9
REMARK    5  A    between atoms: C_9  and  N_10
REMARK    6  A    between atoms: N_10  and  C_11
REMARK    7  A    between atoms: C_11  and  C_12
REMARK                            x       y       z     vdW  Elec       q    Type
REMARK                         _______ _______ _______ _____ _____    ______ ____
ROOT
ATOM      1  C   UNL     1      45.899   9.003  12.578  0.00  0.00    +0.000 C 
ENDROOT
BRANCH   1   2
ATOM      2  C   UNL     1      45.465   7.570  12.409  0.00  0.00    +0.000 A 
ATOM      3  C   UNL     1      44.394   7.262  11.559  0.00  0.00    +0.000 A 
ATOM      4  C   UNL     1      44.007   5.937  11.348  0.00  0.00    +0.000 A 
ATOM      5  C   UNL     1      44.684   4.883  11.979  0.00  0.00    +0.000 A 
ATOM      6  C   UNL     1      45.746   5.191  12.838  0.00  0.00    +0.000 A 
ATOM      7  C   UNL     1      46.120   6.521  13.070  0.00  0.00    +0.000 A 
BRANCH   5   8
ATOM      8  C   UNL     1      44.240   3.451  11.781  0.00  0.00    +0.000 C 
BRANCH   8   9
ATOM      9  N   UNL     1      45.127   2.735  10.864  0.00  0.00    +0.000 NA
ATOM     10  H   UNL     1      45.378   1.839  11.282  0.00  0.00    +0.000 HD
BRANCH   9  11
ATOM     11  C   UNL     1      44.488   2.499   9.572  0.00  0.00    +0.000 C 
BRANCH  11  12
ATOM     12  C   UNL     1      45.515   2.453   8.467  0.00  0.00    +0.000 A 
ATOM     13  C   UNL     1      45.782   3.581   7.691  0.00  0.00    +0.000 A 
ATOM     14  C   UNL     1      46.724   3.486   6.676  0.00  0.00    +0.000 A 
ATOM     15  N   UNL     1      47.411   2.357   6.389  0.00  0.00    +0.000 NA
ATOM     16  C   UNL     1      47.140   1.279   7.153  0.00  0.00    +0.000 A 
ATOM     17  C   UNL     1      46.225   1.275   8.194  0.00  0.00    +0.000 A 
ENDBRANCH  11  12
ENDBRANCH   9  11
ENDBRANCH   8   9
ENDBRANCH   5   8
ENDBRANCH   1   2
BRANCH   1  20
ATOM     18  O   UNL     1      48.102  10.388  13.703  0.00  0.00    +0.000 OA
ATOM     19  C   UNL     1      48.195   9.915  12.575  0.00  0.00    +0.000 C 
ATOM     20  N   UNL     1      47.156   9.287  11.936  0.00  0.00    +0.000 N 
ATOM     21  H   UNL     1      47.332   8.797  11.067  0.00  0.00    +0.000 HD
BRANCH  19  22
ATOM     22  C   UNL     1      49.421  10.051  11.785  0.00  0.00    +0.000 A 
ATOM     23  C   UNL     1      49.864  11.297  11.363  0.00  0.00    +0.000 A 
ATOM     24  S   UNL     1      51.280  11.220  10.408  0.00  0.00    +0.000 S 
ATOM     25  C   UNL     1      51.366   9.529  10.570  0.00  0.00    +0.000 A 
ATOM     26  N   UNL     1      52.364   8.814   9.984  0.00  0.00    +0.000 NA
ATOM     27  C   UNL     1      52.327   7.543  10.233  0.00  0.00    +0.000 A 
ATOM     28  N   UNL     1      51.388   6.929  11.014  0.00  0.00    +0.000 N 
ATOM     29  C   UNL     1      50.326   7.597  11.566  0.00  0.00    +0.000 A 
ATOM     30  O   UNL     1      49.438   6.988  12.152  0.00  0.00    +0.000 OA
ATOM     31  C   UNL     1      50.335   9.027  11.340  0.00  0.00    +0.000 A 
ATOM     32  H   UNL     1      51.398   5.926  11.151  0.00  0.00    +0.000 HD
ENDBRANCH  19  22
ENDBRANCH   1  20
TORSDOF 7
ENDMDL
MODEL 7
REMARK VINA RESULT:    -6.940      3.048      4.133
REMARK INTER + INTRA:         -10.692
REMARK INTER:                  -9.664
REMARK INTRA:                  -1.027
REMARK UNBOUND:                -0.912
REMARK  Name = 
REMARK  7 active torsions:
REMARK  status: ('A' for Active; 'I' for Inactive)
REMARK    1  A    between atoms: C_2  and  C_20
REMARK    2  A    between atoms: N_3  and  C_4
REMARK    3  A    between atoms: C_4  and  C_5
REMARK    4  A    between atoms: C_8  and  C_9
REMARK    5  A    between atoms: C_9  and  N_10
REMARK    6  A    between atoms: N_10  and  C_11
REMARK    7  A    between atoms: C_11  and  C_12
REMARK                            x       y       z     vdW  Elec       q    Type
REMARK                         _______ _______ _______ _____ _____    ______ ____
ROOT
ATOM      1  C   UNL     1      49.146   6.353  17.186  0.00  0.00    +0.000 C 
ENDROOT
BRANCH   1   2
ATOM      2  C   UNL     1      48.310   5.820  16.050  0.00  0.00    +0.000 A 
ATOM      3  C   UNL     1      48.304   6.487  14.817  0.00  0.00    +0.000 A 
ATOM      4  C   UNL     1      47.577   5.983  13.736  0.00  0.00    +0.000 A 
ATOM      5  C   UNL     1      46.839   4.797  13.859  0.00  0.00    +0.000 A 
ATOM      6  C   UNL     1      46.835   4.137  15.094  0.00  0.00    +0.000 A 
ATOM      7  C   UNL     1      47.544   4.654  16.186  0.00  0.00    +0.000 A 
BRANCH   5   8
ATOM      8  C   UNL     1      46.022   4.273  12.700  0.00  0.00    +0.000 C 
BRANCH   8   9
ATOM      9  N   UNL     1      45.448   5.361  11.910  0.00  0.00    +0.000 NA
ATOM     10  H   UNL     1      46.184   5.777  11.339  0.00  0.00    +0.000 HD
BRANCH   9  11
ATOM     11  C   UNL     1      44.376   4.886  11.038  0.00  0.00    +0.000 C 
BRANCH  11  12
ATOM     12  C   UNL     1      44.936   4.071   9.897  0.00  0.00    +0.000 A 
ATOM     13  C   UNL     1      44.769   2.688   9.857  0.00  0.00    +0.000 A 
ATOM     14  C   UNL     1      45.317   1.979   8.796  0.00  0.00    +0.000 A 
ATOM     15  N   UNL     1      46.007   2.552   7.785  0.00  0.00    +0.000 NA
ATOM     16  C   UNL     1      46.155   3.890   7.842  0.00  0.00    +0.000 A 
ATOM     17  C   UNL     1      45.640   4.687   8.853  0.00  0.00    +0.000 A 
ENDBRANCH  11  12
ENDBRANCH   9  11
ENDBRANCH   8   9
ENDBRANCH   5   8
ENDBRANCH   1   2
BRANCH   1  20
ATOM     18  O   UNL     1      51.832   6.198  16.294  0.00  0.00    +0.000 OA
ATOM     19  C   UNL     1      51.445   5.451  17.186  0.00  0.00    +0.000 C 
ATOM     20  N   UNL     1      50.147   5.419  17.630  0.00  0.00    +0.000 N 
ATOM     21  H   UNL     1      49.920   4.885  18.460  0.00  0.00    +0.000 HD
BRANCH  19  22
ATOM     22  C   UNL     1      52.338   4.469  17.806  0.00  0.00    +0.000 A 
ATOM     23  C   UNL     1      53.472   4.872  18.497  0.00  0.00    +0.000 A 
ATOM     24  S   UNL     1      54.401   3.564  19.089  0.00  0.00    +0.000 S 
ATOM     25  C   UNL     1      53.292   2.427  18.481  0.00  0.00    +0.000 A 
ATOM     26  N   UNL     1      53.489   1.091  18.645  0.00  0.00    +0.000 NA
ATOM     27  C   UNL     1      52.539   0.349  18.170  0.00  0.00    +0.000 A 
ATOM     28  N   UNL     1      51.415   0.823  17.552  0.00  0.00    +0.000 N 
ATOM     29  C   UNL     1      51.208   2.154  17.302  0.00  0.00    +0.000 A 
ATOM     30  O   UNL     1      50.250   2.525  16.633  0.00  0.00    +0.000 OA
ATOM     31  C   UNL     1      52.229   3.031  17.837  0.00  0.00    +0.000 A 
ATOM     32  H   UNL     1      50.719   0.190  17.179  0.00  0.00    +0.000 HD
ENDBRANCH  19  22
ENDBRANCH   1  20
TORSDOF 7
ENDMDL
MODEL 8
REMARK VINA RESULT:    -6.552      3.015      3.698
REMARK INTER + INTRA:         -10.145
REMARK INTER:                  -9.091
REMARK INTRA:                  -1.054
REMARK UNBOUND:                -0.912
REMARK  Name = 
REMARK  7 active torsions:
REMARK  status: ('A' for Active; 'I' for Inactive)
REMARK    1  A    between atoms: C_2  and  C_20
REMARK    2  A    between atoms: N_3  and  C_4
REMARK    3  A    between atoms: C_4  and  C_5
REMARK    4  A    between atoms: C_8  and  C_9
REMARK    5  A    between atoms: C_9  and  N_10
REMARK    6  A    between atoms: N_10  and  C_11
REMARK    7  A    between atoms: C_11  and  C_12
REMARK                            x       y       z     vdW  Elec       q    Type
REMARK                         _______ _______ _______ _____ _____    ______ ____
ROOT
ATOM      1  C   UNL     1      49.651   7.935  13.563  0.00  0.00    +0.000 C 
ENDROOT
BRANCH   1   2
ATOM      2  C   UNL     1      48.464   7.147  13.069  0.00  0.00    +0.000 A 
ATOM      3  C   UNL     1      47.874   6.183  13.898  0.00  0.00    +0.000 A 
ATOM      4  C   UNL     1      46.743   5.478  13.482  0.00  0.00    +0.000 A 
ATOM      5  C   UNL     1      46.169   5.721  12.226  0.00  0.00    +0.000 A 
ATOM      6  C   UNL     1      46.765   6.675  11.391  0.00  0.00    +0.000 A 
ATOM      7  C   UNL     1      47.915   7.365  11.798  0.00  0.00    +0.000 A 
BRANCH   5   8
ATOM      8  C   UNL     1      44.968   4.930  11.759  0.00  0.00    +0.000 C 
BRANCH   8   9
ATOM      9  N   UNL     1      44.453   5.434  10.486  0.00  0.00    +0.000 NA
ATOM     10  H   UNL     1      45.225   5.834   9.954  0.00  0.00    +0.000 HD
BRANCH   9  11
ATOM     11  C   UNL     1      43.827   4.373   9.701  0.00  0.00    +0.000 C 
BRANCH  11  12
ATOM     12  C   UNL     1      44.865   3.597   8.927  0.00  0.00    +0.000 A 
ATOM     13  C   UNL     1      45.012   2.222   9.108  0.00  0.00    +0.000 A 
ATOM     14  C   UNL     1      45.993   1.555   8.387  0.00  0.00    +0.000 A 
ATOM     15  N   UNL     1      46.822   2.159   7.506  0.00  0.00    +0.000 NA
ATOM     16  C   UNL     1      46.662   3.487   7.344  0.00  0.00    +0.000 A 
ATOM     17  C   UNL     1      45.708   4.241   8.011  0.00  0.00    +0.000 A 
ENDBRANCH  11  12
ENDBRANCH   9  11
ENDBRANCH   8   9
ENDBRANCH   5   8
ENDBRANCH   1   2
BRANCH   1  20
ATOM     18  O   UNL     1      49.680   8.207  16.384  0.00  0.00    +0.000 OA
ATOM     19  C   UNL     1      50.377   7.350  15.850  0.00  0.00    +0.000 C 
ATOM     20  N   UNL     1      50.467   7.195  14.490  0.00  0.00    +0.000 N 
ATOM     21  H   UNL     1      50.945   6.386  14.114  0.00  0.00    +0.000 HD
BRANCH  19  22
ATOM     22  C   UNL     1      51.234   6.459  16.636  0.00  0.00    +0.000 A 
ATOM     23  C   UNL     1      50.697   5.626  17.607  0.00  0.00    +0.000 A 
ATOM     24  S   UNL     1      51.879   4.715  18.441  0.00  0.00    +0.000 S 
ATOM     25  C   UNL     1      53.133   5.372  17.498  0.00  0.00    +0.000 A 
ATOM     26  N   UNL     1      54.429   5.009  17.696  0.00  0.00    +0.000 NA
ATOM     27  C   UNL     1      55.268   5.555  16.873  0.00  0.00    +0.000 A 
ATOM     28  N   UNL     1      54.926   6.424  15.874  0.00  0.00    +0.000 N 
ATOM     29  C   UNL     1      53.645   6.872  15.683  0.00  0.00    +0.000 A 
ATOM     30  O   UNL     1      53.403   7.747  14.859  0.00  0.00    +0.000 OA
ATOM     31  C   UNL     1      52.662   6.270  16.561  0.00  0.00    +0.000 A 
ATOM     32  H   UNL     1      55.632   6.837  15.279  0.00  0.00    +0.000 HD
ENDBRANCH  19  22
ENDBRANCH   1  20
TORSDOF 7
ENDMDL
MODEL 9
REMARK VINA RESULT:    -6.528      4.240      5.858
REMARK INTER + INTRA:         -10.111
REMARK INTER:                  -9.088
REMARK INTRA:                  -1.023
REMARK UNBOUND:                -0.912
REMARK  Name = 
REMARK  7 active torsions:
REMARK  status: ('A' for Active; 'I' for Inactive)
REMARK    1  A    between atoms: C_2  and  C_20
REMARK    2  A    between atoms: N_3  and  C_4
REMARK    3  A    between atoms: C_4  and  C_5
REMARK    4  A    between atoms: C_8  and  C_9
REMARK    5  A    between atoms: C_9  and  N_10
REMARK    6  A    between atoms: N_10  and  C_11
REMARK    7  A    between atoms: C_11  and  C_12
REMARK                            x       y       z     vdW  Elec       q    Type
REMARK                         _______ _______ _______ _____ _____    ______ ____
ROOT
ATOM      1  C   UNL     1      45.912   8.262  12.784  0.00  0.00    +0.000 C 
ENDROOT
BRANCH   1   2
ATOM      2  C   UNL     1      45.412   6.910  12.343  0.00  0.00    +0.000 A 
ATOM      3  C   UNL     1      45.966   5.748  12.896  0.00  0.00    +0.000 A 
ATOM      4  C   UNL     1      45.484   4.487  12.540  0.00  0.00    +0.000 A 
ATOM      5  C   UNL     1      44.432   4.354  11.623  0.00  0.00    +0.000 A 
ATOM      6  C   UNL     1      43.886   5.515  11.060  0.00  0.00    +0.000 A 
ATOM      7  C   UNL     1      44.385   6.779  11.398  0.00  0.00    +0.000 A 
BRANCH   5   8
ATOM      8  C   UNL     1      43.936   2.987  11.208  0.00  0.00    +0.000 C 
BRANCH   8   9
ATOM      9  N   UNL     1      43.933   2.834   9.753  0.00  0.00    +0.000 NA
ATOM     10  H   UNL     1      44.278   3.696   9.331  0.00  0.00    +0.000 HD
BRANCH   9  11
ATOM     11  C   UNL     1      44.778   1.721   9.328  0.00  0.00    +0.000 C 
BRANCH  11  12
ATOM     12  C   UNL     1      45.827   2.189   8.348  0.00  0.00    +0.000 A 
ATOM     13  C   UNL     1      46.673   1.278   7.717  0.00  0.00    +0.000 A 
ATOM     14  C   UNL     1      47.633   1.758   6.836  0.00  0.00    +0.000 A 
ATOM     15  N   UNL     1      47.800   3.068   6.545  0.00  0.00    +0.000 NA
ATOM     16  C   UNL     1      46.970   3.931   7.163  0.00  0.00    +0.000 A 
ATOM     17  C   UNL     1      45.975   3.551   8.051  0.00  0.00    +0.000 A 
ENDBRANCH  11  12
ENDBRANCH   9  11
ENDBRANCH   8   9
ENDBRANCH   5   8
ENDBRANCH   1   2
BRANCH   1  20
ATOM     18  O   UNL     1      48.313   8.167  14.288  0.00  0.00    +0.000 OA
ATOM     19  C   UNL     1      48.357   8.425  13.090  0.00  0.00    +0.000 C 
ATOM     20  N   UNL     1      47.239   8.552  12.306  0.00  0.00    +0.000 N 
ATOM     21  H   UNL     1      47.343   8.627  11.302  0.00  0.00    +0.000 HD
BRANCH  19  22
ATOM     22  C   UNL     1      49.627   8.692  12.410  0.00  0.00    +0.000 A 
ATOM     23  C   UNL     1      50.745   7.907  12.650  0.00  0.00    +0.000 A 
ATOM     24  S   UNL     1      52.131   8.428  11.796  0.00  0.00    +0.000 S 
ATOM     25  C   UNL     1      51.267   9.687  11.047  0.00  0.00    +0.000 A 
ATOM     26  N   UNL     1      51.872  10.535  10.173  0.00  0.00    +0.000 NA
ATOM     27  C   UNL     1      51.078  11.414   9.646  0.00  0.00    +0.000 A 
ATOM     28  N   UNL     1      49.741  11.516   9.914  0.00  0.00    +0.000 N 
ATOM     29  C   UNL     1      49.105  10.730  10.839  0.00  0.00    +0.000 A 
ATOM     30  O   UNL     1      47.935  10.939  11.142  0.00  0.00    +0.000 OA
ATOM     31  C   UNL     1      49.942   9.712  11.438  0.00  0.00    +0.000 A 
ATOM     32  H   UNL     1      49.178  12.242   9.489  0.00  0.00    +0.000 HD
ENDBRANCH  19  22
ENDBRANCH   1  20
TORSDOF 7
ENDMDL
