MODEL 1
REMARK VINA RESULT:    -7.540      0.000      0.000
REMARK INTER + INTRA:         -11.649
REMARK INTER:                 -10.625
REMARK INTRA:                  -1.024
REMARK UNBOUND:                -1.024
REMARK  Name = 
REMARK  9 active torsions:
REMARK  status: ('A' for Active; 'I' for Inactive)
REMARK    1  A    between atoms: C_1  and  C_2
REMARK    2  A    between atoms: C_2  and  C_3
REMARK    3  A    between atoms: C_2  and  C_4
REMARK    4  A    between atoms: C_2  and  C_15
REMARK    5  A    between atoms: C_5  and  C_6
REMARK    6  A    between atoms: C_9  and  C_10
REMARK    7  A    between atoms: C_19  and  O_20
REMARK    8  A    between atoms: O_20  and  C_21
REMARK    9  A    between atoms: C_21  and  C_22
REMARK                            x       y       z     vdW  Elec       q    Type
REMARK                         _______ _______ _______ _____ _____    ______ ____
ROOT
ATOM      1  C   UNL     1      43.072   5.728  12.336  0.00  0.00    +0.000 C 
ATOM      2  C   UNL     1      44.537   5.468  11.911  0.00  0.00    +0.000 C 
ATOM      3  C   UNL     1      45.076   6.806  11.339  0.00  0.00    +0.000 C 
ENDROOT
BRANCH   2   4
ATOM      4  C   UNL     1      44.653   4.376  10.827  0.00  0.00    +0.000 A 
ATOM      5  C   UNL     1      44.081   3.099  10.979  0.00  0.00    +0.000 A 
ATOM      6  C   UNL     1      44.142   2.144   9.962  0.00  0.00    +0.000 A 
ATOM      7  C   UNL     1      44.764   2.445   8.756  0.00  0.00    +0.000 A 
ATOM      8  C   UNL     1      45.317   3.709   8.565  0.00  0.00    +0.000 A 
ATOM      9  C   UNL     1      45.299   4.646   9.604  0.00  0.00    +0.000 A 
BRANCH   8  10
ATOM     10  O   UNL     1      45.904   4.123   7.400  0.00  0.00    +0.000 OA
BRANCH  10  11
ATOM     11  C   UNL     1      47.197   3.555   7.138  0.00  0.00    +0.000 C 
BRANCH  11  12
ATOM     12  C   UNL     1      47.131   2.489   6.048  0.00  0.00    +0.000 C 
ATOM     13  F   UNL     1      46.089   2.654   5.206  0.00  0.00    +0.000 F 
ATOM     14  F   UNL     1      48.261   2.493   5.303  0.00  0.00    +0.000 F 
ATOM     15  F   UNL     1      47.018   1.254   6.594  0.00  0.00    +0.000 F 
ENDBRANCH  11  12
ENDBRANCH  10  11
ENDBRANCH   8  10
ENDBRANCH   2   4
BRANCH   2  16
ATOM     16  C   UNL     1      45.321   5.176  13.190  0.00  0.00    +0.000 C 
ATOM     17  C   UNL     1      46.653   5.192  13.378  0.00  0.00    +0.000 C 
BRANCH  17  18
ATOM     18  C   UNL     1      47.294   4.862  14.664  0.00  0.00    +0.000 A 
ATOM     19  C   UNL     1      47.087   3.648  15.331  0.00  0.00    +0.000 A 
ATOM     20  C   UNL     1      47.736   3.387  16.537  0.00  0.00    +0.000 A 
ATOM     21  C   UNL     1      48.601   4.348  17.037  0.00  0.00    +0.000 A 
ATOM     22  N   UNL     1      48.855   5.535  16.418  0.00  0.00    +0.000 NA
ATOM     23  C   UNL     1      48.193   5.752  15.251  0.00  0.00    +0.000 A 
BRANCH  21  24
ATOM     24  C   UNL     1      49.322   4.091  18.324  0.00  0.00    +0.000 C 
ATOM     25  N   UNL     1      48.575   3.509  19.312  0.00  0.00    +0.000 N 
ATOM     26  O   UNL     1      50.501   4.387  18.497  0.00  0.00    +0.000 OA
ATOM     27  H   UNL     1      47.602   3.289  19.134  0.00  0.00    +0.000 HD
ATOM     28  H   UNL     1      48.993   3.320  20.211  0.00  0.00    +0.000 HD
ENDBRANCH  21  24
ENDBRANCH  17  18
ENDBRANCH   2  16
TORSDOF 7
ENDMDL
MODEL 2
REMARK VINA RESULT:    -7.104      1.181      1.868
REMARK INTER + INTRA:         -11.035
REMARK INTER:                 -10.167
REMARK INTRA:                  -0.868
REMARK UNBOUND:                -1.024
REMARK  Name = 
REMARK  9 active torsions:
REMARK  status: ('A' for Active; 'I' for Inactive)
REMARK    1  A    between atoms: C_1  and  C_2
REMARK    2  A    between atoms: C_2  and  C_3
REMARK    3  A    between atoms: C_2  and  C_4
REMARK    4  A    between atoms: C_2  and  C_15
REMARK    5  A    between atoms: C_5  and  C_6
REMARK    6  A    between atoms: C_9  and  C_10
REMARK    7  A    between atoms: C_19  and  O_20
REMARK    8  A    between atoms: O_20  and  C_21
REMARK    9  A    between atoms: C_21  and  C_22
REMARK                            x       y       z     vdW  Elec       q    Type
REMARK                         _______ _______ _______ _____ _____    ______ ____
ROOT
ATOM      1  C   UNL     1      45.814   8.459  12.421  0.00  0.00    +0.000 C 
ATOM      2  C   UNL     1      46.495   7.095  12.157  0.00  0.00    +0.000 C 
ATOM      3  C   UNL     1      47.757   7.388  11.302  0.00  0.00    +0.000 C 
ENDROOT
BRANCH   2   4
ATOM      4  C   UNL     1      45.583   6.117  11.386  0.00  0.00    +0.000 A 
ATOM      5  C   UNL     1      44.297   5.770  11.840  0.00  0.00    +0.000 A 
ATOM      6  C   UNL     1      43.461   4.932  11.099  0.00  0.00    +0.000 A 
ATOM      7  C   UNL     1      43.882   4.431   9.873  0.00  0.00    +0.000 A 
ATOM      8  C   UNL     1      45.139   4.776   9.384  0.00  0.00    +0.000 A 
ATOM      9  C   UNL     1      45.994   5.574  10.153  0.00  0.00    +0.000 A 
BRANCH   8  10
ATOM     10  O   UNL     1      45.627   4.381   8.169  0.00  0.00    +0.000 OA
BRANCH  10  11
ATOM     11  C   UNL     1      45.653   2.959   7.961  0.00  0.00    +0.000 C 
BRANCH  11  12
ATOM     12  C   UNL     1      46.692   2.567   6.914  0.00  0.00    +0.000 C 
ATOM     13  F   UNL     1      46.919   1.237   6.863  0.00  0.00    +0.000 F 
ATOM     14  F   UNL     1      46.301   2.960   5.679  0.00  0.00    +0.000 F 
ATOM     15  F   UNL     1      47.878   3.171   7.167  0.00  0.00    +0.000 F 
ENDBRANCH  11  12
ENDBRANCH  10  11
ENDBRANCH   8  10
ENDBRANCH   2   4
BRANCH   2  16
ATOM     16  C   UNL     1      46.979   6.575  13.511  0.00  0.00    +0.000 C 
ATOM     17  C   UNL     1      47.099   5.301  13.924  0.00  0.00    +0.000 C 
BRANCH  17  18
ATOM     18  C   UNL     1      47.555   4.927  15.276  0.00  0.00    +0.000 A 
ATOM     19  C   UNL     1      47.294   3.679  15.852  0.00  0.00    +0.000 A 
ATOM     20  C   UNL     1      47.766   3.378  17.129  0.00  0.00    +0.000 A 
ATOM     21  C   UNL     1      48.515   4.338  17.793  0.00  0.00    +0.000 A 
ATOM     22  N   UNL     1      48.817   5.559  17.270  0.00  0.00    +0.000 NA
ATOM     23  C   UNL     1      48.327   5.814  16.028  0.00  0.00    +0.000 A 
BRANCH  21  24
ATOM     24  C   UNL     1      49.048   4.040  19.161  0.00  0.00    +0.000 C 
ATOM     25  N   UNL     1      48.305   3.162  19.903  0.00  0.00    +0.000 N 
ATOM     26  O   UNL     1      50.074   4.549  19.600  0.00  0.00    +0.000 OA
ATOM     27  H   UNL     1      47.459   2.771  19.509  0.00  0.00    +0.000 HD
ATOM     28  H   UNL     1      48.598   2.927  20.840  0.00  0.00    +0.000 HD
ENDBRANCH  21  24
ENDBRANCH  17  18
ENDBRANCH   2  16
TORSDOF 7
ENDMDL
MODEL 3
REMARK VINA RESULT:    -7.015      2.287      3.030
REMARK INTER + INTRA:         -10.909
REMARK INTER:                  -9.895
REMARK INTRA:                  -1.014
REMARK UNBOUND:                -1.024
REMARK  Name = 
REMARK  9 active torsions:
REMARK  status: ('A' for Active; 'I' for Inactive)
REMARK    1  A    between atoms: C_1  and  C_2
REMARK    2  A    between atoms: C_2  and  C_3
REMARK    3  A    between atoms: C_2  and  C_4
REMARK    4  A    between atoms: C_2  and  C_15
REMARK    5  A    between atoms: C_5  and  C_6
REMARK    6  A    between atoms: C_9  and  C_10
REMARK    7  A    between atoms: C_19  and  O_20
REMARK    8  A    between atoms: O_20  and  C_21
REMARK    9  A    between atoms: C_21  and  C_22
REMARK                            x       y       z     vdW  Elec       q    Type
REMARK                         _______ _______ _______ _____ _____    ______ ____
ROOT
ATOM      1  C   UNL     1      43.908   4.864  12.908  0.00  0.00    +0.000 C 
ATOM      2  C   UNL     1      44.611   5.429  11.650  0.00  0.00    +0.000 C 
ATOM      3  C   UNL     1      43.713   6.579  11.121  0.00  0.00    +0.000 C 
ENDROOT
BRANCH   2   4
ATOM      4  C   UNL     1      44.775   4.369  10.540  0.00  0.00    +0.000 A 
ATOM      5  C   UNL     1      44.127   3.121  10.587  0.00  0.00    +0.000 A 
ATOM      6  C   UNL     1      44.238   2.199   9.544  0.00  0.00    +0.000 A 
ATOM      7  C   UNL     1      44.988   2.506   8.416  0.00  0.00    +0.000 A 
ATOM      8  C   UNL     1      45.621   3.744   8.327  0.00  0.00    +0.000 A 
ATOM      9  C   UNL     1      45.550   4.645   9.395  0.00  0.00    +0.000 A 
BRANCH   8  10
ATOM     10  O   UNL     1      46.338   4.164   7.240  0.00  0.00    +0.000 OA
BRANCH  10  11
ATOM     11  C   UNL     1      46.373   3.239   6.143  0.00  0.00    +0.000 C 
BRANCH  11  12
ATOM     12  C   UNL     1      47.632   2.377   6.177  0.00  0.00    +0.000 C 
ATOM     13  F   UNL     1      47.428   1.159   6.720  0.00  0.00    +0.000 F 
ATOM     14  F   UNL     1      48.120   2.190   4.928  0.00  0.00    +0.000 F 
ATOM     15  F   UNL     1      48.607   2.984   6.898  0.00  0.00    +0.000 F 
ENDBRANCH  11  12
ENDBRANCH  10  11
ENDBRANCH   8  10
ENDBRANCH   2   4
BRANCH   2  16
ATOM     16  C   UNL     1      45.920   6.059  12.123  0.00  0.00    +0.000 C 
ATOM     17  C   UNL     1      46.771   5.614  13.064  0.00  0.00    +0.000 C 
BRANCH  17  18
ATOM     18  C   UNL     1      47.999   6.334  13.452  0.00  0.00    +0.000 A 
ATOM     19  C   UNL     1      48.722   7.143  12.567  0.00  0.00    +0.000 A 
ATOM     20  C   UNL     1      49.867   7.812  12.999  0.00  0.00    +0.000 A 
ATOM     21  C   UNL     1      50.249   7.669  14.324  0.00  0.00    +0.000 A 
ATOM     22  N   UNL     1      49.569   6.913  15.231  0.00  0.00    +0.000 NA
ATOM     23  C   UNL     1      48.466   6.271  14.765  0.00  0.00    +0.000 A 
BRANCH  21  24
ATOM     24  C   UNL     1      51.466   8.386  14.820  0.00  0.00    +0.000 C 
ATOM     25  N   UNL     1      52.651   7.723  14.645  0.00  0.00    +0.000 N 
ATOM     26  O   UNL     1      51.417   9.488  15.358  0.00  0.00    +0.000 OA
ATOM     27  H   UNL     1      52.650   6.811  14.206  0.00  0.00    +0.000 HD
ATOM     28  H   UNL     1      53.511   8.141  14.969  0.00  0.00    +0.000 HD
ENDBRANCH  21  24
ENDBRANCH  17  18
ENDBRANCH   2  16
TORSDOF 7
ENDMDL
MODEL 4
REMARK VINA RESULT:    -6.847      3.837      4.786
REMARK INTER + INTRA:         -10.673
REMARK INTER:                  -9.585
REMARK INTRA:                  -1.087
REMARK UNBOUND:                -1.024
REMARK  Name = 
REMARK  9 active torsions:
REMARK  status: ('A' for Active; 'I' for Inactive)
REMARK    1  A    between atoms: C_1  and  C_2
REMARK    2  A    between atoms: C_2  and  C_3
REMARK    3  A    between atoms: C_2  and  C_4
REMARK    4  A    between atoms: C_2  and  C_15
REMARK    5  A    between atoms: C_5  and  C_6
REMARK    6  A    between atoms: C_9  and  C_10
REMARK    7  A    between atoms: C_19  and  O_20
REMARK    8  A    between atoms: O_20  and  C_21
REMARK    9  A    between atoms: C_21  and  C_22
REMARK                            x       y       z     vdW  Elec       q    Type
REMARK                         _______ _______ _______ _____ _____    ______ ____
ROOT
ATOM      1  C   UNL     1      44.887   5.111  13.010  0.00  0.00    +0.000 C 
ATOM      2  C   UNL     1      44.887   5.642  11.557  0.00  0.00    +0.000 C 
ATOM      3  C   UNL     1      43.577   6.455  11.382  0.00  0.00    +0.000 C 
ENDROOT
BRANCH   2   4
ATOM      4  C   UNL     1      44.916   4.506  10.513  0.00  0.00    +0.000 A 
ATOM      5  C   UNL     1      44.205   3.304  10.687  0.00  0.00    +0.000 A 
ATOM      6  C   UNL     1      44.192   2.312   9.704  0.00  0.00    +0.000 A 
ATOM      7  C   UNL     1      44.878   2.502   8.510  0.00  0.00    +0.000 A 
ATOM      8  C   UNL     1      45.571   3.691   8.297  0.00  0.00    +0.000 A 
ATOM      9  C   UNL     1      45.623   4.661   9.304  0.00  0.00    +0.000 A 
BRANCH   8  10
ATOM     10  O   UNL     1      46.232   3.998   7.139  0.00  0.00    +0.000 OA
BRANCH  10  11
ATOM     11  C   UNL     1      46.377   2.906   6.217  0.00  0.00    +0.000 C 
BRANCH  11  12
ATOM     12  C   UNL     1      47.743   2.239   6.349  0.00  0.00    +0.000 C 
ATOM     13  F   UNL     1      48.241   1.811   5.170  0.00  0.00    +0.000 F 
ATOM     14  F   UNL     1      48.645   3.095   6.885  0.00  0.00    +0.000 F 
ATOM     15  F   UNL     1      47.673   1.165   7.173  0.00  0.00    +0.000 F 
ENDBRANCH  11  12
ENDBRANCH  10  11
ENDBRANCH   8  10
ENDBRANCH   2   4
BRANCH   2  16
ATOM     16  C   UNL     1      46.049   6.630  11.450  0.00  0.00    +0.000 C 
ATOM     17  C   UNL     1      47.166   6.692  12.195  0.00  0.00    +0.000 C 
BRANCH  17  18
ATOM     18  C   UNL     1      48.209   7.718  12.009  0.00  0.00    +0.000 A 
ATOM     19  C   UNL     1      49.568   7.411  11.877  0.00  0.00    +0.000 A 
ATOM     20  C   UNL     1      50.505   8.426  11.686  0.00  0.00    +0.000 A 
ATOM     21  C   UNL     1      50.049   9.733  11.609  0.00  0.00    +0.000 A 
ATOM     22  N   UNL     1      48.737  10.084  11.709  0.00  0.00    +0.000 NA
ATOM     23  C   UNL     1      47.859   9.065  11.905  0.00  0.00    +0.000 A 
BRANCH  21  24
ATOM     24  C   UNL     1      51.030  10.844  11.392  0.00  0.00    +0.000 C 
ATOM     25  N   UNL     1      50.904  11.516  10.207  0.00  0.00    +0.000 N 
ATOM     26  O   UNL     1      51.899  11.133  12.209  0.00  0.00    +0.000 OA
ATOM     27  H   UNL     1      50.181  11.241   9.554  0.00  0.00    +0.000 HD
ATOM     28  H   UNL     1      51.541  12.268   9.987  0.00  0.00    +0.000 HD
ENDBRANCH  21  24
ENDBRANCH  17  18
ENDBRANCH   2  16
TORSDOF 7
ENDMDL
MODEL 5
REMARK VINA RESULT:    -6.562      4.652      8.793
REMARK INTER + INTRA:         -10.271
REMARK INTER:                  -9.015
REMARK INTRA:                  -1.256
REMARK UNBOUND:                -1.024
REMARK  Name = 
REMARK  9 active torsions:
REMARK  status: ('A' for Active; 'I' for Inactive)
REMARK    1  A    between atoms: C_1  and  C_2
REMARK    2  A    between atoms: C_2  and  C_3
REMARK    3  A    between atoms: C_2  and  C_4
REMARK    4  A    between atoms: C_2  and  C_15
REMARK    5  A    between atoms: C_5  and  C_6
REMARK    6  A    between atoms: C_9  and  C_10
REMARK    7  A    between atoms: C_19  and  O_20
REMARK    8  A    between atoms: O_20  and  C_21
REMARK    9  A    between atoms: C_21  and  C_22
REMARK                            x       y       z     vdW  Elec       q    Type
REMARK                         _______ _______ _______ _____ _____    ______ ____
ROOT
ATOM      1  C   UNL     1      50.502   7.865  14.008  0.00  0.00    +0.000 C 
ATOM      2  C   UNL     1      49.220   7.687  14.857  0.00  0.00    +0.000 C 
ATOM      3  C   UNL     1      48.511   9.067  14.883  0.00  0.00    +0.000 C 
ENDROOT
BRANCH   2   4
ATOM      4  C   UNL     1      49.527   7.253  16.306  0.00  0.00    +0.000 A 
ATOM      5  C   UNL     1      49.723   8.181  17.345  0.00  0.00    +0.000 A 
ATOM      6  C   UNL     1      49.938   7.770  18.663  0.00  0.00    +0.000 A 
ATOM      7  C   UNL     1      49.948   6.417  18.980  0.00  0.00    +0.000 A 
ATOM      8  C   UNL     1      49.732   5.474  17.979  0.00  0.00    +0.000 A 
ATOM      9  C   UNL     1      49.567   5.887  16.652  0.00  0.00    +0.000 A 
BRANCH   8  10
ATOM     10  O   UNL     1      49.669   4.125  18.194  0.00  0.00    +0.000 OA
BRANCH  10  11
ATOM     11  C   UNL     1      48.389   3.640  18.631  0.00  0.00    +0.000 C 
BRANCH  11  12
ATOM     12  C   UNL     1      47.543   3.157  17.456  0.00  0.00    +0.000 C 
ATOM     13  F   UNL     1      46.805   4.136  16.895  0.00  0.00    +0.000 F 
ATOM     14  F   UNL     1      48.326   2.630  16.485  0.00  0.00    +0.000 F 
ATOM     15  F   UNL     1      46.689   2.181  17.852  0.00  0.00    +0.000 F 
ENDBRANCH  11  12
ENDBRANCH  10  11
ENDBRANCH   8  10
ENDBRANCH   2   4
BRANCH   2  16
ATOM     16  C   UNL     1      48.312   6.728  14.088  0.00  0.00    +0.000 C 
ATOM     17  C   UNL     1      47.172   7.001  13.430  0.00  0.00    +0.000 C 
BRANCH  17  18
ATOM     18  C   UNL     1      46.366   5.974  12.744  0.00  0.00    +0.000 A 
ATOM     19  C   UNL     1      45.995   6.067  11.397  0.00  0.00    +0.000 A 
ATOM     20  C   UNL     1      45.246   5.054  10.800  0.00  0.00    +0.000 A 
ATOM     21  C   UNL     1      44.903   3.952  11.569  0.00  0.00    +0.000 A 
ATOM     22  N   UNL     1      45.257   3.801  12.876  0.00  0.00    +0.000 NA
ATOM     23  C   UNL     1      45.977   4.817  13.421  0.00  0.00    +0.000 A 
BRANCH  21  24
ATOM     24  C   UNL     1      44.110   2.842  10.952  0.00  0.00    +0.000 C 
ATOM     25  N   UNL     1      44.678   2.251   9.857  0.00  0.00    +0.000 N 
ATOM     26  O   UNL     1      43.019   2.484  11.385  0.00  0.00    +0.000 OA
ATOM     27  H   UNL     1      45.576   2.581   9.524  0.00  0.00    +0.000 HD
ATOM     28  H   UNL     1      44.192   1.505   9.382  0.00  0.00    +0.000 HD
ENDBRANCH  21  24
ENDBRANCH  17  18
ENDBRANCH   2  16
TORSDOF 7
ENDMDL
MODEL 6
REMARK VINA RESULT:    -5.973      3.930      6.280
REMARK INTER + INTRA:          -9.441
REMARK INTER:                  -8.534
REMARK INTRA:                  -0.907
REMARK UNBOUND:                -1.024
REMARK  Name = 
REMARK  9 active torsions:
REMARK  status: ('A' for Active; 'I' for Inactive)
REMARK    1  A    between atoms: C_1  and  C_2
REMARK    2  A    between atoms: C_2  and  C_3
REMARK    3  A    between atoms: C_2  and  C_4
REMARK    4  A    between atoms: C_2  and  C_15
REMARK    5  A    between atoms: C_5  and  C_6
REMARK    6  A    between atoms: C_9  and  C_10
REMARK    7  A    between atoms: C_19  and  O_20
REMARK    8  A    between atoms: O_20  and  C_21
REMARK    9  A    between atoms: C_21  and  C_22
REMARK                            x       y       z     vdW  Elec       q    Type
REMARK                         _______ _______ _______ _____ _____    ______ ____
ROOT
ATOM      1  C   UNL     1      47.092   4.907  18.022  0.00  0.00    +0.000 C 
ATOM      2  C   UNL     1      48.298   5.256  17.117  0.00  0.00    +0.000 C 
ATOM      3  C   UNL     1      48.908   6.567  17.679  0.00  0.00    +0.000 C 
ENDROOT
BRANCH   2   4
ATOM      4  C   UNL     1      47.886   5.485  15.647  0.00  0.00    +0.000 A 
ATOM      5  C   UNL     1      48.379   6.561  14.885  0.00  0.00    +0.000 A 
ATOM      6  C   UNL     1      48.044   6.717  13.538  0.00  0.00    +0.000 A 
ATOM      7  C   UNL     1      47.219   5.792  12.911  0.00  0.00    +0.000 A 
ATOM      8  C   UNL     1      46.735   4.703  13.631  0.00  0.00    +0.000 A 
ATOM      9  C   UNL     1      47.031   4.576  14.992  0.00  0.00    +0.000 A 
BRANCH   8  10
ATOM     10  O   UNL     1      45.962   3.710  13.095  0.00  0.00    +0.000 OA
BRANCH  10  11
ATOM     11  C   UNL     1      44.589   4.067  12.869  0.00  0.00    +0.000 C 
BRANCH  11  12
ATOM     12  C   UNL     1      44.168   3.790  11.428  0.00  0.00    +0.000 C 
ATOM     13  F   UNL     1      44.263   4.873  10.629  0.00  0.00    +0.000 F 
ATOM     14  F   UNL     1      44.934   2.814  10.884  0.00  0.00    +0.000 F 
ATOM     15  F   UNL     1      42.883   3.361  11.379  0.00  0.00    +0.000 F 
ENDBRANCH  11  12
ENDBRANCH  10  11
ENDBRANCH   8  10
ENDBRANCH   2   4
BRANCH   2  16
ATOM     16  C   UNL     1      49.335   4.152  17.319  0.00  0.00    +0.000 C 
ATOM     17  C   UNL     1      50.647   4.275  17.590  0.00  0.00    +0.000 C 
BRANCH  17  18
ATOM     18  C   UNL     1      51.555   3.123  17.736  0.00  0.00    +0.000 A 
ATOM     19  C   UNL     1      52.837   3.226  18.290  0.00  0.00    +0.000 A 
ATOM     20  C   UNL     1      53.643   2.096  18.418  0.00  0.00    +0.000 A 
ATOM     21  C   UNL     1      53.131   0.875  18.004  0.00  0.00    +0.000 A 
ATOM     22  N   UNL     1      51.884   0.716  17.479  0.00  0.00    +0.000 NA
ATOM     23  C   UNL     1      51.137   1.845  17.363  0.00  0.00    +0.000 A 
BRANCH  21  24
ATOM     24  C   UNL     1      53.969  -0.359  18.140  0.00  0.00    +0.000 C 
ATOM     25  N   UNL     1      54.337  -0.952  16.964  0.00  0.00    +0.000 N 
ATOM     26  O   UNL     1      54.299  -0.821  19.227  0.00  0.00    +0.000 OA
ATOM     27  H   UNL     1      54.036  -0.546  16.086  0.00  0.00    +0.000 HD
ATOM     28  H   UNL     1      54.891  -1.796  16.981  0.00  0.00    +0.000 HD
ENDBRANCH  21  24
ENDBRANCH  17  18
ENDBRANCH   2  16
TORSDOF 7
ENDMDL
MODEL 7
REMARK VINA RESULT:    -5.883      5.302      6.484
REMARK INTER + INTRA:          -9.314
REMARK INTER:                  -8.305
REMARK INTRA:                  -1.009
REMARK UNBOUND:                -1.024
REMARK  Name = 
REMARK  9 active torsions:
REMARK  status: ('A' for Active; 'I' for Inactive)
REMARK    1  A    between atoms: C_1  and  C_2
REMARK    2  A    between atoms: C_2  and  C_3
REMARK    3  A    between atoms: C_2  and  C_4
REMARK    4  A    between atoms: C_2  and  C_15
REMARK    5  A    between atoms: C_5  and  C_6
REMARK    6  A    between atoms: C_9  and  C_10
REMARK    7  A    between atoms: C_19  and  O_20
REMARK    8  A    between atoms: O_20  and  C_21
REMARK    9  A    between atoms: C_21  and  C_22
REMARK                            x       y       z     vdW  Elec       q    Type
REMARK                         _______ _______ _______ _____ _____    ______ ____
ROOT
ATOM      1  C   UNL     1      47.781   7.877  14.084  0.00  0.00    +0.000 C 
ATOM      2  C   UNL     1      47.524   7.540  12.596  0.00  0.00    +0.000 C 
ATOM      3  C   UNL     1      46.677   8.705  12.019  0.00  0.00    +0.000 C 
ENDROOT
BRANCH   2   4
ATOM      4  C   UNL     1      46.748   6.219  12.415  0.00  0.00    +0.000 A 
ATOM      5  C   UNL     1      46.704   5.228  13.414  0.00  0.00    +0.000 A 
ATOM      6  C   UNL     1      45.946   4.065  13.258  0.00  0.00    +0.000 A 
ATOM      7  C   UNL     1      45.198   3.868  12.104  0.00  0.00    +0.000 A 
ATOM      8  C   UNL     1      45.201   4.841  11.108  0.00  0.00    +0.000 A 
ATOM      9  C   UNL     1      46.000   5.981  11.245  0.00  0.00    +0.000 A 
BRANCH   8  10
ATOM     10  O   UNL     1      44.460   4.768   9.960  0.00  0.00    +0.000 OA
BRANCH  10  11
ATOM     11  C   UNL     1      44.489   3.492   9.300  0.00  0.00    +0.000 C 
BRANCH  11  12
ATOM     12  C   UNL     1      45.541   3.459   8.194  0.00  0.00    +0.000 C 
ATOM     13  F   UNL     1      46.349   4.540   8.196  0.00  0.00    +0.000 F 
ATOM     14  F   UNL     1      46.327   2.363   8.313  0.00  0.00    +0.000 F 
ATOM     15  F   UNL     1      44.951   3.396   6.975  0.00  0.00    +0.000 F 
ENDBRANCH  11  12
ENDBRANCH  10  11
ENDBRANCH   8  10
ENDBRANCH   2   4
BRANCH   2  16
ATOM     16  C   UNL     1      48.882   7.578  11.895  0.00  0.00    +0.000 C 
ATOM     17  C   UNL     1      49.726   8.616  11.762  0.00  0.00    +0.000 C 
BRANCH  17  18
ATOM     18  C   UNL     1      51.005   8.532  11.033  0.00  0.00    +0.000 A 
ATOM     19  C   UNL     1      51.493   7.341  10.480  0.00  0.00    +0.000 A 
ATOM     20  C   UNL     1      52.702   7.329   9.787  0.00  0.00    +0.000 A 
ATOM     21  C   UNL     1      53.387   8.526   9.643  0.00  0.00    +0.000 A 
ATOM     22  N   UNL     1      52.947   9.715  10.141  0.00  0.00    +0.000 NA
ATOM     23  C   UNL     1      51.770   9.679  10.819  0.00  0.00    +0.000 A 
BRANCH  21  24
ATOM     24  C   UNL     1      54.683   8.547   8.891  0.00  0.00    +0.000 C 
ATOM     25  N   UNL     1      54.572   8.511   7.528  0.00  0.00    +0.000 N 
ATOM     26  O   UNL     1      55.775   8.584   9.450  0.00  0.00    +0.000 OA
ATOM     27  H   UNL     1      53.653   8.472   7.105  0.00  0.00    +0.000 HD
ATOM     28  H   UNL     1      55.406   8.509   6.959  0.00  0.00    +0.000 HD
ENDBRANCH  21  24
ENDBRANCH  17  18
ENDBRANCH   2  16
TORSDOF 7
ENDMDL
MODEL 8
REMARK VINA RESULT:    -5.720      3.351      4.852
REMARK INTER + INTRA:          -9.085
REMARK INTER:                  -7.906
REMARK INTRA:                  -1.179
REMARK UNBOUND:                -1.024
REMARK  Name = 
REMARK  9 active torsions:
REMARK  status: ('A' for Active; 'I' for Inactive)
REMARK    1  A    between atoms: C_1  and  C_2
REMARK    2  A    between atoms: C_2  and  C_3
REMARK    3  A    between atoms: C_2  and  C_4
REMARK    4  A    between atoms: C_2  and  C_15
REMARK    5  A    between atoms: C_5  and  C_6
REMARK    6  A    between atoms: C_9  and  C_10
REMARK    7  A    between atoms: C_19  and  O_20
REMARK    8  A    between atoms: O_20  and  C_21
REMARK    9  A    between atoms: C_21  and  C_22
REMARK                            x       y       z     vdW  Elec       q    Type
REMARK                         _______ _______ _______ _____ _____    ______ ____
ROOT
ATOM      1  C   UNL     1      48.967   9.488  12.999  0.00  0.00    +0.000 C 
ATOM      2  C   UNL     1      48.530   8.004  13.002  0.00  0.00    +0.000 C 
ATOM      3  C   UNL     1      49.522   7.248  12.079  0.00  0.00    +0.000 C 
ENDROOT
BRANCH   2   4
ATOM      4  C   UNL     1      47.097   7.809  12.466  0.00  0.00    +0.000 A 
ATOM      5  C   UNL     1      46.132   8.832  12.504  0.00  0.00    +0.000 A 
ATOM      6  C   UNL     1      44.858   8.659  11.958  0.00  0.00    +0.000 A 
ATOM      7  C   UNL     1      44.519   7.460  11.343  0.00  0.00    +0.000 A 
ATOM      8  C   UNL     1      45.459   6.436  11.267  0.00  0.00    +0.000 A 
ATOM      9  C   UNL     1      46.717   6.594  11.859  0.00  0.00    +0.000 A 
BRANCH   8  10
ATOM     10  O   UNL     1      45.244   5.240  10.639  0.00  0.00    +0.000 OA
BRANCH  10  11
ATOM     11  C   UNL     1      43.927   4.694  10.810  0.00  0.00    +0.000 C 
BRANCH  11  12
ATOM     12  C   UNL     1      43.903   3.620  11.895  0.00  0.00    +0.000 C 
ATOM     13  F   UNL     1      43.037   2.619  11.633  0.00  0.00    +0.000 F 
ATOM     14  F   UNL     1      45.129   3.068  12.051  0.00  0.00    +0.000 F 
ATOM     15  F   UNL     1      43.552   4.156  13.090  0.00  0.00    +0.000 F 
ENDBRANCH  11  12
ENDBRANCH  10  11
ENDBRANCH   8  10
ENDBRANCH   2   4
BRANCH   2  16
ATOM     16  C   UNL     1      48.751   7.483  14.423  0.00  0.00    +0.000 C 
ATOM     17  C   UNL     1      48.449   6.274  14.928  0.00  0.00    +0.000 C 
BRANCH  17  18
ATOM     18  C   UNL     1      48.688   5.900  16.334  0.00  0.00    +0.000 A 
ATOM     19  C   UNL     1      49.405   6.706  17.227  0.00  0.00    +0.000 A 
ATOM     20  C   UNL     1      49.583   6.305  18.550  0.00  0.00    +0.000 A 
ATOM     21  C   UNL     1      49.015   5.107  18.955  0.00  0.00    +0.000 A 
ATOM     22  N   UNL     1      48.290   4.297  18.133  0.00  0.00    +0.000 NA
ATOM     23  C   UNL     1      48.150   4.720  16.850  0.00  0.00    +0.000 A 
BRANCH  21  24
ATOM     24  C   UNL     1      49.178   4.656  20.373  0.00  0.00    +0.000 C 
ATOM     25  N   UNL     1      50.467   4.600  20.828  0.00  0.00    +0.000 N 
ATOM     26  O   UNL     1      48.229   4.345  21.086  0.00  0.00    +0.000 OA
ATOM     27  H   UNL     1      51.225   4.856  20.207  0.00  0.00    +0.000 HD
ATOM     28  H   UNL     1      50.653   4.291  21.771  0.00  0.00    +0.000 HD
ENDBRANCH  21  24
ENDBRANCH  17  18
ENDBRANCH   2  16
TORSDOF 7
ENDMDL
MODEL 9
REMARK VINA RESULT:    -5.496      3.525      5.196
REMARK INTER + INTRA:          -8.769
REMARK INTER:                  -7.800
REMARK INTRA:                  -0.969
REMARK UNBOUND:                -1.024
REMARK  Name = 
REMARK  9 active torsions:
REMARK  status: ('A' for Active; 'I' for Inactive)
REMARK    1  A    between atoms: C_1  and  C_2
REMARK    2  A    between atoms: C_2  and  C_3
REMARK    3  A    between atoms: C_2  and  C_4
REMARK    4  A    between atoms: C_2  and  C_15
REMARK    5  A    between atoms: C_5  and  C_6
REMARK    6  A    between atoms: C_9  and  C_10
REMARK    7  A    between atoms: C_19  and  O_20
REMARK    8  A    between atoms: O_20  and  C_21
REMARK    9  A    between atoms: C_21  and  C_22
REMARK                            x       y       z     vdW  Elec       q    Type
REMARK                         _______ _______ _______ _____ _____    ______ ____
ROOT
ATOM      1  C   UNL     1      47.914   9.164  15.246  0.00  0.00    +0.000 C 
ATOM      2  C   UNL     1      48.317   8.158  14.141  0.00  0.00    +0.000 C 
ATOM      3  C   UNL     1      49.250   8.923  13.166  0.00  0.00    +0.000 C 
ENDROOT
BRANCH   2   4
ATOM      4  C   UNL     1      47.100   7.625  13.356  0.00  0.00    +0.000 A 
ATOM      5  C   UNL     1      46.257   8.467  12.608  0.00  0.00    +0.000 A 
ATOM      6  C   UNL     1      45.197   7.959  11.854  0.00  0.00    +0.000 A 
ATOM      7  C   UNL     1      44.960   6.591  11.813  0.00  0.00    +0.000 A 
ATOM      8  C   UNL     1      45.792   5.728  12.523  0.00  0.00    +0.000 A 
ATOM      9  C   UNL     1      46.822   6.244  13.318  0.00  0.00    +0.000 A 
BRANCH   8  10
ATOM     10  O   UNL     1      45.677   4.365  12.508  0.00  0.00    +0.000 OA
BRANCH  10  11
ATOM     11  C   UNL     1      44.893   3.835  11.427  0.00  0.00    +0.000 C 
BRANCH  11  12
ATOM     12  C   UNL     1      43.484   3.468  11.886  0.00  0.00    +0.000 C 
ATOM     13  F   UNL     1      42.550   4.362  11.500  0.00  0.00    +0.000 F 
ATOM     14  F   UNL     1      43.119   2.260  11.396  0.00  0.00    +0.000 F 
ATOM     15  F   UNL     1      43.429   3.383  13.238  0.00  0.00    +0.000 F 
ENDBRANCH  11  12
ENDBRANCH  10  11
ENDBRANCH   8  10
ENDBRANCH   2   4
BRANCH   2  16
ATOM     16  C   UNL     1      49.159   7.076  14.817  0.00  0.00    +0.000 C 
ATOM     17  C   UNL     1      49.201   6.738  16.117  0.00  0.00    +0.000 C 
BRANCH  17  18
ATOM     18  C   UNL     1      50.083   5.685  16.653  0.00  0.00    +0.000 A 
ATOM     19  C   UNL     1      51.446   5.885  16.905  0.00  0.00    +0.000 A 
ATOM     20  C   UNL     1      52.225   4.854  17.428  0.00  0.00    +0.000 A 
ATOM     21  C   UNL     1      51.608   3.644  17.710  0.00  0.00    +0.000 A 
ATOM     22  N   UNL     1      50.283   3.404  17.505  0.00  0.00    +0.000 NA
ATOM     23  C   UNL     1      49.563   4.433  16.984  0.00  0.00    +0.000 A 
BRANCH  21  24
ATOM     24  C   UNL     1      52.416   2.522  18.285  0.00  0.00    +0.000 C 
ATOM     25  N   UNL     1      51.899   1.269  18.098  0.00  0.00    +0.000 N 
ATOM     26  O   UNL     1      53.466   2.703  18.894  0.00  0.00    +0.000 OA
ATOM     27  H   UNL     1      51.024   1.162  17.599  0.00  0.00    +0.000 HD
ATOM     28  H   UNL     1      52.384   0.467  18.472  0.00  0.00    +0.000 HD
ENDBRANCH  21  24
ENDBRANCH  17  18
ENDBRANCH   2  16
TORSDOF 7
ENDMDL
