MODEL 1
REMARK VINA RESULT:    -8.060      0.000      0.000
REMARK INTER + INTRA:         -10.150
REMARK INTER:                  -9.710
REMARK INTRA:                  -0.441
REMARK UNBOUND:                -0.441
REMARK  Name = 
REMARK  4 active torsions:
REMARK  status: ('A' for Active; 'I' for Inactive)
REMARK    1  A    between atoms: N_1  and  C_2
REMARK    2  A    between atoms: C_2  and  C_3
REMARK    3  A    between atoms: C_6  and  C_7
REMARK    4  A    between atoms: C_7  and  N_8
REMARK                            x       y       z     vdW  Elec       q    Type
REMARK                         _______ _______ _______ _____ _____    ______ ____
ROOT
ATOM      1  C   UNL     1      43.868   4.603   9.490  0.00  0.00    +0.000 C 
ENDROOT
BRANCH   1   2
ATOM      2  N   UNL     1      44.050   4.525  10.936  0.00  0.00    +0.000 N 
ATOM      3  C   UNL     1      43.327   3.693  11.759  0.00  0.00    +0.000 A 
ATOM      4  C   UNL     1      43.923   3.696  12.998  0.00  0.00    +0.000 A 
ATOM      5  C   UNL     1      45.050   4.559  12.936  0.00  0.00    +0.000 A 
ATOM      6  C   UNL     1      46.045   4.924  13.864  0.00  0.00    +0.000 A 
ATOM      7  C   UNL     1      47.039   5.816  13.466  0.00  0.00    +0.000 A 
ATOM      8  F   UNL     1      47.998   6.156  14.339  0.00  0.00    +0.000 F 
ATOM      9  C   UNL     1      47.061   6.361  12.190  0.00  0.00    +0.000 A 
ATOM     10  C   UNL     1      46.084   6.013  11.253  0.00  0.00    +0.000 A 
ATOM     11  C   UNL     1      45.094   5.095  11.644  0.00  0.00    +0.000 A 
ENDBRANCH   1   2
BRANCH   1  15
ATOM     12  C   UNL     1      46.828   2.298   7.449  0.00  0.00    +0.000 A 
ATOM     13  C   UNL     1      45.934   1.655   8.308  0.00  0.00    +0.000 A 
ATOM     14  C   UNL     1      44.929   2.386   8.942  0.00  0.00    +0.000 A 
ATOM     15  C   UNL     1      44.849   3.759   8.717  0.00  0.00    +0.000 A 
ATOM     16  N   UNL     1      45.700   4.404   7.881  0.00  0.00    +0.000 NA
ATOM     17  C   UNL     1      46.654   3.663   7.265  0.00  0.00    +0.000 A 
BRANCH  12  18
ATOM     18  C   UNL     1      47.964   1.563   6.796  0.00  0.00    +0.000 C 
BRANCH  18  19
ATOM     19  N   UNL     1      48.389   2.204   5.557  0.00  0.00    +0.000 NA
ATOM     20  H   UNL     1      47.612   2.210   4.900  0.00  0.00    +0.000 HD
ATOM     21  H   UNL     1      49.123   1.643   5.126  0.00  0.00    +0.000 HD
ENDBRANCH  18  19
ENDBRANCH  12  18
ENDBRANCH   1  15
TORSDOF 4
ENDMDL
MODEL 2
REMARK VINA RESULT:    -7.612      1.621      2.068
REMARK INTER + INTRA:          -9.610
REMARK INTER:                  -9.198
REMARK INTRA:                  -0.412
REMARK UNBOUND:                -0.441
REMARK  Name = 
REMARK  4 active torsions:
REMARK  status: ('A' for Active; 'I' for Inactive)
REMARK    1  A    between atoms: N_1  and  C_2
REMARK    2  A    between atoms: C_2  and  C_3
REMARK    3  A    between atoms: C_6  and  C_7
REMARK    4  A    between atoms: C_7  and  N_8
REMARK                            x       y       z     vdW  Elec       q    Type
REMARK                         _______ _______ _______ _____ _____    ______ ____
ROOT
ATOM      1  C   UNL     1      44.255   3.079  10.475  0.00  0.00    +0.000 C 
ENDROOT
BRANCH   1   2
ATOM      2  N   UNL     1      44.895   3.737  11.609  0.00  0.00    +0.000 N 
ATOM      3  C   UNL     1      45.708   3.096  12.513  0.00  0.00    +0.000 A 
ATOM      4  C   UNL     1      46.326   4.052  13.284  0.00  0.00    +0.000 A 
ATOM      5  C   UNL     1      45.877   5.325  12.840  0.00  0.00    +0.000 A 
ATOM      6  C   UNL     1      46.182   6.647  13.217  0.00  0.00    +0.000 A 
ATOM      7  C   UNL     1      45.547   7.697  12.555  0.00  0.00    +0.000 A 
ATOM      8  F   UNL     1      45.844   8.959  12.898  0.00  0.00    +0.000 F 
ATOM      9  C   UNL     1      44.616   7.470  11.552  0.00  0.00    +0.000 A 
ATOM     10  C   UNL     1      44.298   6.166  11.162  0.00  0.00    +0.000 A 
ATOM     11  C   UNL     1      44.955   5.105  11.811  0.00  0.00    +0.000 A 
ENDBRANCH   1   2
BRANCH   1  15
ATOM     12  C   UNL     1      46.585   2.689   6.916  0.00  0.00    +0.000 A 
ATOM     13  C   UNL     1      46.085   3.944   7.272  0.00  0.00    +0.000 A 
ATOM     14  C   UNL     1      45.366   4.098   8.458  0.00  0.00    +0.000 A 
ATOM     15  C   UNL     1      45.144   2.981   9.261  0.00  0.00    +0.000 A 
ATOM     16  N   UNL     1      45.626   1.753   8.941  0.00  0.00    +0.000 NA
ATOM     17  C   UNL     1      46.337   1.641   7.792  0.00  0.00    +0.000 A 
BRANCH  12  18
ATOM     18  C   UNL     1      47.308   2.465   5.619  0.00  0.00    +0.000 C 
BRANCH  18  19
ATOM     19  N   UNL     1      48.558   1.739   5.808  0.00  0.00    +0.000 NA
ATOM     20  H   UNL     1      48.622   0.996   5.116  0.00  0.00    +0.000 HD
ATOM     21  H   UNL     1      48.543   1.280   6.718  0.00  0.00    +0.000 HD
ENDBRANCH  18  19
ENDBRANCH  12  18
ENDBRANCH   1  15
TORSDOF 4
ENDMDL
MODEL 3
REMARK VINA RESULT:    -6.599      3.095      6.127
REMARK INTER + INTRA:          -8.390
REMARK INTER:                  -8.041
REMARK INTRA:                  -0.349
REMARK UNBOUND:                -0.441
REMARK  Name = 
REMARK  4 active torsions:
REMARK  status: ('A' for Active; 'I' for Inactive)
REMARK    1  A    between atoms: N_1  and  C_2
REMARK    2  A    between atoms: C_2  and  C_3
REMARK    3  A    between atoms: C_6  and  C_7
REMARK    4  A    between atoms: C_7  and  N_8
REMARK                            x       y       z     vdW  Elec       q    Type
REMARK                         _______ _______ _______ _____ _____    ______ ____
ROOT
ATOM      1  C   UNL     1      43.764   6.038  11.129  0.00  0.00    +0.000 C 
ENDROOT
BRANCH   1   2
ATOM      2  N   UNL     1      44.062   4.626  10.916  0.00  0.00    +0.000 N 
ATOM      3  C   UNL     1      43.469   3.600  11.613  0.00  0.00    +0.000 A 
ATOM      4  C   UNL     1      43.795   2.418  10.990  0.00  0.00    +0.000 A 
ATOM      5  C   UNL     1      44.617   2.726   9.873  0.00  0.00    +0.000 A 
ATOM      6  C   UNL     1      45.213   1.948   8.862  0.00  0.00    +0.000 A 
ATOM      7  C   UNL     1      45.975   2.586   7.885  0.00  0.00    +0.000 A 
ATOM      8  F   UNL     1      46.533   1.854   6.910  0.00  0.00    +0.000 F 
ATOM      9  C   UNL     1      46.172   3.960   7.896  0.00  0.00    +0.000 A 
ATOM     10  C   UNL     1      45.590   4.752   8.890  0.00  0.00    +0.000 A 
ATOM     11  C   UNL     1      44.800   4.114   9.862  0.00  0.00    +0.000 A 
ENDBRANCH   1   2
BRANCH   1  15
ATOM     12  C   UNL     1      46.805   8.260  13.145  0.00  0.00    +0.000 A 
ATOM     13  C   UNL     1      46.813   6.866  13.221  0.00  0.00    +0.000 A 
ATOM     14  C   UNL     1      45.858   6.123  12.527  0.00  0.00    +0.000 A 
ATOM     15  C   UNL     1      44.894   6.797  11.778  0.00  0.00    +0.000 A 
ATOM     16  N   UNL     1      44.870   8.150  11.681  0.00  0.00    +0.000 NA
ATOM     17  C   UNL     1      45.824   8.841  12.352  0.00  0.00    +0.000 A 
BRANCH  12  18
ATOM     18  C   UNL     1      47.774   9.101  13.926  0.00  0.00    +0.000 C 
BRANCH  18  19
ATOM     19  N   UNL     1      47.525   9.033  15.360  0.00  0.00    +0.000 NA
ATOM     20  H   UNL     1      47.213   8.094  15.602  0.00  0.00    +0.000 HD
ATOM     21  H   UNL     1      46.754   9.658  15.595  0.00  0.00    +0.000 HD
ENDBRANCH  18  19
ENDBRANCH  12  18
ENDBRANCH   1  15
TORSDOF 4
ENDMDL
MODEL 4
REMARK VINA RESULT:    -6.550      3.216      5.821
REMARK INTER + INTRA:          -8.331
REMARK INTER:                  -8.008
REMARK INTRA:                  -0.323
REMARK UNBOUND:                -0.441
REMARK  Name = 
REMARK  4 active torsions:
REMARK  status: ('A' for Active; 'I' for Inactive)
REMARK    1  A    between atoms: N_1  and  C_2
REMARK    2  A    between atoms: C_2  and  C_3
REMARK    3  A    between atoms: C_6  and  C_7
REMARK    4  A    between atoms: C_7  and  N_8
REMARK                            x       y       z     vdW  Elec       q    Type
REMARK                         _______ _______ _______ _____ _____    ______ ____
ROOT
ATOM      1  C   UNL     1      44.076   5.856  12.634  0.00  0.00    +0.000 C 
ENDROOT
BRANCH   1   2
ATOM      2  N   UNL     1      44.103   4.560  11.964  0.00  0.00    +0.000 N 
ATOM      3  C   UNL     1      43.424   3.449  12.408  0.00  0.00    +0.000 A 
ATOM      4  C   UNL     1      43.472   2.497  11.418  0.00  0.00    +0.000 A 
ATOM      5  C   UNL     1      44.205   3.038  10.328  0.00  0.00    +0.000 A 
ATOM      6  C   UNL     1      44.543   2.554   9.050  0.00  0.00    +0.000 A 
ATOM      7  C   UNL     1      45.291   3.368   8.200  0.00  0.00    +0.000 A 
ATOM      8  F   UNL     1      45.604   2.920   6.975  0.00  0.00    +0.000 F 
ATOM      9  C   UNL     1      45.719   4.629   8.588  0.00  0.00    +0.000 A 
ATOM     10  C   UNL     1      45.395   5.130   9.852  0.00  0.00    +0.000 A 
ATOM     11  C   UNL     1      44.620   4.321  10.703  0.00  0.00    +0.000 A 
ENDBRANCH   1   2
BRANCH   1  15
ATOM     12  C   UNL     1      48.051   7.317  13.191  0.00  0.00    +0.000 A 
ATOM     13  C   UNL     1      47.101   8.136  12.577  0.00  0.00    +0.000 A 
ATOM     14  C   UNL     1      45.786   7.694  12.434  0.00  0.00    +0.000 A 
ATOM     15  C   UNL     1      45.448   6.423  12.895  0.00  0.00    +0.000 A 
ATOM     16  N   UNL     1      46.350   5.612  13.504  0.00  0.00    +0.000 NA
ATOM     17  C   UNL     1      47.615   6.079  13.645  0.00  0.00    +0.000 A 
BRANCH  12  18
ATOM     18  C   UNL     1      49.491   7.726  13.310  0.00  0.00    +0.000 C 
BRANCH  18  19
ATOM     19  N   UNL     1      50.168   7.037  14.402  0.00  0.00    +0.000 NA
ATOM     20  H   UNL     1      49.559   6.306  14.764  0.00  0.00    +0.000 HD
ATOM     21  H   UNL     1      50.314   7.692  15.169  0.00  0.00    +0.000 HD
ENDBRANCH  18  19
ENDBRANCH  12  18
ENDBRANCH   1  15
TORSDOF 4
ENDMDL
MODEL 5
REMARK VINA RESULT:    -5.847      3.496      6.221
REMARK INTER + INTRA:          -7.485
REMARK INTER:                  -7.022
REMARK INTRA:                  -0.462
REMARK UNBOUND:                -0.441
REMARK  Name = 
REMARK  4 active torsions:
REMARK  status: ('A' for Active; 'I' for Inactive)
REMARK    1  A    between atoms: N_1  and  C_2
REMARK    2  A    between atoms: C_2  and  C_3
REMARK    3  A    between atoms: C_6  and  C_7
REMARK    4  A    between atoms: C_7  and  N_8
REMARK                            x       y       z     vdW  Elec       q    Type
REMARK                         _______ _______ _______ _____ _____    ______ ____
ROOT
ATOM      1  C   UNL     1      45.555   7.431  11.781  0.00  0.00    +0.000 C 
ENDROOT
BRANCH   1   2
ATOM      2  N   UNL     1      45.108   6.050  11.931  0.00  0.00    +0.000 N 
ATOM      3  C   UNL     1      44.489   5.559  13.056  0.00  0.00    +0.000 A 
ATOM      4  C   UNL     1      43.990   4.313  12.758  0.00  0.00    +0.000 A 
ATOM      5  C   UNL     1      44.313   4.027  11.405  0.00  0.00    +0.000 A 
ATOM      6  C   UNL     1      44.040   2.941  10.550  0.00  0.00    +0.000 A 
ATOM      7  C   UNL     1      44.514   2.983   9.240  0.00  0.00    +0.000 A 
ATOM      8  F   UNL     1      44.244   1.960   8.416  0.00  0.00    +0.000 F 
ATOM      9  C   UNL     1      45.257   4.054   8.767  0.00  0.00    +0.000 A 
ATOM     10  C   UNL     1      45.541   5.142   9.598  0.00  0.00    +0.000 A 
ATOM     11  C   UNL     1      45.043   5.115  10.913  0.00  0.00    +0.000 A 
ENDBRANCH   1   2
BRANCH   1  15
ATOM     12  C   UNL     1      49.379   7.966  13.609  0.00  0.00    +0.000 A 
ATOM     13  C   UNL     1      49.300   7.365  12.350  0.00  0.00    +0.000 A 
ATOM     14  C   UNL     1      48.065   7.230  11.717  0.00  0.00    +0.000 A 
ATOM     15  C   UNL     1      46.920   7.685  12.369  0.00  0.00    +0.000 A 
ATOM     16  N   UNL     1      46.971   8.280  13.588  0.00  0.00    +0.000 NA
ATOM     17  C   UNL     1      48.189   8.414  14.167  0.00  0.00    +0.000 A 
BRANCH  12  18
ATOM     18  C   UNL     1      50.678   8.075  14.354  0.00  0.00    +0.000 C 
BRANCH  18  19
ATOM     19  N   UNL     1      50.900   6.936  15.237  0.00  0.00    +0.000 NA
ATOM     20  H   UNL     1      51.768   7.076  15.750  0.00  0.00    +0.000 HD
ATOM     21  H   UNL     1      51.034   6.098  14.673  0.00  0.00    +0.000 HD
ENDBRANCH  18  19
ENDBRANCH  12  18
ENDBRANCH   1  15
TORSDOF 4
ENDMDL
MODEL 6
REMARK VINA RESULT:    -5.629      2.799      4.497
REMARK INTER + INTRA:          -7.222
REMARK INTER:                  -6.929
REMARK INTRA:                  -0.292
REMARK UNBOUND:                -0.441
REMARK  Name = 
REMARK  4 active torsions:
REMARK  status: ('A' for Active; 'I' for Inactive)
REMARK    1  A    between atoms: N_1  and  C_2
REMARK    2  A    between atoms: C_2  and  C_3
REMARK    3  A    between atoms: C_6  and  C_7
REMARK    4  A    between atoms: C_7  and  N_8
REMARK                            x       y       z     vdW  Elec       q    Type
REMARK                         _______ _______ _______ _____ _____    ______ ____
ROOT
ATOM      1  C   UNL     1      45.562   6.415  12.917  0.00  0.00    +0.000 C 
ENDROOT
BRANCH   1   2
ATOM      2  N   UNL     1      46.048   7.694  12.412  0.00  0.00    +0.000 N 
ATOM      3  C   UNL     1      45.278   8.829  12.321  0.00  0.00    +0.000 A 
ATOM      4  C   UNL     1      46.110   9.888  12.045  0.00  0.00    +0.000 A 
ATOM      5  C   UNL     1      47.438   9.389  11.962  0.00  0.00    +0.000 A 
ATOM      6  C   UNL     1      48.691   9.993  11.744  0.00  0.00    +0.000 A 
ATOM      7  C   UNL     1      49.829   9.190  11.727  0.00  0.00    +0.000 A 
ATOM      8  F   UNL     1      51.028   9.760  11.536  0.00  0.00    +0.000 F 
ATOM      9  C   UNL     1      49.755   7.816  11.903  0.00  0.00    +0.000 A 
ATOM     10  C   UNL     1      48.522   7.194  12.120  0.00  0.00    +0.000 A 
ATOM     11  C   UNL     1      47.374   8.005  12.162  0.00  0.00    +0.000 A 
ENDBRANCH   1   2
BRANCH   1  15
ATOM     12  C   UNL     1      44.905   3.446   9.916  0.00  0.00    +0.000 A 
ATOM     13  C   UNL     1      45.257   4.742   9.531  0.00  0.00    +0.000 A 
ATOM     14  C   UNL     1      45.526   5.709  10.500  0.00  0.00    +0.000 A 
ATOM     15  C   UNL     1      45.417   5.364  11.846  0.00  0.00    +0.000 A 
ATOM     16  N   UNL     1      45.085   4.110  12.245  0.00  0.00    +0.000 NA
ATOM     17  C   UNL     1      44.850   3.188  11.279  0.00  0.00    +0.000 A 
BRANCH  12  18
ATOM     18  C   UNL     1      44.546   2.392   8.909  0.00  0.00    +0.000 C 
BRANCH  18  19
ATOM     19  N   UNL     1      45.550   1.337   8.840  0.00  0.00    +0.000 NA
ATOM     20  H   UNL     1      45.974   1.219   9.759  0.00  0.00    +0.000 HD
ATOM     21  H   UNL     1      46.300   1.631   8.216  0.00  0.00    +0.000 HD
ENDBRANCH  18  19
ENDBRANCH  12  18
ENDBRANCH   1  15
TORSDOF 4
ENDMDL
MODEL 7
REMARK VINA RESULT:    -5.583      4.990      7.707
REMARK INTER + INTRA:          -7.166
REMARK INTER:                  -7.094
REMARK INTRA:                  -0.072
REMARK UNBOUND:                -0.441
REMARK  Name = 
REMARK  4 active torsions:
REMARK  status: ('A' for Active; 'I' for Inactive)
REMARK    1  A    between atoms: N_1  and  C_2
REMARK    2  A    between atoms: C_2  and  C_3
REMARK    3  A    between atoms: C_6  and  C_7
REMARK    4  A    between atoms: C_7  and  N_8
REMARK                            x       y       z     vdW  Elec       q    Type
REMARK                         _______ _______ _______ _____ _____    ______ ____
ROOT
ATOM      1  C   UNL     1      47.161   4.168  16.242  0.00  0.00    +0.000 C 
ENDROOT
BRANCH   1   2
ATOM      2  N   UNL     1      47.405   5.207  15.248  0.00  0.00    +0.000 N 
ATOM      3  C   UNL     1      48.436   6.115  15.320  0.00  0.00    +0.000 A 
ATOM      4  C   UNL     1      48.511   6.770  14.113  0.00  0.00    +0.000 A 
ATOM      5  C   UNL     1      47.492   6.250  13.271  0.00  0.00    +0.000 A 
ATOM      6  C   UNL     1      47.112   6.501  11.938  0.00  0.00    +0.000 A 
ATOM      7  C   UNL     1      46.039   5.792  11.401  0.00  0.00    +0.000 A 
ATOM      8  F   UNL     1      45.682   6.014  10.128  0.00  0.00    +0.000 F 
ATOM      9  C   UNL     1      45.331   4.863  12.150  0.00  0.00    +0.000 A 
ATOM     10  C   UNL     1      45.690   4.599  13.475  0.00  0.00    +0.000 A 
ATOM     11  C   UNL     1      46.788   5.294  14.012  0.00  0.00    +0.000 A 
ENDBRANCH   1   2
BRANCH   1  15
ATOM     12  C   UNL     1      50.842   2.334  17.398  0.00  0.00    +0.000 A 
ATOM     13  C   UNL     1      50.439   3.515  18.026  0.00  0.00    +0.000 A 
ATOM     14  C   UNL     1      49.216   4.098  17.697  0.00  0.00    +0.000 A 
ATOM     15  C   UNL     1      48.421   3.494  16.724  0.00  0.00    +0.000 A 
ATOM     16  N   UNL     1      48.785   2.343  16.106  0.00  0.00    +0.000 NA
ATOM     17  C   UNL     1      49.971   1.790  16.463  0.00  0.00    +0.000 A 
BRANCH  12  18
ATOM     18  C   UNL     1      52.178   1.706  17.675  0.00  0.00    +0.000 C 
BRANCH  18  19
ATOM     19  N   UNL     1      52.051   0.325  18.123  0.00  0.00    +0.000 NA
ATOM     20  H   UNL     1      51.681   0.314  19.072  0.00  0.00    +0.000 HD
ATOM     21  H   UNL     1      52.977  -0.096  18.174  0.00  0.00    +0.000 HD
ENDBRANCH  18  19
ENDBRANCH  12  18
ENDBRANCH   1  15
TORSDOF 4
ENDMDL
MODEL 8
REMARK VINA RESULT:    -5.575      4.498      7.715
REMARK INTER + INTRA:          -7.157
REMARK INTER:                  -6.825
REMARK INTRA:                  -0.331
REMARK UNBOUND:                -0.441
REMARK  Name = 
REMARK  4 active torsions:
REMARK  status: ('A' for Active; 'I' for Inactive)
REMARK    1  A    between atoms: N_1  and  C_2
REMARK    2  A    between atoms: C_2  and  C_3
REMARK    3  A    between atoms: C_6  and  C_7
REMARK    4  A    between atoms: C_7  and  N_8
REMARK                            x       y       z     vdW  Elec       q    Type
REMARK                         _______ _______ _______ _____ _____    ______ ____
ROOT
ATOM      1  C   UNL     1      47.155   3.491  14.228  0.00  0.00    +0.000 C 
ENDROOT
BRANCH   1   2
ATOM      2  N   UNL     1      46.813   4.759  13.592  0.00  0.00    +0.000 N 
ATOM      3  C   UNL     1      47.735   5.715  13.235  0.00  0.00    +0.000 A 
ATOM      4  C   UNL     1      47.099   6.646  12.448  0.00  0.00    +0.000 A 
ATOM      5  C   UNL     1      45.740   6.252  12.317  0.00  0.00    +0.000 A 
ATOM      6  C   UNL     1      44.639   6.780  11.616  0.00  0.00    +0.000 A 
ATOM      7  C   UNL     1      43.413   6.124  11.700  0.00  0.00    +0.000 A 
ATOM      8  F   UNL     1      42.363   6.612  11.022  0.00  0.00    +0.000 F 
ATOM      9  C   UNL     1      43.249   4.979  12.467  0.00  0.00    +0.000 A 
ATOM     10  C   UNL     1      44.328   4.437  13.171  0.00  0.00    +0.000 A 
ATOM     11  C   UNL     1      45.573   5.083  13.068  0.00  0.00    +0.000 A 
ENDBRANCH   1   2
BRANCH   1  15
ATOM     12  C   UNL     1      48.532   4.015  18.238  0.00  0.00    +0.000 A 
ATOM     13  C   UNL     1      47.516   4.840  17.750  0.00  0.00    +0.000 A 
ATOM     14  C   UNL     1      47.020   4.649  16.461  0.00  0.00    +0.000 A 
ATOM     15  C   UNL     1      47.566   3.639  15.671  0.00  0.00    +0.000 A 
ATOM     16  N   UNL     1      48.547   2.818  16.125  0.00  0.00    +0.000 NA
ATOM     17  C   UNL     1      48.994   3.018  17.390  0.00  0.00    +0.000 A 
BRANCH  12  18
ATOM     18  C   UNL     1      49.139   4.225  19.595  0.00  0.00    +0.000 C 
BRANCH  18  19
ATOM     19  N   UNL     1      48.297   3.695  20.660  0.00  0.00    +0.000 NA
ATOM     20  H   UNL     1      48.887   3.381  21.428  0.00  0.00    +0.000 HD
ATOM     21  H   UNL     1      47.810   2.867  20.319  0.00  0.00    +0.000 HD
ENDBRANCH  18  19
ENDBRANCH  12  18
ENDBRANCH   1  15
TORSDOF 4
ENDMDL
MODEL 9
REMARK VINA RESULT:    -5.230      4.361      7.883
REMARK INTER + INTRA:          -6.740
REMARK INTER:                  -6.346
REMARK INTRA:                  -0.394
REMARK UNBOUND:                -0.441
REMARK  Name = 
REMARK  4 active torsions:
REMARK  status: ('A' for Active; 'I' for Inactive)
REMARK    1  A    between atoms: N_1  and  C_2
REMARK    2  A    between atoms: C_2  and  C_3
REMARK    3  A    between atoms: C_6  and  C_7
REMARK    4  A    between atoms: C_7  and  N_8
REMARK                            x       y       z     vdW  Elec       q    Type
REMARK                         _______ _______ _______ _____ _____    ______ ____
ROOT
ATOM      1  C   UNL     1      48.665   6.696  14.130  0.00  0.00    +0.000 C 
ENDROOT
BRANCH   1   2
ATOM      2  N   UNL     1      47.391   7.214  13.645  0.00  0.00    +0.000 N 
ATOM      3  C   UNL     1      47.060   8.549  13.624  0.00  0.00    +0.000 A 
ATOM      4  C   UNL     1      45.910   8.691  12.885  0.00  0.00    +0.000 A 
ATOM      5  C   UNL     1      45.517   7.401  12.437  0.00  0.00    +0.000 A 
ATOM      6  C   UNL     1      44.463   6.933  11.630  0.00  0.00    +0.000 A 
ATOM      7  C   UNL     1      44.369   5.566  11.375  0.00  0.00    +0.000 A 
ATOM      8  F   UNL     1      43.376   5.114  10.594  0.00  0.00    +0.000 F 
ATOM      9  C   UNL     1      45.274   4.661  11.909  0.00  0.00    +0.000 A 
ATOM     10  C   UNL     1      46.328   5.103  12.713  0.00  0.00    +0.000 A 
ATOM     11  C   UNL     1      46.441   6.484  12.952  0.00  0.00    +0.000 A 
ENDBRANCH   1   2
BRANCH   1  15
ATOM     12  C   UNL     1      48.723   5.222  18.139  0.00  0.00    +0.000 A 
ATOM     13  C   UNL     1      49.087   6.548  17.893  0.00  0.00    +0.000 A 
ATOM     14  C   UNL     1      49.024   7.060  16.596  0.00  0.00    +0.000 A 
ATOM     15  C   UNL     1      48.613   6.223  15.561  0.00  0.00    +0.000 A 
ATOM     16  N   UNL     1      48.246   4.934  15.776  0.00  0.00    +0.000 NA
ATOM     17  C   UNL     1      48.300   4.473  17.050  0.00  0.00    +0.000 A 
BRANCH  12  18
ATOM     18  C   UNL     1      48.836   4.612  19.507  0.00  0.00    +0.000 C 
BRANCH  18  19
ATOM     19  N   UNL     1      48.276   3.267  19.554  0.00  0.00    +0.000 NA
ATOM     20  H   UNL     1      49.008   2.609  19.812  0.00  0.00    +0.000 HD
ATOM     21  H   UNL     1      47.970   3.000  18.619  0.00  0.00    +0.000 HD
ENDBRANCH  18  19
ENDBRANCH  12  18
ENDBRANCH   1  15
TORSDOF 4
ENDMDL
