MODEL 1
REMARK VINA RESULT:    -9.275      0.000      0.000
REMARK INTER + INTRA:         -11.367
REMARK INTER:                 -11.444
REMARK INTRA:                   0.076
REMARK UNBOUND:                 0.076
REMARK  Name = 
REMARK  5 active torsions:
REMARK  status: ('A' for Active; 'I' for Inactive)
REMARK    1  A    between atoms: C_1  and  C_2
REMARK    2  A    between atoms: N_5  and  C_6
REMARK    3  A    between atoms: C_6  and  C_7
REMARK    4  A    between atoms: C_11  and  C_12
REMARK    5  A    between atoms: C_23  and  C_24
REMARK                            x       y       z     vdW  Elec       q    Type
REMARK                         _______ _______ _______ _____ _____    ______ ____
ROOT
ATOM      1  C   UNL     1      43.578   3.821  11.391  0.00  0.00    +0.000 C 
ENDROOT
BRANCH   1   6
ATOM      2  C   UNL     1      46.824   0.259   7.659  0.00  0.00    +0.000 C 
ATOM      3  C   UNL     1      46.269   1.602   8.039  0.00  0.00    +0.000 A 
ATOM      4  N   UNL     1      45.518   1.612   9.185  0.00  0.00    +0.000 NA
ATOM      5  C   UNL     1      44.966   2.767   9.609  0.00  0.00    +0.000 A 
ATOM      6  N   UNL     1      44.215   2.687  10.748  0.00  0.00    +0.000 N 
ATOM      7  C   UNL     1      45.156   3.944   8.900  0.00  0.00    +0.000 A 
ATOM      8  C   UNL     1      45.916   3.940   7.732  0.00  0.00    +0.000 A 
ATOM      9  C   UNL     1      46.479   2.749   7.273  0.00  0.00    +0.000 A 
ATOM     10  H   UNL     1      44.202   1.778  11.196  0.00  0.00    +0.000 HD
BRANCH   9  11
ATOM     11  C   UNL     1      47.289   2.738   6.025  0.00  0.00    +0.000 C 
ATOM     12  N   UNL     1      48.646   2.593   6.156  0.00  0.00    +0.000 N 
ATOM     13  O   UNL     1      46.797   2.860   4.913  0.00  0.00    +0.000 OA
ATOM     14  H   UNL     1      49.138   2.663   7.035  0.00  0.00    +0.000 HD
ATOM     15  H   UNL     1      49.190   2.657   5.305  0.00  0.00    +0.000 HD
ENDBRANCH   9  11
ENDBRANCH   1   6
BRANCH   1  16
ATOM     16  C   UNL     1      44.547   4.933  11.760  0.00  0.00    +0.000 A 
ATOM     17  N   UNL     1      44.499   6.068  11.036  0.00  0.00    +0.000 NA
ATOM     18  C   UNL     1      45.328   7.053  11.415  0.00  0.00    +0.000 A 
ATOM     19  C   UNL     1      46.193   6.950  12.477  0.00  0.00    +0.000 A 
ATOM     20  C   UNL     1      46.184   5.754  13.172  0.00  0.00    +0.000 A 
ATOM     21  N   UNL     1      45.370   4.735  12.812  0.00  0.00    +0.000 NA
BRANCH  20  22
ATOM     22  C   UNL     1      47.040   5.507  14.353  0.00  0.00    +0.000 A 
ATOM     23  C   UNL     1      48.112   6.365  14.663  0.00  0.00    +0.000 A 
ATOM     24  C   UNL     1      48.926   6.145  15.781  0.00  0.00    +0.000 A 
ATOM     25  C   UNL     1      48.691   5.052  16.614  0.00  0.00    +0.000 A 
ATOM     26 CL   UNL     1      49.728   4.835  17.978  0.00  0.00    +0.000 Cl
ATOM     27  C   UNL     1      47.643   4.178  16.323  0.00  0.00    +0.000 A 
ATOM     28 CL   UNL     1      47.288   2.796  17.298  0.00  0.00    +0.000 Cl
ATOM     29  C   UNL     1      46.831   4.405  15.204  0.00  0.00    +0.000 A 
ENDBRANCH  20  22
ENDBRANCH   1  16
TORSDOF 4
ENDMDL
MODEL 2
REMARK VINA RESULT:    -9.267      3.119      4.009
REMARK INTER + INTRA:         -11.358
REMARK INTER:                 -10.815
REMARK INTRA:                  -0.543
REMARK UNBOUND:                 0.076
REMARK  Name = 
REMARK  5 active torsions:
REMARK  status: ('A' for Active; 'I' for Inactive)
REMARK    1  A    between atoms: C_1  and  C_2
REMARK    2  A    between atoms: N_5  and  C_6
REMARK    3  A    between atoms: C_6  and  C_7
REMARK    4  A    between atoms: C_11  and  C_12
REMARK    5  A    between atoms: C_23  and  C_24
REMARK                            x       y       z     vdW  Elec       q    Type
REMARK                         _______ _______ _______ _____ _____    ______ ____
ROOT
ATOM      1  C   UNL     1      44.109   4.147  11.463  0.00  0.00    +0.000 C 
ENDROOT
BRANCH   1   6
ATOM      2  C   UNL     1      46.641   0.200   7.570  0.00  0.00    +0.000 C 
ATOM      3  C   UNL     1      46.280   1.602   7.971  0.00  0.00    +0.000 A 
ATOM      4  N   UNL     1      45.614   1.709   9.162  0.00  0.00    +0.000 NA
ATOM      5  C   UNL     1      45.237   2.924   9.607  0.00  0.00    +0.000 A 
ATOM      6  N   UNL     1      44.558   2.941  10.794  0.00  0.00    +0.000 N 
ATOM      7  C   UNL     1      45.522   4.066   8.875  0.00  0.00    +0.000 A 
ATOM      8  C   UNL     1      46.198   3.965   7.660  0.00  0.00    +0.000 A 
ATOM      9  C   UNL     1      46.580   2.712   7.179  0.00  0.00    +0.000 A 
ATOM     10  H   UNL     1      44.463   2.043  11.252  0.00  0.00    +0.000 HD
BRANCH   9  11
ATOM     11  C   UNL     1      47.298   2.596   5.881  0.00  0.00    +0.000 C 
ATOM     12  N   UNL     1      48.625   2.254   5.925  0.00  0.00    +0.000 N 
ATOM     13  O   UNL     1      46.759   2.801   4.803  0.00  0.00    +0.000 OA
ATOM     14  H   UNL     1      49.176   2.242   6.771  0.00  0.00    +0.000 HD
ATOM     15  H   UNL     1      49.118   2.248   5.041  0.00  0.00    +0.000 HD
ENDBRANCH   9  11
ENDBRANCH   1   6
BRANCH   1  16
ATOM     16  C   UNL     1      45.152   4.753  12.388  0.00  0.00    +0.000 A 
ATOM     17  N   UNL     1      45.470   4.068  13.504  0.00  0.00    +0.000 NA
ATOM     18  C   UNL     1      46.431   4.599  14.276  0.00  0.00    +0.000 A 
ATOM     19  C   UNL     1      47.080   5.772  13.980  0.00  0.00    +0.000 A 
ATOM     20  C   UNL     1      46.700   6.417  12.817  0.00  0.00    +0.000 A 
ATOM     21  N   UNL     1      45.727   5.918  12.020  0.00  0.00    +0.000 NA
BRANCH  20  22
ATOM     22  C   UNL     1      47.329   7.674  12.356  0.00  0.00    +0.000 A 
ATOM     23  C   UNL     1      48.704   7.733  12.066  0.00  0.00    +0.000 A 
ATOM     24  C   UNL     1      49.310   8.915  11.623  0.00  0.00    +0.000 A 
ATOM     25  C   UNL     1      48.551  10.074  11.466  0.00  0.00    +0.000 A 
ATOM     26 CL   UNL     1      49.354  11.500  10.915  0.00  0.00    +0.000 Cl
ATOM     27  C   UNL     1      47.187  10.048  11.758  0.00  0.00    +0.000 A 
ATOM     28 CL   UNL     1      46.176  11.441  11.600  0.00  0.00    +0.000 Cl
ATOM     29  C   UNL     1      46.587   8.861  12.200  0.00  0.00    +0.000 A 
ENDBRANCH  20  22
ENDBRANCH   1  16
TORSDOF 4
ENDMDL
MODEL 3
REMARK VINA RESULT:    -8.832      4.482      7.642
REMARK INTER + INTRA:         -10.822
REMARK INTER:                 -10.136
REMARK INTRA:                  -0.685
REMARK UNBOUND:                 0.076
REMARK  Name = 
REMARK  5 active torsions:
REMARK  status: ('A' for Active; 'I' for Inactive)
REMARK    1  A    between atoms: C_1  and  C_2
REMARK    2  A    between atoms: N_5  and  C_6
REMARK    3  A    between atoms: C_6  and  C_7
REMARK    4  A    between atoms: C_11  and  C_12
REMARK    5  A    between atoms: C_23  and  C_24
REMARK                            x       y       z     vdW  Elec       q    Type
REMARK                         _______ _______ _______ _____ _____    ______ ____
ROOT
ATOM      1  C   UNL     1      44.976   6.765  12.699  0.00  0.00    +0.000 C 
ENDROOT
BRANCH   1   6
ATOM      2  C   UNL     1      50.560   7.337  15.074  0.00  0.00    +0.000 C 
ATOM      3  C   UNL     1      49.585   7.532  13.948  0.00  0.00    +0.000 A 
ATOM      4  N   UNL     1      48.318   7.074  14.195  0.00  0.00    +0.000 NA
ATOM      5  C   UNL     1      47.370   7.193  13.245  0.00  0.00    +0.000 A 
ATOM      6  N   UNL     1      46.138   6.693  13.564  0.00  0.00    +0.000 N 
ATOM      7  C   UNL     1      47.662   7.780  12.023  0.00  0.00    +0.000 A 
ATOM      8  C   UNL     1      48.950   8.246  11.763  0.00  0.00    +0.000 A 
ATOM      9  C   UNL     1      49.946   8.114  12.732  0.00  0.00    +0.000 A 
ATOM     10  H   UNL     1      46.045   6.339  14.508  0.00  0.00    +0.000 HD
BRANCH   9  11
ATOM     11  C   UNL     1      51.323   8.606  12.460  0.00  0.00    +0.000 C 
ATOM     12  N   UNL     1      52.194   7.737  11.855  0.00  0.00    +0.000 N 
ATOM     13  O   UNL     1      51.698   9.730  12.760  0.00  0.00    +0.000 OA
ATOM     14  H   UNL     1      52.015   6.750  11.739  0.00  0.00    +0.000 HD
ATOM     15  H   UNL     1      53.146   8.060  11.740  0.00  0.00    +0.000 HD
ENDBRANCH   9  11
ENDBRANCH   1   6
BRANCH   1  16
ATOM     16  C   UNL     1      44.556   5.418  12.132  0.00  0.00    +0.000 A 
ATOM     17  N   UNL     1      43.555   4.764  12.753  0.00  0.00    +0.000 NA
ATOM     18  C   UNL     1      43.169   3.603  12.202  0.00  0.00    +0.000 A 
ATOM     19  C   UNL     1      43.737   3.076  11.068  0.00  0.00    +0.000 A 
ATOM     20  C   UNL     1      44.758   3.805  10.487  0.00  0.00    +0.000 A 
ATOM     21  N   UNL     1      45.182   4.974  11.021  0.00  0.00    +0.000 NA
BRANCH  20  22
ATOM     22  C   UNL     1      45.445   3.377   9.249  0.00  0.00    +0.000 A 
ATOM     23  C   UNL     1      45.824   4.314   8.270  0.00  0.00    +0.000 A 
ATOM     24  C   UNL     1      46.480   3.922   7.096  0.00  0.00    +0.000 A 
ATOM     25  C   UNL     1      46.766   2.577   6.869  0.00  0.00    +0.000 A 
ATOM     26 CL   UNL     1      47.578   2.157   5.405  0.00  0.00    +0.000 Cl
ATOM     27  C   UNL     1      46.390   1.625   7.818  0.00  0.00    +0.000 A 
ATOM     28 CL   UNL     1      46.698  -0.063   7.612  0.00  0.00    +0.000 Cl
ATOM     29  C   UNL     1      45.735   2.024   8.991  0.00  0.00    +0.000 A 
ENDBRANCH  20  22
ENDBRANCH   1  16
TORSDOF 4
ENDMDL
MODEL 4
REMARK VINA RESULT:    -8.319      4.272      7.573
REMARK INTER + INTRA:         -10.189
REMARK INTER:                  -9.673
REMARK INTRA:                  -0.516
REMARK UNBOUND:                 0.076
REMARK  Name = 
REMARK  5 active torsions:
REMARK  status: ('A' for Active; 'I' for Inactive)
REMARK    1  A    between atoms: C_1  and  C_2
REMARK    2  A    between atoms: N_5  and  C_6
REMARK    3  A    between atoms: C_6  and  C_7
REMARK    4  A    between atoms: C_11  and  C_12
REMARK    5  A    between atoms: C_23  and  C_24
REMARK                            x       y       z     vdW  Elec       q    Type
REMARK                         _______ _______ _______ _____ _____    ______ ____
ROOT
ATOM      1  C   UNL     1      45.662   4.489  13.918  0.00  0.00    +0.000 C 
ENDROOT
BRANCH   1   6
ATOM      2  C   UNL     1      50.412   8.162  12.874  0.00  0.00    +0.000 C 
ATOM      3  C   UNL     1      48.933   7.922  12.965  0.00  0.00    +0.000 A 
ATOM      4  N   UNL     1      48.574   6.644  13.301  0.00  0.00    +0.000 NA
ATOM      5  C   UNL     1      47.269   6.323  13.400  0.00  0.00    +0.000 A 
ATOM      6  N   UNL     1      46.997   5.022  13.720  0.00  0.00    +0.000 N 
ATOM      7  C   UNL     1      46.286   7.274  13.172  0.00  0.00    +0.000 A 
ATOM      8  C   UNL     1      46.643   8.577  12.827  0.00  0.00    +0.000 A 
ATOM      9  C   UNL     1      47.990   8.919  12.704  0.00  0.00    +0.000 A 
ATOM     10  H   UNL     1      47.806   4.444  13.913  0.00  0.00    +0.000 HD
BRANCH   9  11
ATOM     11  C   UNL     1      48.379  10.306  12.332  0.00  0.00    +0.000 C 
ATOM     12  N   UNL     1      48.356  11.253  13.323  0.00  0.00    +0.000 N 
ATOM     13  O   UNL     1      48.699  10.624  11.196  0.00  0.00    +0.000 OA
ATOM     14  H   UNL     1      47.940  11.108  14.232  0.00  0.00    +0.000 HD
ATOM     15  H   UNL     1      48.555  12.205  13.042  0.00  0.00    +0.000 HD
ENDBRANCH   9  11
ENDBRANCH   1   6
BRANCH   1  16
ATOM     16  C   UNL     1      44.843   4.411  12.640  0.00  0.00    +0.000 A 
ATOM     17  N   UNL     1      43.567   4.841  12.689  0.00  0.00    +0.000 NA
ATOM     18  C   UNL     1      42.882   4.810  11.535  0.00  0.00    +0.000 A 
ATOM     19  C   UNL     1      43.416   4.373  10.348  0.00  0.00    +0.000 A 
ATOM     20  C   UNL     1      44.731   3.948  10.376  0.00  0.00    +0.000 A 
ATOM     21  N   UNL     1      45.450   3.954  11.523  0.00  0.00    +0.000 NA
BRANCH  20  22
ATOM     22  C   UNL     1      45.448   3.476   9.171  0.00  0.00    +0.000 A 
ATOM     23  C   UNL     1      45.877   4.380   8.183  0.00  0.00    +0.000 A 
ATOM     24  C   UNL     1      46.561   3.946   7.041  0.00  0.00    +0.000 A 
ATOM     25  C   UNL     1      46.826   2.590   6.856  0.00  0.00    +0.000 A 
ATOM     26 CL   UNL     1      47.674   2.117   5.428  0.00  0.00    +0.000 Cl
ATOM     27  C   UNL     1      46.401   1.669   7.815  0.00  0.00    +0.000 A 
ATOM     28 CL   UNL     1      46.680  -0.029   7.660  0.00  0.00    +0.000 Cl
ATOM     29  C   UNL     1      45.718   2.111   8.956  0.00  0.00    +0.000 A 
ENDBRANCH  20  22
ENDBRANCH   1  16
TORSDOF 4
ENDMDL
MODEL 5
REMARK VINA RESULT:    -8.240      4.642      8.545
REMARK INTER + INTRA:         -10.091
REMARK INTER:                  -9.591
REMARK INTRA:                  -0.500
REMARK UNBOUND:                 0.076
REMARK  Name = 
REMARK  5 active torsions:
REMARK  status: ('A' for Active; 'I' for Inactive)
REMARK    1  A    between atoms: C_1  and  C_2
REMARK    2  A    between atoms: N_5  and  C_6
REMARK    3  A    between atoms: C_6  and  C_7
REMARK    4  A    between atoms: C_11  and  C_12
REMARK    5  A    between atoms: C_23  and  C_24
REMARK                            x       y       z     vdW  Elec       q    Type
REMARK                         _______ _______ _______ _____ _____    ______ ____
ROOT
ATOM      1  C   UNL     1      45.508   4.282  14.022  0.00  0.00    +0.000 C 
ENDROOT
BRANCH   1   6
ATOM      2  C   UNL     1      50.483   7.355  15.740  0.00  0.00    +0.000 C 
ATOM      3  C   UNL     1      49.461   6.278  15.966  0.00  0.00    +0.000 A 
ATOM      4  N   UNL     1      48.500   6.180  14.995  0.00  0.00    +0.000 NA
ATOM      5  C   UNL     1      47.531   5.250  15.109  0.00  0.00    +0.000 A 
ATOM      6  N   UNL     1      46.600   5.233  14.108  0.00  0.00    +0.000 N 
ATOM      7  C   UNL     1      47.501   4.388  16.194  0.00  0.00    +0.000 A 
ATOM      8  C   UNL     1      48.474   4.483  17.188  0.00  0.00    +0.000 A 
ATOM      9  C   UNL     1      49.474   5.452  17.092  0.00  0.00    +0.000 A 
ATOM     10  H   UNL     1      46.768   5.880  13.347  0.00  0.00    +0.000 HD
BRANCH   9  11
ATOM     11  C   UNL     1      50.513   5.561  18.150  0.00  0.00    +0.000 C 
ATOM     12  N   UNL     1      50.244   6.382  19.215  0.00  0.00    +0.000 N 
ATOM     13  O   UNL     1      51.579   4.965  18.098  0.00  0.00    +0.000 OA
ATOM     14  H   UNL     1      49.473   7.034  19.243  0.00  0.00    +0.000 HD
ATOM     15  H   UNL     1      50.987   6.501  19.891  0.00  0.00    +0.000 HD
ENDBRANCH   9  11
ENDBRANCH   1   6
BRANCH   1  16
ATOM     16  C   UNL     1      44.747   4.350  12.708  0.00  0.00    +0.000 A 
ATOM     17  N   UNL     1      43.517   4.902  12.726  0.00  0.00    +0.000 NA
ATOM     18  C   UNL     1      42.889   4.996  11.544  0.00  0.00    +0.000 A 
ATOM     19  C   UNL     1      43.433   4.567  10.358  0.00  0.00    +0.000 A 
ATOM     20  C   UNL     1      44.698   4.013  10.420  0.00  0.00    +0.000 A 
ATOM     21  N   UNL     1      45.358   3.890  11.595  0.00  0.00    +0.000 NA
BRANCH  20  22
ATOM     22  C   UNL     1      45.422   3.532   9.222  0.00  0.00    +0.000 A 
ATOM     23  C   UNL     1      45.874   4.431   8.240  0.00  0.00    +0.000 A 
ATOM     24  C   UNL     1      46.565   3.989   7.105  0.00  0.00    +0.000 A 
ATOM     25  C   UNL     1      46.814   2.630   6.921  0.00  0.00    +0.000 A 
ATOM     26 CL   UNL     1      47.672   2.147   5.503  0.00  0.00    +0.000 Cl
ATOM     27  C   UNL     1      46.366   1.714   7.875  0.00  0.00    +0.000 A 
ATOM     28 CL   UNL     1      46.624   0.012   7.721  0.00  0.00    +0.000 Cl
ATOM     29  C   UNL     1      45.676   2.164   9.009  0.00  0.00    +0.000 A 
ENDBRANCH  20  22
ENDBRANCH   1  16
TORSDOF 4
ENDMDL
MODEL 6
REMARK VINA RESULT:    -7.657      5.650      8.947
REMARK INTER + INTRA:          -9.372
REMARK INTER:                  -8.811
REMARK INTRA:                  -0.561
REMARK UNBOUND:                 0.076
REMARK  Name = 
REMARK  5 active torsions:
REMARK  status: ('A' for Active; 'I' for Inactive)
REMARK    1  A    between atoms: C_1  and  C_2
REMARK    2  A    between atoms: N_5  and  C_6
REMARK    3  A    between atoms: C_6  and  C_7
REMARK    4  A    between atoms: C_11  and  C_12
REMARK    5  A    between atoms: C_23  and  C_24
REMARK                            x       y       z     vdW  Elec       q    Type
REMARK                         _______ _______ _______ _____ _____    ______ ____
ROOT
ATOM      1  C   UNL     1      48.697   4.895  17.252  0.00  0.00    +0.000 C 
ENDROOT
BRANCH   1   6
ATOM      2  C   UNL     1      54.162   2.892  19.059  0.00  0.00    +0.000 C 
ATOM      3  C   UNL     1      52.838   2.669  18.386  0.00  0.00    +0.000 A 
ATOM      4  N   UNL     1      52.006   3.757  18.373  0.00  0.00    +0.000 NA
ATOM      5  C   UNL     1      50.789   3.658  17.801  0.00  0.00    +0.000 A 
ATOM      6  N   UNL     1      50.014   4.782  17.849  0.00  0.00    +0.000 N 
ATOM      7  C   UNL     1      50.375   2.469  17.221  0.00  0.00    +0.000 A 
ATOM      8  C   UNL     1      51.215   1.357  17.232  0.00  0.00    +0.000 A 
ATOM      9  C   UNL     1      52.470   1.440  17.836  0.00  0.00    +0.000 A 
ATOM     10  H   UNL     1      50.457   5.598  18.254  0.00  0.00    +0.000 HD
BRANCH   9  11
ATOM     11  C   UNL     1      53.371   0.256  17.856  0.00  0.00    +0.000 C 
ATOM     12  N   UNL     1      53.899  -0.153  16.659  0.00  0.00    +0.000 N 
ATOM     13  O   UNL     1      53.641  -0.357  18.879  0.00  0.00    +0.000 OA
ATOM     14  H   UNL     1      53.589   0.187  15.760  0.00  0.00    +0.000 HD
ATOM     15  H   UNL     1      54.453  -1.000  16.676  0.00  0.00    +0.000 HD
ENDBRANCH   9  11
ENDBRANCH   1   6
BRANCH   1  16
ATOM     16  C   UNL     1      48.682   5.697  15.960  0.00  0.00    +0.000 A 
ATOM     17  N   UNL     1      49.617   6.655  15.810  0.00  0.00    +0.000 NA
ATOM     18  C   UNL     1      49.615   7.313  14.640  0.00  0.00    +0.000 A 
ATOM     19  C   UNL     1      48.727   7.053  13.625  0.00  0.00    +0.000 A 
ATOM     20  C   UNL     1      47.798   6.054  13.853  0.00  0.00    +0.000 A 
ATOM     21  N   UNL     1      47.762   5.378  15.024  0.00  0.00    +0.000 NA
BRANCH  20  22
ATOM     22  C   UNL     1      46.796   5.646  12.843  0.00  0.00    +0.000 A 
ATOM     23  C   UNL     1      46.715   6.296  11.599  0.00  0.00    +0.000 A 
ATOM     24  C   UNL     1      45.776   5.915  10.633  0.00  0.00    +0.000 A 
ATOM     25  C   UNL     1      44.885   4.875  10.894  0.00  0.00    +0.000 A 
ATOM     26 CL   UNL     1      43.752   4.450   9.663  0.00  0.00    +0.000 Cl
ATOM     27  C   UNL     1      44.936   4.220  12.125  0.00  0.00    +0.000 A 
ATOM     28 CL   UNL     1      43.864   2.927  12.534  0.00  0.00    +0.000 Cl
ATOM     29  C   UNL     1      45.879   4.606  13.087  0.00  0.00    +0.000 A 
ENDBRANCH  20  22
ENDBRANCH   1  16
TORSDOF 4
ENDMDL
MODEL 7
REMARK VINA RESULT:    -7.607      3.881      6.314
REMARK INTER + INTRA:          -9.310
REMARK INTER:                  -8.947
REMARK INTRA:                  -0.363
REMARK UNBOUND:                 0.076
REMARK  Name = 
REMARK  5 active torsions:
REMARK  status: ('A' for Active; 'I' for Inactive)
REMARK    1  A    between atoms: C_1  and  C_2
REMARK    2  A    between atoms: N_5  and  C_6
REMARK    3  A    between atoms: C_6  and  C_7
REMARK    4  A    between atoms: C_11  and  C_12
REMARK    5  A    between atoms: C_23  and  C_24
REMARK                            x       y       z     vdW  Elec       q    Type
REMARK                         _______ _______ _______ _____ _____    ______ ____
ROOT
ATOM      1  C   UNL     1      48.300   6.209  15.386  0.00  0.00    +0.000 C 
ENDROOT
BRANCH   1   6
ATOM      2  C   UNL     1      43.941   3.047  12.532  0.00  0.00    +0.000 C 
ATOM      3  C   UNL     1      44.933   4.174  12.573  0.00  0.00    +0.000 A 
ATOM      4  N   UNL     1      45.666   4.257  13.728  0.00  0.00    +0.000 NA
ATOM      5  C   UNL     1      46.577   5.239  13.868  0.00  0.00    +0.000 A 
ATOM      6  N   UNL     1      47.251   5.263  15.058  0.00  0.00    +0.000 N 
ATOM      7  C   UNL     1      46.785   6.163  12.855  0.00  0.00    +0.000 A 
ATOM      8  C   UNL     1      46.041   6.086  11.679  0.00  0.00    +0.000 A 
ATOM      9  C   UNL     1      45.082   5.085  11.526  0.00  0.00    +0.000 A 
ATOM     10  H   UNL     1      47.042   4.500  15.690  0.00  0.00    +0.000 HD
BRANCH   9  11
ATOM     11  C   UNL     1      44.282   5.000  10.274  0.00  0.00    +0.000 C 
ATOM     12  N   UNL     1      44.963   4.777   9.106  0.00  0.00    +0.000 N 
ATOM     13  O   UNL     1      43.067   5.129  10.253  0.00  0.00    +0.000 OA
ATOM     14  H   UNL     1      45.968   4.835   9.019  0.00  0.00    +0.000 HD
ATOM     15  H   UNL     1      44.415   4.791   8.255  0.00  0.00    +0.000 HD
ENDBRANCH   9  11
ENDBRANCH   1   6
BRANCH   1  16
ATOM     16  C   UNL     1      48.992   5.914  16.707  0.00  0.00    +0.000 A 
ATOM     17  N   UNL     1      48.656   6.669  17.771  0.00  0.00    +0.000 NA
ATOM     18  C   UNL     1      49.242   6.355  18.936  0.00  0.00    +0.000 A 
ATOM     19  C   UNL     1      50.140   5.326  19.080  0.00  0.00    +0.000 A 
ATOM     20  C   UNL     1      50.435   4.594  17.943  0.00  0.00    +0.000 A 
ATOM     21  N   UNL     1      49.872   4.890  16.749  0.00  0.00    +0.000 NA
BRANCH  20  22
ATOM     22  C   UNL     1      51.362   3.442  17.950  0.00  0.00    +0.000 A 
ATOM     23  C   UNL     1      50.980   2.202  17.407  0.00  0.00    +0.000 A 
ATOM     24  C   UNL     1      51.851   1.105  17.401  0.00  0.00    +0.000 A 
ATOM     25  C   UNL     1      53.127   1.221  17.949  0.00  0.00    +0.000 A 
ATOM     26 CL   UNL     1      54.155  -0.166  17.912  0.00  0.00    +0.000 Cl
ATOM     27  C   UNL     1      53.528   2.436  18.506  0.00  0.00    +0.000 A 
ATOM     28 CL   UNL     1      55.088   2.664  19.214  0.00  0.00    +0.000 Cl
ATOM     29  C   UNL     1      52.652   3.530  18.507  0.00  0.00    +0.000 A 
ENDBRANCH  20  22
ENDBRANCH   1  16
TORSDOF 4
ENDMDL
MODEL 8
REMARK VINA RESULT:    -7.332      4.870      8.655
REMARK INTER + INTRA:          -8.971
REMARK INTER:                  -8.454
REMARK INTRA:                  -0.516
REMARK UNBOUND:                 0.076
REMARK  Name = 
REMARK  5 active torsions:
REMARK  status: ('A' for Active; 'I' for Inactive)
REMARK    1  A    between atoms: C_1  and  C_2
REMARK    2  A    between atoms: N_5  and  C_6
REMARK    3  A    between atoms: C_6  and  C_7
REMARK    4  A    between atoms: C_11  and  C_12
REMARK    5  A    between atoms: C_23  and  C_24
REMARK                            x       y       z     vdW  Elec       q    Type
REMARK                         _______ _______ _______ _____ _____    ______ ____
ROOT
ATOM      1  C   UNL     1      48.047   7.911  14.380  0.00  0.00    +0.000 C 
ENDROOT
BRANCH   1   6
ATOM      2  C   UNL     1      49.381   2.952  17.662  0.00  0.00    +0.000 C 
ATOM      3  C   UNL     1      49.122   4.427  17.558  0.00  0.00    +0.000 A 
ATOM      4  N   UNL     1      48.850   4.878  16.294  0.00  0.00    +0.000 NA
ATOM      5  C   UNL     1      48.612   6.190  16.091  0.00  0.00    +0.000 A 
ATOM      6  N   UNL     1      48.369   6.560  14.798  0.00  0.00    +0.000 N 
ATOM      7  C   UNL     1      48.634   7.085  17.150  0.00  0.00    +0.000 A 
ATOM      8  C   UNL     1      48.913   6.634  18.439  0.00  0.00    +0.000 A 
ATOM      9  C   UNL     1      49.178   5.282  18.661  0.00  0.00    +0.000 A 
ATOM     10  H   UNL     1      48.329   5.800  14.129  0.00  0.00    +0.000 HD
BRANCH   9  11
ATOM     11  C   UNL     1      49.480   4.794  20.034  0.00  0.00    +0.000 C 
ATOM     12  N   UNL     1      50.795   4.561  20.344  0.00  0.00    +0.000 N 
ATOM     13  O   UNL     1      48.613   4.589  20.871  0.00  0.00    +0.000 OA
ATOM     14  H   UNL     1      51.539   4.538  19.662  0.00  0.00    +0.000 HD
ATOM     15  H   UNL     1      50.979   4.164  21.256  0.00  0.00    +0.000 HD
ENDBRANCH   9  11
ENDBRANCH   1   6
BRANCH   1  16
ATOM     16  C   UNL     1      46.902   7.980  13.381  0.00  0.00    +0.000 A 
ATOM     17  N   UNL     1      46.323   9.179  13.177  0.00  0.00    +0.000 NA
ATOM     18  C   UNL     1      45.352   9.223  12.253  0.00  0.00    +0.000 A 
ATOM     19  C   UNL     1      44.940   8.129  11.531  0.00  0.00    +0.000 A 
ATOM     20  C   UNL     1      45.582   6.933  11.796  0.00  0.00    +0.000 A 
ATOM     21  N   UNL     1      46.559   6.848  12.729  0.00  0.00    +0.000 NA
BRANCH  20  22
ATOM     22  C   UNL     1      45.266   5.678  11.080  0.00  0.00    +0.000 A 
ATOM     23  C   UNL     1      45.695   5.470   9.757  0.00  0.00    +0.000 A 
ATOM     24  C   UNL     1      45.407   4.284   9.070  0.00  0.00    +0.000 A 
ATOM     25  C   UNL     1      44.671   3.276   9.692  0.00  0.00    +0.000 A 
ATOM     26 CL   UNL     1      44.349   1.837   8.794  0.00  0.00    +0.000 Cl
ATOM     27  C   UNL     1      44.222   3.461  11.000  0.00  0.00    +0.000 A 
ATOM     28 CL   UNL     1      43.297   2.267  11.841  0.00  0.00    +0.000 Cl
ATOM     29  C   UNL     1      44.515   4.650  11.681  0.00  0.00    +0.000 A 
ENDBRANCH  20  22
ENDBRANCH   1  16
TORSDOF 4
ENDMDL
MODEL 9
REMARK VINA RESULT:    -7.152      3.016      5.095
REMARK INTER + INTRA:          -8.748
REMARK INTER:                  -8.256
REMARK INTRA:                  -0.492
REMARK UNBOUND:                 0.076
REMARK  Name = 
REMARK  5 active torsions:
REMARK  status: ('A' for Active; 'I' for Inactive)
REMARK    1  A    between atoms: C_1  and  C_2
REMARK    2  A    between atoms: N_5  and  C_6
REMARK    3  A    between atoms: C_6  and  C_7
REMARK    4  A    between atoms: C_11  and  C_12
REMARK    5  A    between atoms: C_23  and  C_24
REMARK                            x       y       z     vdW  Elec       q    Type
REMARK                         _______ _______ _______ _____ _____    ______ ____
ROOT
ATOM      1  C   UNL     1      47.560   8.843  13.207  0.00  0.00    +0.000 C 
ENDROOT
BRANCH   1   6
ATOM      2  C   UNL     1      43.026   4.788  12.829  0.00  0.00    +0.000 C 
ATOM      3  C   UNL     1      44.255   5.440  12.264  0.00  0.00    +0.000 A 
ATOM      4  N   UNL     1      44.799   6.424  13.047  0.00  0.00    +0.000 NA
ATOM      5  C   UNL     1      45.899   7.078  12.626  0.00  0.00    +0.000 A 
ATOM      6  N   UNL     1      46.366   8.058  13.457  0.00  0.00    +0.000 N 
ATOM      7  C   UNL     1      46.490   6.761  11.412  0.00  0.00    +0.000 A 
ATOM      8  C   UNL     1      45.941   5.763  10.609  0.00  0.00    +0.000 A 
ATOM      9  C   UNL     1      44.792   5.089  11.024  0.00  0.00    +0.000 A 
ATOM     10  H   UNL     1      45.874   8.152  14.337  0.00  0.00    +0.000 HD
BRANCH   9  11
ATOM     11  C   UNL     1      44.199   4.025  10.170  0.00  0.00    +0.000 C 
ATOM     12  N   UNL     1      43.852   4.367   8.888  0.00  0.00    +0.000 N 
ATOM     13  O   UNL     1      44.005   2.886  10.567  0.00  0.00    +0.000 OA
ATOM     14  H   UNL     1      43.819   5.318   8.548  0.00  0.00    +0.000 HD
ATOM     15  H   UNL     1      43.387   3.654   8.342  0.00  0.00    +0.000 HD
ENDBRANCH   9  11
ENDBRANCH   1   6
BRANCH   1  16
ATOM     16  C   UNL     1      48.790   8.326  13.937  0.00  0.00    +0.000 A 
ATOM     17  N   UNL     1      49.996   8.620  13.414  0.00  0.00    +0.000 NA
ATOM     18  C   UNL     1      51.065   8.197  14.105  0.00  0.00    +0.000 A 
ATOM     19  C   UNL     1      50.979   7.499  15.285  0.00  0.00    +0.000 A 
ATOM     20  C   UNL     1      49.707   7.236  15.760  0.00  0.00    +0.000 A 
ATOM     21  N   UNL     1      48.605   7.637  15.084  0.00  0.00    +0.000 NA
BRANCH  20  22
ATOM     22  C   UNL     1      49.457   6.518  17.029  0.00  0.00    +0.000 A 
ATOM     23  C   UNL     1      49.733   7.123  18.269  0.00  0.00    +0.000 A 
ATOM     24  C   UNL     1      49.496   6.457  19.478  0.00  0.00    +0.000 A 
ATOM     25  C   UNL     1      48.982   5.161  19.474  0.00  0.00    +0.000 A 
ATOM     26 CL   UNL     1      48.710   4.393  20.997  0.00  0.00    +0.000 Cl
ATOM     27  C   UNL     1      48.711   4.533  18.258  0.00  0.00    +0.000 A 
ATOM     28 CL   UNL     1      48.082   2.926  18.163  0.00  0.00    +0.000 Cl
ATOM     29  C   UNL     1      48.950   5.205  17.052  0.00  0.00    +0.000 A 
ENDBRANCH  20  22
ENDBRANCH   1  16
TORSDOF 4
ENDMDL
