MODEL 1
REMARK VINA RESULT:    -8.055      0.000      0.000
REMARK INTER + INTRA:         -10.594
REMARK INTER:                 -10.173
REMARK INTRA:                  -0.421
REMARK UNBOUND:                -0.421
REMARK  Name = 
REMARK  5 active torsions:
REMARK  status: ('A' for Active; 'I' for Inactive)
REMARK    1  A    between atoms: C_2  and  C_3
REMARK    2  A    between atoms: C_6  and  C_7
REMARK    3  A    between atoms: C_7  and  C_8
REMARK    4  A    between atoms: C_12  and  C_13
REMARK    5  A    between atoms: C_16  and  O_17
REMARK                            x       y       z     vdW  Elec       q    Type
REMARK                         _______ _______ _______ _____ _____    ______ ____
ROOT
ATOM      1  C   UNL     1      44.055   4.237  11.139  0.00  0.00    +0.000 A 
ATOM      2  C   UNL     1      43.342   3.133  11.605  0.00  0.00    +0.000 A 
ATOM      3  N   UNL     1      43.340   1.915  11.021  0.00  0.00    +0.000 NA
ATOM      4  C   UNL     1      44.106   1.778   9.915  0.00  0.00    +0.000 A 
ATOM      5  C   UNL     1      44.848   2.800   9.319  0.00  0.00    +0.000 A 
ATOM      6  C   UNL     1      44.762   4.054   9.940  0.00  0.00    +0.000 A 
ENDROOT
BRANCH   5   7
ATOM      7  C   UNL     1      45.755   2.564   8.181  0.00  0.00    +0.000 A 
ATOM      8  C   UNL     1      46.046   3.568   7.236  0.00  0.00    +0.000 A 
ATOM      9  C   UNL     1      46.974   3.356   6.209  0.00  0.00    +0.000 A 
ATOM     10  C   UNL     1      47.615   2.128   6.111  0.00  0.00    +0.000 A 
ATOM     11  C   UNL     1      47.341   1.113   7.014  0.00  0.00    +0.000 A 
ATOM     12  C   UNL     1      46.422   1.332   8.042  0.00  0.00    +0.000 A 
BRANCH  10  13
ATOM     13  O   UNL     1      48.536   1.877   5.139  0.00  0.00    +0.000 OA
ATOM     14  H   UNL     1      49.178   1.231   5.475  0.00  0.00    +0.000 HD
ENDBRANCH  10  13
ENDBRANCH   5   7
BRANCH   1  15
ATOM     15  C   UNL     1      44.141   5.531  11.936  0.00  0.00    +0.000 C 
ATOM     16  C   UNL     1      43.169   6.641  11.525  0.00  0.00    +0.000 C 
ATOM     17  C   UNL     1      42.941   5.905  12.806  0.00  0.00    +0.000 C 
BRANCH  15  21
ATOM     18  C   UNL     1      48.038   6.817  13.218  0.00  0.00    +0.000 A 
ATOM     19  C   UNL     1      47.553   7.277  12.002  0.00  0.00    +0.000 A 
ATOM     20  C   UNL     1      46.298   6.850  11.561  0.00  0.00    +0.000 A 
ATOM     21  C   UNL     1      45.547   5.969  12.340  0.00  0.00    +0.000 A 
ATOM     22  N   UNL     1      46.035   5.504  13.523  0.00  0.00    +0.000 NA
ATOM     23  C   UNL     1      47.252   5.933  13.937  0.00  0.00    +0.000 A 
BRANCH  18  25
ATOM     24  N   UNL     1      50.319   7.592  14.160  0.00  0.00    +0.000 NA
ATOM     25  C   UNL     1      49.300   7.244  13.737  0.00  0.00    +0.000 C 
ENDBRANCH  18  25
ENDBRANCH  15  21
ENDBRANCH   1  15
TORSDOF 5
ENDMDL
MODEL 2
REMARK VINA RESULT:    -7.315      1.967      2.922
REMARK INTER + INTRA:          -9.660
REMARK INTER:                  -9.631
REMARK INTRA:                  -0.029
REMARK UNBOUND:                -0.421
REMARK  Name = 
REMARK  5 active torsions:
REMARK  status: ('A' for Active; 'I' for Inactive)
REMARK    1  A    between atoms: C_2  and  C_3
REMARK    2  A    between atoms: C_6  and  C_7
REMARK    3  A    between atoms: C_7  and  C_8
REMARK    4  A    between atoms: C_12  and  C_13
REMARK    5  A    between atoms: C_16  and  O_17
REMARK                            x       y       z     vdW  Elec       q    Type
REMARK                         _______ _______ _______ _____ _____    ______ ____
ROOT
ATOM      1  C   UNL     1      45.395   6.353  11.612  0.00  0.00    +0.000 A 
ATOM      2  C   UNL     1      44.018   6.322  11.827  0.00  0.00    +0.000 A 
ATOM      3  N   UNL     1      43.149   5.544  11.146  0.00  0.00    +0.000 NA
ATOM      4  C   UNL     1      43.681   4.733  10.202  0.00  0.00    +0.000 A 
ATOM      5  C   UNL     1      45.033   4.680   9.858  0.00  0.00    +0.000 A 
ATOM      6  C   UNL     1      45.874   5.553  10.562  0.00  0.00    +0.000 A 
ENDROOT
BRANCH   5   7
ATOM      7  C   UNL     1      45.572   3.695   8.902  0.00  0.00    +0.000 A 
ATOM      8  C   UNL     1      46.306   4.082   7.764  0.00  0.00    +0.000 A 
ATOM      9  C   UNL     1      46.882   3.133   6.911  0.00  0.00    +0.000 A 
ATOM     10  C   UNL     1      46.721   1.781   7.184  0.00  0.00    +0.000 A 
ATOM     11  C   UNL     1      45.990   1.365   8.286  0.00  0.00    +0.000 A 
ATOM     12  C   UNL     1      45.425   2.315   9.139  0.00  0.00    +0.000 A 
BRANCH  10  13
ATOM     13  O   UNL     1      47.273   0.820   6.393  0.00  0.00    +0.000 OA
ATOM     14  H   UNL     1      48.136   1.133   6.077  0.00  0.00    +0.000 HD
ENDBRANCH  10  13
ENDBRANCH   5   7
BRANCH   1  15
ATOM     15  C   UNL     1      46.333   7.131  12.524  0.00  0.00    +0.000 C 
ATOM     16  C   UNL     1      47.221   8.176  11.844  0.00  0.00    +0.000 C 
ATOM     17  C   UNL     1      46.075   8.629  12.689  0.00  0.00    +0.000 C 
BRANCH  15  21
ATOM     18  C   UNL     1      47.963   4.864  15.793  0.00  0.00    +0.000 A 
ATOM     19  C   UNL     1      48.486   6.122  15.530  0.00  0.00    +0.000 A 
ATOM     20  C   UNL     1      47.983   6.861  14.457  0.00  0.00    +0.000 A 
ATOM     21  C   UNL     1      46.965   6.333  13.663  0.00  0.00    +0.000 A 
ATOM     22  N   UNL     1      46.468   5.090  13.911  0.00  0.00    +0.000 NA
ATOM     23  C   UNL     1      46.965   4.389  14.958  0.00  0.00    +0.000 A 
BRANCH  18  25
ATOM     24  N   UNL     1      48.776   3.437  17.791  0.00  0.00    +0.000 NA
ATOM     25  C   UNL     1      48.414   4.074  16.896  0.00  0.00    +0.000 C 
ENDBRANCH  18  25
ENDBRANCH  15  21
ENDBRANCH   1  15
TORSDOF 5
ENDMDL
MODEL 3
REMARK VINA RESULT:    -7.107      2.969      6.762
REMARK INTER + INTRA:          -9.398
REMARK INTER:                  -9.300
REMARK INTRA:                  -0.097
REMARK UNBOUND:                -0.421
REMARK  Name = 
REMARK  5 active torsions:
REMARK  status: ('A' for Active; 'I' for Inactive)
REMARK    1  A    between atoms: C_2  and  C_3
REMARK    2  A    between atoms: C_6  and  C_7
REMARK    3  A    between atoms: C_7  and  C_8
REMARK    4  A    between atoms: C_12  and  C_13
REMARK    5  A    between atoms: C_16  and  O_17
REMARK                            x       y       z     vdW  Elec       q    Type
REMARK                         _______ _______ _______ _____ _____    ______ ____
ROOT
ATOM      1  C   UNL     1      44.769   5.363  11.430  0.00  0.00    +0.000 A 
ATOM      2  C   UNL     1      43.886   6.431  11.271  0.00  0.00    +0.000 A 
ATOM      3  N   UNL     1      44.176   7.719  11.556  0.00  0.00    +0.000 NA
ATOM      4  C   UNL     1      45.426   7.966  12.014  0.00  0.00    +0.000 A 
ATOM      5  C   UNL     1      46.401   6.996  12.250  0.00  0.00    +0.000 A 
ATOM      6  C   UNL     1      46.019   5.672  11.989  0.00  0.00    +0.000 A 
ENDROOT
BRANCH   5   7
ATOM      7  C   UNL     1      47.782   7.336  12.640  0.00  0.00    +0.000 A 
ATOM      8  C   UNL     1      48.253   7.158  13.956  0.00  0.00    +0.000 A 
ATOM      9  C   UNL     1      49.589   7.406  14.292  0.00  0.00    +0.000 A 
ATOM     10  C   UNL     1      50.469   7.846  13.312  0.00  0.00    +0.000 A 
ATOM     11  C   UNL     1      50.036   8.048  12.011  0.00  0.00    +0.000 A 
ATOM     12  C   UNL     1      48.705   7.790  11.679  0.00  0.00    +0.000 A 
BRANCH  10  13
ATOM     13  O   UNL     1      51.782   8.088  13.585  0.00  0.00    +0.000 OA
ATOM     14  H   UNL     1      52.329   7.611  12.941  0.00  0.00    +0.000 HD
ENDBRANCH  10  13
ENDBRANCH   5   7
BRANCH   1  15
ATOM     15  C   UNL     1      44.432   3.963  10.936  0.00  0.00    +0.000 C 
ATOM     16  C   UNL     1      44.208   2.902  12.018  0.00  0.00    +0.000 C 
ATOM     17  C   UNL     1      43.037   3.421  11.249  0.00  0.00    +0.000 C 
BRANCH  15  21
ATOM     18  C   UNL     1      46.597   2.602   7.481  0.00  0.00    +0.000 A 
ATOM     19  C   UNL     1      46.406   3.966   7.651  0.00  0.00    +0.000 A 
ATOM     20  C   UNL     1      45.685   4.422   8.757  0.00  0.00    +0.000 A 
ATOM     21  C   UNL     1      45.164   3.510   9.675  0.00  0.00    +0.000 A 
ATOM     22  N   UNL     1      45.336   2.172   9.494  0.00  0.00    +0.000 NA
ATOM     23  C   UNL     1      46.042   1.748   8.418  0.00  0.00    +0.000 A 
BRANCH  18  25
ATOM     24  N   UNL     1      47.968   1.656   5.502  0.00  0.00    +0.000 NA
ATOM     25  C   UNL     1      47.354   2.076   6.387  0.00  0.00    +0.000 C 
ENDBRANCH  18  25
ENDBRANCH  15  21
ENDBRANCH   1  15
TORSDOF 5
ENDMDL
MODEL 4
REMARK VINA RESULT:    -7.005      3.272      7.025
REMARK INTER + INTRA:          -9.268
REMARK INTER:                  -9.239
REMARK INTRA:                  -0.029
REMARK UNBOUND:                -0.421
REMARK  Name = 
REMARK  5 active torsions:
REMARK  status: ('A' for Active; 'I' for Inactive)
REMARK    1  A    between atoms: C_2  and  C_3
REMARK    2  A    between atoms: C_6  and  C_7
REMARK    3  A    between atoms: C_7  and  C_8
REMARK    4  A    between atoms: C_12  and  C_13
REMARK    5  A    between atoms: C_16  and  O_17
REMARK                            x       y       z     vdW  Elec       q    Type
REMARK                         _______ _______ _______ _____ _____    ______ ____
ROOT
ATOM      1  C   UNL     1      45.536   4.706  11.945  0.00  0.00    +0.000 A 
ATOM      2  C   UNL     1      45.584   3.980  13.135  0.00  0.00    +0.000 A 
ATOM      3  N   UNL     1      46.276   4.349  14.235  0.00  0.00    +0.000 NA
ATOM      4  C   UNL     1      46.951   5.519  14.156  0.00  0.00    +0.000 A 
ATOM      5  C   UNL     1      47.018   6.333  13.024  0.00  0.00    +0.000 A 
ATOM      6  C   UNL     1      46.325   5.867  11.898  0.00  0.00    +0.000 A 
ENDROOT
BRANCH   5   7
ATOM      7  C   UNL     1      47.674   7.654  13.032  0.00  0.00    +0.000 A 
ATOM      8  C   UNL     1      47.780   8.429  14.205  0.00  0.00    +0.000 A 
ATOM      9  C   UNL     1      48.478   9.642  14.215  0.00  0.00    +0.000 A 
ATOM     10  C   UNL     1      49.072  10.099  13.047  0.00  0.00    +0.000 A 
ATOM     11  C   UNL     1      48.974   9.370  11.872  0.00  0.00    +0.000 A 
ATOM     12  C   UNL     1      48.285   8.156  11.867  0.00  0.00    +0.000 A 
BRANCH  10  13
ATOM     13  O   UNL     1      49.775  11.266  13.009  0.00  0.00    +0.000 OA
ATOM     14  H   UNL     1      49.183  11.995  13.253  0.00  0.00    +0.000 HD
ENDBRANCH  10  13
ENDBRANCH   5   7
BRANCH   1  15
ATOM     15  C   UNL     1      44.607   4.316  10.805  0.00  0.00    +0.000 C 
ATOM     16  C   UNL     1      43.281   3.667  11.208  0.00  0.00    +0.000 C 
ATOM     17  C   UNL     1      43.281   5.067  10.687  0.00  0.00    +0.000 C 
BRANCH  15  21
ATOM     18  C   UNL     1      46.624   2.673   7.382  0.00  0.00    +0.000 A 
ATOM     19  C   UNL     1      46.493   4.051   7.478  0.00  0.00    +0.000 A 
ATOM     20  C   UNL     1      45.820   4.598   8.573  0.00  0.00    +0.000 A 
ATOM     21  C   UNL     1      45.288   3.762   9.554  0.00  0.00    +0.000 A 
ATOM     22  N   UNL     1      45.400   2.410   9.446  0.00  0.00    +0.000 NA
ATOM     23  C   UNL     1      46.060   1.897   8.380  0.00  0.00    +0.000 A 
BRANCH  18  25
ATOM     24  N   UNL     1      47.905   1.554   5.433  0.00  0.00    +0.000 NA
ATOM     25  C   UNL     1      47.330   2.055   6.303  0.00  0.00    +0.000 C 
ENDBRANCH  18  25
ENDBRANCH  15  21
ENDBRANCH   1  15
TORSDOF 5
ENDMDL
MODEL 5
REMARK VINA RESULT:    -6.959      1.818      2.393
REMARK INTER + INTRA:          -9.211
REMARK INTER:                  -8.964
REMARK INTRA:                  -0.247
REMARK UNBOUND:                -0.421
REMARK  Name = 
REMARK  5 active torsions:
REMARK  status: ('A' for Active; 'I' for Inactive)
REMARK    1  A    between atoms: C_2  and  C_3
REMARK    2  A    between atoms: C_6  and  C_7
REMARK    3  A    between atoms: C_7  and  C_8
REMARK    4  A    between atoms: C_12  and  C_13
REMARK    5  A    between atoms: C_16  and  O_17
REMARK                            x       y       z     vdW  Elec       q    Type
REMARK                         _______ _______ _______ _____ _____    ______ ____
ROOT
ATOM      1  C   UNL     1      45.193   4.057  11.831  0.00  0.00    +0.000 A 
ATOM      2  C   UNL     1      43.981   3.392  12.019  0.00  0.00    +0.000 A 
ATOM      3  N   UNL     1      43.392   2.591  11.105  0.00  0.00    +0.000 NA
ATOM      4  C   UNL     1      44.052   2.425   9.936  0.00  0.00    +0.000 A 
ATOM      5  C   UNL     1      45.255   3.049   9.598  0.00  0.00    +0.000 A 
ATOM      6  C   UNL     1      45.786   3.912  10.567  0.00  0.00    +0.000 A 
ENDROOT
BRANCH   5   7
ATOM      7  C   UNL     1      45.987   2.741   8.355  0.00  0.00    +0.000 A 
ATOM      8  C   UNL     1      46.355   3.744   7.436  0.00  0.00    +0.000 A 
ATOM      9  C   UNL     1      47.122   3.448   6.304  0.00  0.00    +0.000 A 
ATOM     10  C   UNL     1      47.524   2.139   6.072  0.00  0.00    +0.000 A 
ATOM     11  C   UNL     1      47.166   1.126   6.947  0.00  0.00    +0.000 A 
ATOM     12  C   UNL     1      46.408   1.426   8.081  0.00  0.00    +0.000 A 
BRANCH  10  13
ATOM     13  O   UNL     1      48.283   1.803   4.993  0.00  0.00    +0.000 OA
ATOM     14  H   UNL     1      49.220   1.842   5.244  0.00  0.00    +0.000 HD
ENDBRANCH  10  13
ENDBRANCH   5   7
BRANCH   1  15
ATOM     15  C   UNL     1      45.879   4.811  12.961  0.00  0.00    +0.000 C 
ATOM     16  C   UNL     1      45.502   4.383  14.382  0.00  0.00    +0.000 C 
ATOM     17  C   UNL     1      46.850   4.028  13.844  0.00  0.00    +0.000 C 
BRANCH  15  21
ATOM     18  C   UNL     1      46.393   9.005  12.166  0.00  0.00    +0.000 A 
ATOM     19  C   UNL     1      47.511   8.246  12.484  0.00  0.00    +0.000 A 
ATOM     20  C   UNL     1      47.356   6.887  12.767  0.00  0.00    +0.000 A 
ATOM     21  C   UNL     1      46.088   6.306  12.730  0.00  0.00    +0.000 A 
ATOM     22  N   UNL     1      44.992   7.057  12.438  0.00  0.00    +0.000 NA
ATOM     23  C   UNL     1      45.161   8.373  12.161  0.00  0.00    +0.000 A 
BRANCH  18  25
ATOM     24  N   UNL     1      46.569  11.516  11.572  0.00  0.00    +0.000 NA
ATOM     25  C   UNL     1      46.491  10.392  11.835  0.00  0.00    +0.000 C 
ENDBRANCH  18  25
ENDBRANCH  15  21
ENDBRANCH   1  15
TORSDOF 5
ENDMDL
MODEL 6
REMARK VINA RESULT:    -6.260      3.454      5.690
REMARK INTER + INTRA:          -8.327
REMARK INTER:                  -7.960
REMARK INTRA:                  -0.367
REMARK UNBOUND:                -0.421
REMARK  Name = 
REMARK  5 active torsions:
REMARK  status: ('A' for Active; 'I' for Inactive)
REMARK    1  A    between atoms: C_2  and  C_3
REMARK    2  A    between atoms: C_6  and  C_7
REMARK    3  A    between atoms: C_7  and  C_8
REMARK    4  A    between atoms: C_12  and  C_13
REMARK    5  A    between atoms: C_16  and  O_17
REMARK                            x       y       z     vdW  Elec       q    Type
REMARK                         _______ _______ _______ _____ _____    ______ ____
ROOT
ATOM      1  C   UNL     1      47.307   8.143  12.325  0.00  0.00    +0.000 A 
ATOM      2  C   UNL     1      46.507   9.264  12.102  0.00  0.00    +0.000 A 
ATOM      3  N   UNL     1      45.217   9.223  11.706  0.00  0.00    +0.000 NA
ATOM      4  C   UNL     1      44.679   7.993  11.534  0.00  0.00    +0.000 A 
ATOM      5  C   UNL     1      45.366   6.788  11.692  0.00  0.00    +0.000 A 
ATOM      6  C   UNL     1      46.717   6.899  12.049  0.00  0.00    +0.000 A 
ENDROOT
BRANCH   5   7
ATOM      7  C   UNL     1      44.698   5.475  11.604  0.00  0.00    +0.000 A 
ATOM      8  C   UNL     1      44.796   4.662  10.457  0.00  0.00    +0.000 A 
ATOM      9  C   UNL     1      44.226   3.384  10.420  0.00  0.00    +0.000 A 
ATOM     10  C   UNL     1      43.543   2.907  11.531  0.00  0.00    +0.000 A 
ATOM     11  C   UNL     1      43.414   3.687  12.670  0.00  0.00    +0.000 A 
ATOM     12  C   UNL     1      43.991   4.958  12.706  0.00  0.00    +0.000 A 
BRANCH  10  13
ATOM     13  O   UNL     1      42.984   1.665  11.550  0.00  0.00    +0.000 OA
ATOM     14  H   UNL     1      42.960   1.320  10.643  0.00  0.00    +0.000 HD
ENDBRANCH  10  13
ENDBRANCH   5   7
BRANCH   1  15
ATOM     15  C   UNL     1      48.700   8.258  12.927  0.00  0.00    +0.000 C 
ATOM     16  C   UNL     1      49.858   7.800  12.037  0.00  0.00    +0.000 C 
ATOM     17  C   UNL     1      49.663   9.260  12.290  0.00  0.00    +0.000 C 
BRANCH  15  21
ATOM     18  C   UNL     1      48.890   7.224  17.096  0.00  0.00    +0.000 A 
ATOM     19  C   UNL     1      48.702   8.555  16.749  0.00  0.00    +0.000 A 
ATOM     20  C   UNL     1      48.661   8.909  15.399  0.00  0.00    +0.000 A 
ATOM     21  C   UNL     1      48.809   7.931  14.415  0.00  0.00    +0.000 A 
ATOM     22  N   UNL     1      49.014   6.630  14.759  0.00  0.00    +0.000 NA
ATOM     23  C   UNL     1      49.046   6.303  16.074  0.00  0.00    +0.000 A 
BRANCH  18  25
ATOM     24  N   UNL     1      48.918   6.447  19.563  0.00  0.00    +0.000 NA
ATOM     25  C   UNL     1      48.908   6.795  18.460  0.00  0.00    +0.000 C 
ENDBRANCH  18  25
ENDBRANCH  15  21
ENDBRANCH   1  15
TORSDOF 5
ENDMDL
MODEL 7
REMARK VINA RESULT:    -5.394      4.978      8.882
REMARK INTER + INTRA:          -7.234
REMARK INTER:                  -7.345
REMARK INTRA:                   0.111
REMARK UNBOUND:                -0.421
REMARK  Name = 
REMARK  5 active torsions:
REMARK  status: ('A' for Active; 'I' for Inactive)
REMARK    1  A    between atoms: C_2  and  C_3
REMARK    2  A    between atoms: C_6  and  C_7
REMARK    3  A    between atoms: C_7  and  C_8
REMARK    4  A    between atoms: C_12  and  C_13
REMARK    5  A    between atoms: C_16  and  O_17
REMARK                            x       y       z     vdW  Elec       q    Type
REMARK                         _______ _______ _______ _____ _____    ______ ____
ROOT
ATOM      1  C   UNL     1      49.749   7.632  13.966  0.00  0.00    +0.000 A 
ATOM      2  C   UNL     1      51.033   8.165  14.066  0.00  0.00    +0.000 A 
ATOM      3  N   UNL     1      51.857   7.998  15.124  0.00  0.00    +0.000 NA
ATOM      4  C   UNL     1      51.383   7.242  16.141  0.00  0.00    +0.000 A 
ATOM      5  C   UNL     1      50.109   6.672  16.191  0.00  0.00    +0.000 A 
ATOM      6  C   UNL     1      49.283   6.929  15.088  0.00  0.00    +0.000 A 
ENDROOT
BRANCH   5   7
ATOM      7  C   UNL     1      49.689   5.762  17.274  0.00  0.00    +0.000 A 
ATOM      8  C   UNL     1      50.275   5.802  18.554  0.00  0.00    +0.000 A 
ATOM      9  C   UNL     1      49.809   4.990  19.594  0.00  0.00    +0.000 A 
ATOM     10  C   UNL     1      48.752   4.120  19.361  0.00  0.00    +0.000 A 
ATOM     11  C   UNL     1      48.162   4.044  18.109  0.00  0.00    +0.000 A 
ATOM     12  C   UNL     1      48.624   4.861  17.077  0.00  0.00    +0.000 A 
BRANCH  10  13
ATOM     13  O   UNL     1      48.253   3.320  20.345  0.00  0.00    +0.000 OA
ATOM     14  H   UNL     1      47.297   3.216  20.209  0.00  0.00    +0.000 HD
ENDBRANCH  10  13
ENDBRANCH   5   7
BRANCH   1  15
ATOM     15  C   UNL     1      48.941   7.722  12.679  0.00  0.00    +0.000 C 
ATOM     16  C   UNL     1      49.037   9.045  11.915  0.00  0.00    +0.000 C 
ATOM     17  C   UNL     1      49.715   7.832  11.366  0.00  0.00    +0.000 C 
BRANCH  15  21
ATOM     18  C   UNL     1      45.046   5.913  12.885  0.00  0.00    +0.000 A 
ATOM     19  C   UNL     1      46.163   5.090  12.900  0.00  0.00    +0.000 A 
ATOM     20  C   UNL     1      47.434   5.662  12.811  0.00  0.00    +0.000 A 
ATOM     21  C   UNL     1      47.571   7.046  12.707  0.00  0.00    +0.000 A 
ATOM     22  N   UNL     1      46.473   7.849  12.671  0.00  0.00    +0.000 NA
ATOM     23  C   UNL     1      45.248   7.278  12.764  0.00  0.00    +0.000 A 
BRANCH  18  25
ATOM     24  N   UNL     1      42.647   4.971  13.103  0.00  0.00    +0.000 NA
ATOM     25  C   UNL     1      43.721   5.390  13.006  0.00  0.00    +0.000 C 
ENDBRANCH  18  25
ENDBRANCH  15  21
ENDBRANCH   1  15
TORSDOF 5
ENDMDL
MODEL 8
REMARK VINA RESULT:    -5.304      2.753      5.184
REMARK INTER + INTRA:          -7.120
REMARK INTER:                  -7.446
REMARK INTRA:                   0.326
REMARK UNBOUND:                -0.421
REMARK  Name = 
REMARK  5 active torsions:
REMARK  status: ('A' for Active; 'I' for Inactive)
REMARK    1  A    between atoms: C_2  and  C_3
REMARK    2  A    between atoms: C_6  and  C_7
REMARK    3  A    between atoms: C_7  and  C_8
REMARK    4  A    between atoms: C_12  and  C_13
REMARK    5  A    between atoms: C_16  and  O_17
REMARK                            x       y       z     vdW  Elec       q    Type
REMARK                         _______ _______ _______ _____ _____    ______ ____
ROOT
ATOM      1  C   UNL     1      47.395   7.663  12.890  0.00  0.00    +0.000 A 
ATOM      2  C   UNL     1      46.473   8.709  12.897  0.00  0.00    +0.000 A 
ATOM      3  N   UNL     1      45.280   8.688  12.264  0.00  0.00    +0.000 NA
ATOM      4  C   UNL     1      44.974   7.552  11.595  0.00  0.00    +0.000 A 
ATOM      5  C   UNL     1      45.810   6.440  11.478  0.00  0.00    +0.000 A 
ATOM      6  C   UNL     1      47.057   6.547  12.109  0.00  0.00    +0.000 A 
ENDROOT
BRANCH   5   7
ATOM      7  C   UNL     1      45.377   5.186  10.833  0.00  0.00    +0.000 A 
ATOM      8  C   UNL     1      45.505   4.975   9.446  0.00  0.00    +0.000 A 
ATOM      9  C   UNL     1      45.168   3.749   8.861  0.00  0.00    +0.000 A 
ATOM     10  C   UNL     1      44.689   2.719   9.659  0.00  0.00    +0.000 A 
ATOM     11  C   UNL     1      44.535   2.897  11.025  0.00  0.00    +0.000 A 
ATOM     12  C   UNL     1      44.881   4.119  11.606  0.00  0.00    +0.000 A 
BRANCH  10  13
ATOM     13  O   UNL     1      44.361   1.504   9.140  0.00  0.00    +0.000 OA
ATOM     14  H   UNL     1      44.395   1.558   8.171  0.00  0.00    +0.000 HD
ENDBRANCH  10  13
ENDBRANCH   5   7
BRANCH   1  15
ATOM     15  C   UNL     1      48.646   7.690  13.756  0.00  0.00    +0.000 C 
ATOM     16  C   UNL     1      48.495   8.335  15.137  0.00  0.00    +0.000 C 
ATOM     17  C   UNL     1      48.638   6.851  15.034  0.00  0.00    +0.000 C 
BRANCH  15  21
ATOM     18  C   UNL     1      52.335   8.581  11.736  0.00  0.00    +0.000 A 
ATOM     19  C   UNL     1      51.295   8.022  11.006  0.00  0.00    +0.000 A 
ATOM     20  C   UNL     1      50.099   7.706  11.654  0.00  0.00    +0.000 A 
ATOM     21  C   UNL     1      49.958   7.952  13.020  0.00  0.00    +0.000 A 
ATOM     22  N   UNL     1      50.987   8.480  13.737  0.00  0.00    +0.000 NA
ATOM     23  C   UNL     1      52.139   8.785  13.091  0.00  0.00    +0.000 A 
BRANCH  18  25
ATOM     24  N   UNL     1      54.574   9.257  10.632  0.00  0.00    +0.000 NA
ATOM     25  C   UNL     1      53.572   8.956  11.123  0.00  0.00    +0.000 C 
ENDBRANCH  18  25
ENDBRANCH  15  21
ENDBRANCH   1  15
TORSDOF 5
ENDMDL
