MODEL 1
REMARK VINA RESULT:    -7.558      0.000      0.000
REMARK INTER + INTRA:          -9.387
REMARK INTER:                  -8.883
REMARK INTRA:                  -0.504
REMARK UNBOUND:                -0.504
REMARK  Name = 
REMARK  3 active torsions:
REMARK  status: ('A' for Active; 'I' for Inactive)
REMARK    1  A    between atoms: C_2  and  C_4
REMARK    2  A    between atoms: N_8  and  C_9
REMARK    3  A    between atoms: C_9  and  C_10
REMARK                            x       y       z     vdW  Elec       q    Type
REMARK                         _______ _______ _______ _____ _____    ______ ____
ROOT
ATOM      1  C   UNL     1      46.512   2.884   7.337  0.00  0.00    +0.000 A 
ATOM      2  C   UNL     1      45.952   1.799   8.001  0.00  0.00    +0.000 A 
ATOM      3  C   UNL     1      45.230   2.024   9.172  0.00  0.00    +0.000 A 
ATOM      4  C   UNL     1      45.093   3.323   9.677  0.00  0.00    +0.000 A 
ATOM      5  N   UNL     1      44.241   3.484  10.796  0.00  0.00    +0.000 N 
ATOM      6  N   UNL     1      45.659   4.373   9.051  0.00  0.00    +0.000 NA
ATOM      7  C   UNL     1      46.355   4.139   7.906  0.00  0.00    +0.000 A 
ATOM      8  H   UNL     1      44.375   2.701  11.428  0.00  0.00    +0.000 HD
ENDROOT
BRANCH   1  10
ATOM      9  N   UNL     1      48.600   2.460   6.166  0.00  0.00    +0.000 N 
ATOM     10  C   UNL     1      47.266   2.749   6.074  0.00  0.00    +0.000 C 
ATOM     11  O   UNL     1      46.716   2.857   4.984  0.00  0.00    +0.000 OA
ATOM     12  H   UNL     1      49.082   2.275   5.296  0.00  0.00    +0.000 HD
ATOM     13  H   UNL     1      49.027   2.115   7.016  0.00  0.00    +0.000 HD
ENDBRANCH   1  10
BRANCH   5  14
ATOM     14  C   UNL     1      44.023   4.789  11.475  0.00  0.00    +0.000 C 
ATOM     15  C   UNL     1      42.569   5.063  11.837  0.00  0.00    +0.000 C 
ATOM     16  C   UNL     1      43.257   5.933  10.842  0.00  0.00    +0.000 C 
BRANCH  14  17
ATOM     17  C   UNL     1      45.089   5.187  12.500  0.00  0.00    +0.000 C 
ATOM     18  C   UNL     1      46.075   6.214  11.931  0.00  0.00    +0.000 C 
ATOM     19  C   UNL     1      47.141   6.550  12.964  0.00  0.00    +0.000 C 
ATOM     20  O   UNL     1      47.817   5.368  13.395  0.00  0.00    +0.000 OA
ATOM     21  C   UNL     1      46.935   4.441  14.026  0.00  0.00    +0.000 C 
ATOM     22  C   UNL     1      45.858   3.976  13.052  0.00  0.00    +0.000 C 
ENDBRANCH  14  17
ENDBRANCH   5  14
TORSDOF 3
ENDMDL
MODEL 2
REMARK VINA RESULT:    -6.445      2.495      6.502
REMARK INTER + INTRA:          -8.079
REMARK INTER:                  -7.825
REMARK INTRA:                  -0.255
REMARK UNBOUND:                -0.504
REMARK  Name = 
REMARK  3 active torsions:
REMARK  status: ('A' for Active; 'I' for Inactive)
REMARK    1  A    between atoms: C_2  and  C_4
REMARK    2  A    between atoms: N_8  and  C_9
REMARK    3  A    between atoms: C_9  and  C_10
REMARK                            x       y       z     vdW  Elec       q    Type
REMARK                         _______ _______ _______ _____ _____    ______ ____
ROOT
ATOM      1  C   UNL     1      47.578   5.355  14.873  0.00  0.00    +0.000 A 
ATOM      2  C   UNL     1      47.910   6.336  13.947  0.00  0.00    +0.000 A 
ATOM      3  C   UNL     1      47.180   6.420  12.762  0.00  0.00    +0.000 A 
ATOM      4  C   UNL     1      46.145   5.513  12.507  0.00  0.00    +0.000 A 
ATOM      5  N   UNL     1      45.370   5.743  11.343  0.00  0.00    +0.000 N 
ATOM      6  N   UNL     1      45.839   4.543  13.390  0.00  0.00    +0.000 NA
ATOM      7  C   UNL     1      46.555   4.478  14.544  0.00  0.00    +0.000 A 
ATOM      8  H   UNL     1      45.984   6.043  10.592  0.00  0.00    +0.000 HD
ENDROOT
BRANCH   1  10
ATOM      9  N   UNL     1      48.177   6.249  17.054  0.00  0.00    +0.000 N 
ATOM     10  C   UNL     1      48.271   5.209  16.169  0.00  0.00    +0.000 C 
ATOM     11  O   UNL     1      48.878   4.185  16.461  0.00  0.00    +0.000 OA
ATOM     12  H   UNL     1      48.572   6.097  17.972  0.00  0.00    +0.000 HD
ATOM     13  H   UNL     1      47.488   6.984  16.961  0.00  0.00    +0.000 HD
ENDBRANCH   1  10
BRANCH   5  14
ATOM     14  C   UNL     1      44.264   4.849  10.910  0.00  0.00    +0.000 C 
ATOM     15  C   UNL     1      42.880   5.473  11.032  0.00  0.00    +0.000 C 
ATOM     16  C   UNL     1      43.229   4.289  11.866  0.00  0.00    +0.000 C 
BRANCH  14  17
ATOM     17  C   UNL     1      44.546   4.005   9.664  0.00  0.00    +0.000 C 
ATOM     18  C   UNL     1      44.908   2.558  10.023  0.00  0.00    +0.000 C 
ATOM     19  C   UNL     1      45.221   1.765   8.762  0.00  0.00    +0.000 C 
ATOM     20  O   UNL     1      46.268   2.392   8.020  0.00  0.00    +0.000 OA
ATOM     21  C   UNL     1      45.911   3.702   7.582  0.00  0.00    +0.000 C 
ATOM     22  C   UNL     1      45.643   4.612   8.775  0.00  0.00    +0.000 C 
ENDBRANCH  14  17
ENDBRANCH   5  14
TORSDOF 3
ENDMDL
MODEL 3
REMARK VINA RESULT:    -5.175      2.267      3.503
REMARK INTER + INTRA:          -6.586
REMARK INTER:                  -6.281
REMARK INTRA:                  -0.306
REMARK UNBOUND:                -0.504
REMARK  Name = 
REMARK  3 active torsions:
REMARK  status: ('A' for Active; 'I' for Inactive)
REMARK    1  A    between atoms: C_2  and  C_4
REMARK    2  A    between atoms: N_8  and  C_9
REMARK    3  A    between atoms: C_9  and  C_10
REMARK                            x       y       z     vdW  Elec       q    Type
REMARK                         _______ _______ _______ _____ _____    ______ ____
ROOT
ATOM      1  C   UNL     1      44.719   3.943   9.666  0.00  0.00    +0.000 A 
ATOM      2  C   UNL     1      43.784   3.973  10.693  0.00  0.00    +0.000 A 
ATOM      3  C   UNL     1      43.783   5.053  11.575  0.00  0.00    +0.000 A 
ATOM      4  C   UNL     1      44.727   6.077  11.435  0.00  0.00    +0.000 A 
ATOM      5  N   UNL     1      44.580   7.198  12.288  0.00  0.00    +0.000 N 
ATOM      6  N   UNL     1      45.654   6.037  10.458  0.00  0.00    +0.000 NA
ATOM      7  C   UNL     1      45.638   4.981   9.602  0.00  0.00    +0.000 A 
ATOM      8  H   UNL     1      44.308   6.876  13.212  0.00  0.00    +0.000 HD
ENDROOT
BRANCH   1  10
ATOM      9  N   UNL     1      44.558   1.583   9.107  0.00  0.00    +0.000 N 
ATOM     10  C   UNL     1      44.777   2.859   8.665  0.00  0.00    +0.000 C 
ATOM     11  O   UNL     1      44.979   3.091   7.479  0.00  0.00    +0.000 OA
ATOM     12  H   UNL     1      44.504   0.863   8.399  0.00  0.00    +0.000 HD
ATOM     13  H   UNL     1      44.142   1.380  10.007  0.00  0.00    +0.000 HD
ENDBRANCH   1  10
BRANCH   5  14
ATOM     14  C   UNL     1      45.523   8.348  12.294  0.00  0.00    +0.000 C 
ATOM     15  C   UNL     1      44.857   9.693  12.550  0.00  0.00    +0.000 C 
ATOM     16  C   UNL     1      45.510   9.434  11.236  0.00  0.00    +0.000 C 
BRANCH  14  17
ATOM     17  C   UNL     1      46.873   8.093  12.971  0.00  0.00    +0.000 C 
ATOM     18  C   UNL     1      48.039   8.198  11.980  0.00  0.00    +0.000 C 
ATOM     19  C   UNL     1      49.356   7.896  12.682  0.00  0.00    +0.000 C 
ATOM     20  O   UNL     1      49.315   6.609  13.298  0.00  0.00    +0.000 OA
ATOM     21  C   UNL     1      48.305   6.522  14.302  0.00  0.00    +0.000 C 
ATOM     22  C   UNL     1      46.924   6.738  13.694  0.00  0.00    +0.000 C 
ENDBRANCH  14  17
ENDBRANCH   5  14
TORSDOF 3
ENDMDL
MODEL 4
REMARK VINA RESULT:    -5.146      3.483      5.498
REMARK INTER + INTRA:          -6.553
REMARK INTER:                  -6.942
REMARK INTRA:                   0.390
REMARK UNBOUND:                -0.504
REMARK  Name = 
REMARK  3 active torsions:
REMARK  status: ('A' for Active; 'I' for Inactive)
REMARK    1  A    between atoms: C_2  and  C_4
REMARK    2  A    between atoms: N_8  and  C_9
REMARK    3  A    between atoms: C_9  and  C_10
REMARK                            x       y       z     vdW  Elec       q    Type
REMARK                         _______ _______ _______ _____ _____    ______ ____
ROOT
ATOM      1  C   UNL     1      44.979   4.021  11.593  0.00  0.00    +0.000 A 
ATOM      2  C   UNL     1      45.395   3.943  12.916  0.00  0.00    +0.000 A 
ATOM      3  C   UNL     1      46.209   4.952  13.428  0.00  0.00    +0.000 A 
ATOM      4  C   UNL     1      46.615   6.013  12.610  0.00  0.00    +0.000 A 
ATOM      5  N   UNL     1      47.334   7.061  13.235  0.00  0.00    +0.000 N 
ATOM      6  N   UNL     1      46.237   6.076  11.318  0.00  0.00    +0.000 NA
ATOM      7  C   UNL     1      45.438   5.088  10.835  0.00  0.00    +0.000 A 
ATOM      8  H   UNL     1      47.977   6.662  13.911  0.00  0.00    +0.000 HD
ENDROOT
BRANCH   1  10
ATOM      9  N   UNL     1      44.605   2.270   9.947  0.00  0.00    +0.000 N 
ATOM     10  C   UNL     1      44.090   3.018  10.971  0.00  0.00    +0.000 C 
ATOM     11  O   UNL     1      42.948   2.834  11.375  0.00  0.00    +0.000 OA
ATOM     12  H   UNL     1      44.021   1.523   9.597  0.00  0.00    +0.000 HD
ATOM     13  H   UNL     1      45.598   2.210   9.761  0.00  0.00    +0.000 HD
ENDBRANCH   1  10
BRANCH   5  14
ATOM     14  C   UNL     1      47.871   8.235  12.499  0.00  0.00    +0.000 C 
ATOM     15  C   UNL     1      49.106   7.928  11.662  0.00  0.00    +0.000 C 
ATOM     16  C   UNL     1      49.213   8.866  12.814  0.00  0.00    +0.000 C 
BRANCH  14  17
ATOM     17  C   UNL     1      46.823   9.169  11.887  0.00  0.00    +0.000 C 
ATOM     18  C   UNL     1      47.339  10.609  11.770  0.00  0.00    +0.000 C 
ATOM     19  C   UNL     1      46.255  11.512  11.199  0.00  0.00    +0.000 C 
ATOM     20  O   UNL     1      45.073  11.450  11.999  0.00  0.00    +0.000 OA
ATOM     21  C   UNL     1      44.514  10.138  12.035  0.00  0.00    +0.000 C 
ATOM     22  C   UNL     1      45.495   9.153  12.661  0.00  0.00    +0.000 C 
ENDBRANCH  14  17
ENDBRANCH   5  14
TORSDOF 3
ENDMDL
MODEL 5
REMARK VINA RESULT:    -5.108      3.924      5.794
REMARK INTER + INTRA:          -6.507
REMARK INTER:                  -5.977
REMARK INTRA:                  -0.530
REMARK UNBOUND:                -0.504
REMARK  Name = 
REMARK  3 active torsions:
REMARK  status: ('A' for Active; 'I' for Inactive)
REMARK    1  A    between atoms: C_2  and  C_4
REMARK    2  A    between atoms: N_8  and  C_9
REMARK    3  A    between atoms: C_9  and  C_10
REMARK                            x       y       z     vdW  Elec       q    Type
REMARK                         _______ _______ _______ _____ _____    ______ ____
ROOT
ATOM      1  C   UNL     1      44.648   4.938  12.041  0.00  0.00    +0.000 A 
ATOM      2  C   UNL     1      44.065   6.199  12.004  0.00  0.00    +0.000 A 
ATOM      3  C   UNL     1      44.878   7.323  12.131  0.00  0.00    +0.000 A 
ATOM      4  C   UNL     1      46.259   7.177  12.315  0.00  0.00    +0.000 A 
ATOM      5  N   UNL     1      47.031   8.365  12.308  0.00  0.00    +0.000 N 
ATOM      6  N   UNL     1      46.824   5.956  12.380  0.00  0.00    +0.000 NA
ATOM      7  C   UNL     1      46.019   4.869  12.247  0.00  0.00    +0.000 A 
ATOM      8  H   UNL     1      46.523   9.091  12.803  0.00  0.00    +0.000 HD
ENDROOT
BRANCH   1  10
ATOM      9  N   UNL     1      44.285   2.600  12.600  0.00  0.00    +0.000 N 
ATOM     10  C   UNL     1      43.874   3.691  11.882  0.00  0.00    +0.000 C 
ATOM     11  O   UNL     1      42.882   3.637  11.165  0.00  0.00    +0.000 OA
ATOM     12  H   UNL     1      43.691   1.783  12.558  0.00  0.00    +0.000 HD
ATOM     13  H   UNL     1      44.924   2.670  13.382  0.00  0.00    +0.000 HD
ENDBRANCH   1  10
BRANCH   5  14
ATOM     14  C   UNL     1      48.500   8.384  12.532  0.00  0.00    +0.000 C 
ATOM     15  C   UNL     1      49.267   9.246  11.537  0.00  0.00    +0.000 C 
ATOM     16  C   UNL     1      49.493   7.774  11.561  0.00  0.00    +0.000 C 
BRANCH  14  17
ATOM     17  C   UNL     1      48.946   8.436  13.996  0.00  0.00    +0.000 C 
ATOM     18  C   UNL     1      49.338   7.050  14.524  0.00  0.00    +0.000 C 
ATOM     19  C   UNL     1      49.733   7.138  15.992  0.00  0.00    +0.000 C 
ATOM     20  O   UNL     1      48.675   7.707  16.765  0.00  0.00    +0.000 OA
ATOM     21  C   UNL     1      48.365   9.039  16.360  0.00  0.00    +0.000 C 
ATOM     22  C   UNL     1      47.885   9.062  14.914  0.00  0.00    +0.000 C 
ENDBRANCH  14  17
ENDBRANCH   5  14
TORSDOF 3
ENDMDL
MODEL 6
REMARK VINA RESULT:    -4.962      4.267      8.055
REMARK INTER + INTRA:          -6.336
REMARK INTER:                  -6.703
REMARK INTRA:                   0.367
REMARK UNBOUND:                -0.504
REMARK  Name = 
REMARK  3 active torsions:
REMARK  status: ('A' for Active; 'I' for Inactive)
REMARK    1  A    between atoms: C_2  and  C_4
REMARK    2  A    between atoms: N_8  and  C_9
REMARK    3  A    between atoms: C_9  and  C_10
REMARK                            x       y       z     vdW  Elec       q    Type
REMARK                         _______ _______ _______ _____ _____    ______ ____
ROOT
ATOM      1  C   UNL     1      48.517   4.194  18.042  0.00  0.00    +0.000 A 
ATOM      2  C   UNL     1      48.300   2.953  17.455  0.00  0.00    +0.000 A 
ATOM      3  C   UNL     1      47.775   2.900  16.165  0.00  0.00    +0.000 A 
ATOM      4  C   UNL     1      47.451   4.081  15.486  0.00  0.00    +0.000 A 
ATOM      5  N   UNL     1      47.043   3.948  14.136  0.00  0.00    +0.000 N 
ATOM      6  N   UNL     1      47.633   5.284  16.064  0.00  0.00    +0.000 NA
ATOM      7  C   UNL     1      48.153   5.321  17.319  0.00  0.00    +0.000 A 
ATOM      8  H   UNL     1      46.448   3.130  14.051  0.00  0.00    +0.000 HD
ENDROOT
BRANCH   1  10
ATOM      9  N   UNL     1      48.444   3.756  20.433  0.00  0.00    +0.000 N 
ATOM     10  C   UNL     1      49.100   4.353  19.390  0.00  0.00    +0.000 C 
ATOM     11  O   UNL     1      50.147   4.963  19.569  0.00  0.00    +0.000 OA
ATOM     12  H   UNL     1      48.904   3.789  21.333  0.00  0.00    +0.000 HD
ATOM     13  H   UNL     1      47.739   3.043  20.298  0.00  0.00    +0.000 HD
ENDBRANCH   1  10
BRANCH   5  14
ATOM     14  C   UNL     1      46.626   5.098  13.293  0.00  0.00    +0.000 C 
ATOM     15  C   UNL     1      47.788   5.891  12.709  0.00  0.00    +0.000 C 
ATOM     16  C   UNL     1      46.870   6.543  13.685  0.00  0.00    +0.000 C 
BRANCH  14  17
ATOM     17  C   UNL     1      45.419   4.849  12.384  0.00  0.00    +0.000 C 
ATOM     18  C   UNL     1      44.131   5.443  12.968  0.00  0.00    +0.000 C 
ATOM     19  C   UNL     1      42.950   5.137  12.057  0.00  0.00    +0.000 C 
ATOM     20  O   UNL     1      42.823   3.730  11.851  0.00  0.00    +0.000 OA
ATOM     21  C   UNL     1      43.970   3.173  11.209  0.00  0.00    +0.000 C 
ATOM     22  C   UNL     1      45.212   3.359  12.073  0.00  0.00    +0.000 C 
ENDBRANCH  14  17
ENDBRANCH   5  14
TORSDOF 3
ENDMDL
MODEL 7
REMARK VINA RESULT:    -4.918      3.349      5.372
REMARK INTER + INTRA:          -6.284
REMARK INTER:                  -6.654
REMARK INTRA:                   0.369
REMARK UNBOUND:                -0.504
REMARK  Name = 
REMARK  3 active torsions:
REMARK  status: ('A' for Active; 'I' for Inactive)
REMARK    1  A    between atoms: C_2  and  C_4
REMARK    2  A    between atoms: N_8  and  C_9
REMARK    3  A    between atoms: C_9  and  C_10
REMARK                            x       y       z     vdW  Elec       q    Type
REMARK                         _______ _______ _______ _____ _____    ______ ____
ROOT
ATOM      1  C   UNL     1      44.989   4.441  11.320  0.00  0.00    +0.000 A 
ATOM      2  C   UNL     1      45.287   3.893  12.562  0.00  0.00    +0.000 A 
ATOM      3  C   UNL     1      46.142   4.586  13.418  0.00  0.00    +0.000 A 
ATOM      4  C   UNL     1      46.706   5.803  13.018  0.00  0.00    +0.000 A 
ATOM      5  N   UNL     1      47.460   6.506  13.990  0.00  0.00    +0.000 N 
ATOM      6  N   UNL     1      46.442   6.323  11.803  0.00  0.00    +0.000 NA
ATOM      7  C   UNL     1      45.601   5.640  10.982  0.00  0.00    +0.000 A 
ATOM      8  H   UNL     1      48.008   5.840  14.526  0.00  0.00    +0.000 HD
ENDROOT
BRANCH   1  10
ATOM      9  N   UNL     1      43.960   4.367   9.119  0.00  0.00    +0.000 N 
ATOM     10  C   UNL     1      44.070   3.799  10.360  0.00  0.00    +0.000 C 
ATOM     11  O   UNL     1      43.454   2.778  10.644  0.00  0.00    +0.000 OA
ATOM     12  H   UNL     1      43.404   3.864   8.441  0.00  0.00    +0.000 HD
ATOM     13  H   UNL     1      44.628   5.039   8.765  0.00  0.00    +0.000 HD
ENDBRANCH   1  10
BRANCH   5  14
ATOM     14  C   UNL     1      48.157   7.789  13.711  0.00  0.00    +0.000 C 
ATOM     15  C   UNL     1      47.948   8.852  14.781  0.00  0.00    +0.000 C 
ATOM     16  C   UNL     1      47.423   9.080  13.405  0.00  0.00    +0.000 C 
BRANCH  14  17
ATOM     17  C   UNL     1      49.560   7.663  13.111  0.00  0.00    +0.000 C 
ATOM     18  C   UNL     1      50.544   8.653  13.746  0.00  0.00    +0.000 C 
ATOM     19  C   UNL     1      51.914   8.526  13.094  0.00  0.00    +0.000 C 
ATOM     20  O   UNL     1      51.821   8.721  11.682  0.00  0.00    +0.000 OA
ATOM     21  C   UNL     1      50.994   7.743  11.055  0.00  0.00    +0.000 C 
ATOM     22  C   UNL     1      49.567   7.828  11.584  0.00  0.00    +0.000 C 
ENDBRANCH  14  17
ENDBRANCH   5  14
TORSDOF 3
ENDMDL
MODEL 8
REMARK VINA RESULT:    -4.859      6.148      9.192
REMARK INTER + INTRA:          -6.215
REMARK INTER:                  -5.870
REMARK INTRA:                  -0.345
REMARK UNBOUND:                -0.504
REMARK  Name = 
REMARK  3 active torsions:
REMARK  status: ('A' for Active; 'I' for Inactive)
REMARK    1  A    between atoms: C_2  and  C_4
REMARK    2  A    between atoms: N_8  and  C_9
REMARK    3  A    between atoms: C_9  and  C_10
REMARK                            x       y       z     vdW  Elec       q    Type
REMARK                         _______ _______ _______ _____ _____    ______ ____
ROOT
ATOM      1  C   UNL     1      52.275   1.808  17.672  0.00  0.00    +0.000 A 
ATOM      2  C   UNL     1      52.750   3.056  18.057  0.00  0.00    +0.000 A 
ATOM      3  C   UNL     1      51.881   4.146  18.033  0.00  0.00    +0.000 A 
ATOM      4  C   UNL     1      50.558   3.983  17.605  0.00  0.00    +0.000 A 
ATOM      5  N   UNL     1      49.705   5.107  17.731  0.00  0.00    +0.000 N 
ATOM      6  N   UNL     1      50.102   2.780  17.204  0.00  0.00    +0.000 NA
ATOM      7  C   UNL     1      50.959   1.725  17.240  0.00  0.00    +0.000 A 
ATOM      8  H   UNL     1      50.224   5.943  17.480  0.00  0.00    +0.000 HD
ENDROOT
BRANCH   1  10
ATOM      9  N   UNL     1      52.639  -0.481  18.406  0.00  0.00    +0.000 N 
ATOM     10  C   UNL     1      53.110   0.590  17.695  0.00  0.00    +0.000 C 
ATOM     11  O   UNL     1      54.165   0.523  17.076  0.00  0.00    +0.000 OA
ATOM     12  H   UNL     1      53.170  -1.338  18.334  0.00  0.00    +0.000 HD
ATOM     13  H   UNL     1      51.676  -0.555  18.708  0.00  0.00    +0.000 HD
ENDBRANCH   1  10
BRANCH   5  14
ATOM     14  C   UNL     1      48.288   5.110  17.284  0.00  0.00    +0.000 C 
ATOM     15  C   UNL     1      47.287   5.370  18.402  0.00  0.00    +0.000 C 
ATOM     16  C   UNL     1      47.285   4.053  17.706  0.00  0.00    +0.000 C 
BRANCH  14  17
ATOM     17  C   UNL     1      48.021   5.780  15.933  0.00  0.00    +0.000 C 
ATOM     18  C   UNL     1      47.536   4.774  14.881  0.00  0.00    +0.000 C 
ATOM     19  C   UNL     1      47.324   5.470  13.544  0.00  0.00    +0.000 C 
ATOM     20  O   UNL     1      48.521   6.124  13.121  0.00  0.00    +0.000 OA
ATOM     21  C   UNL     1      48.933   7.140  14.033  0.00  0.00    +0.000 C 
ATOM     22  C   UNL     1      49.244   6.541  15.400  0.00  0.00    +0.000 C 
ENDBRANCH  14  17
ENDBRANCH   5  14
TORSDOF 3
ENDMDL
MODEL 9
REMARK VINA RESULT:    -4.763      1.402      2.049
REMARK INTER + INTRA:          -6.103
REMARK INTER:                  -6.859
REMARK INTRA:                   0.756
REMARK UNBOUND:                -0.504
REMARK  Name = 
REMARK  3 active torsions:
REMARK  status: ('A' for Active; 'I' for Inactive)
REMARK    1  A    between atoms: C_2  and  C_4
REMARK    2  A    between atoms: N_8  and  C_9
REMARK    3  A    between atoms: C_9  and  C_10
REMARK                            x       y       z     vdW  Elec       q    Type
REMARK                         _______ _______ _______ _____ _____    ______ ____
ROOT
ATOM      1  C   UNL     1      46.364   2.111   7.674  0.00  0.00    +0.000 A 
ATOM      2  C   UNL     1      46.089   3.280   6.975  0.00  0.00    +0.000 A 
ATOM      3  C   UNL     1      45.588   4.379   7.670  0.00  0.00    +0.000 A 
ATOM      4  C   UNL     1      45.346   4.293   9.046  0.00  0.00    +0.000 A 
ATOM      5  N   UNL     1      44.958   5.488   9.701  0.00  0.00    +0.000 N 
ATOM      6  N   UNL     1      45.584   3.152   9.721  0.00  0.00    +0.000 NA
ATOM      7  C   UNL     1      46.080   2.090   9.032  0.00  0.00    +0.000 A 
ATOM      8  H   UNL     1      44.319   6.000   9.101  0.00  0.00    +0.000 HD
ENDROOT
BRANCH   1  10
ATOM      9  N   UNL     1      46.698  -0.298   7.643  0.00  0.00    +0.000 N 
ATOM     10  C   UNL     1      46.928   0.906   7.032  0.00  0.00    +0.000 C 
ATOM     11  O   UNL     1      47.547   0.971   5.977  0.00  0.00    +0.000 OA
ATOM     12  H   UNL     1      47.004  -1.122   7.144  0.00  0.00    +0.000 HD
ATOM     13  H   UNL     1      45.989  -0.422   8.354  0.00  0.00    +0.000 HD
ENDBRANCH   1  10
BRANCH   5  14
ATOM     14  C   UNL     1      44.624   5.554  11.148  0.00  0.00    +0.000 C 
ATOM     15  C   UNL     1      43.294   4.905  11.506  0.00  0.00    +0.000 C 
ATOM     16  C   UNL     1      43.471   6.372  11.694  0.00  0.00    +0.000 C 
BRANCH  14  17
ATOM     17  C   UNL     1      45.796   5.330  12.108  0.00  0.00    +0.000 C 
ATOM     18  C   UNL     1      45.502   4.215  13.120  0.00  0.00    +0.000 C 
ATOM     19  C   UNL     1      46.671   4.053  14.081  0.00  0.00    +0.000 C 
ATOM     20  O   UNL     1      46.956   5.288  14.740  0.00  0.00    +0.000 OA
ATOM     21  C   UNL     1      47.337   6.313  13.825  0.00  0.00    +0.000 C 
ATOM     22  C   UNL     1      46.204   6.612  12.850  0.00  0.00    +0.000 C 
ENDBRANCH  14  17
ENDBRANCH   5  14
TORSDOF 3
ENDMDL
