MODEL 1
REMARK VINA RESULT:    -8.081      0.000      0.000
REMARK INTER + INTRA:         -11.905
REMARK INTER:                 -10.915
REMARK INTRA:                  -0.990
REMARK UNBOUND:                -0.990
REMARK  Name = 
REMARK  6 active torsions:
REMARK  status: ('A' for Active; 'I' for Inactive)
REMARK    1  A    between atoms: C_2  and  C_25
REMARK    2  A    between atoms: N_3  and  C_4
REMARK    3  A    between atoms: C_4  and  C_5
REMARK    4  A    between atoms: C_8  and  C_9
REMARK    5  A    between atoms: C_9  and  N_10
REMARK    6  A    between atoms: C_11  and  C_13
REMARK                            x       y       z     vdW  Elec       q    Type
REMARK                         _______ _______ _______ _____ _____    ______ ____
ROOT
ATOM      1  C   UNL     1      44.899   6.019  11.118  0.00  0.00    +0.000 A 
ATOM      2  C   UNL     1      44.472   7.285  11.503  0.00  0.00    +0.000 A 
ATOM      3  C   UNL     1      45.279   8.040  12.350  0.00  0.00    +0.000 A 
ATOM      4  C   UNL     1      46.490   7.516  12.804  0.00  0.00    +0.000 A 
ATOM      5  C   UNL     1      46.852   6.257  12.341  0.00  0.00    +0.000 A 
ATOM      6  N   UNL     1      46.093   5.502  11.511  0.00  0.00    +0.000 NA
ENDROOT
BRANCH   1   7
ATOM      7  C   UNL     1      44.056   5.181  10.186  0.00  0.00    +0.000 C 
BRANCH   7  10
ATOM      8  O   UNL     1      44.573   2.424   9.977  0.00  0.00    +0.000 OA
ATOM      9  C   UNL     1      45.041   3.181   9.132  0.00  0.00    +0.000 C 
ATOM     10  N   UNL     1      44.857   4.540   9.168  0.00  0.00    +0.000 N 
ATOM     11  H   UNL     1      45.052   5.082   8.339  0.00  0.00    +0.000 HD
BRANCH   9  12
ATOM     12  C   UNL     1      45.819   2.700   8.012  0.00  0.00    +0.000 A 
ATOM     13  C   UNL     1      46.147   3.275   6.793  0.00  0.00    +0.000 A 
ATOM     14  C   UNL     1      46.969   2.367   6.082  0.00  0.00    +0.000 A 
ATOM     15  C   UNL     1      47.127   1.255   6.874  0.00  0.00    +0.000 A 
ATOM     16  N   UNL     1      46.436   1.467   8.038  0.00  0.00    +0.000 N 
ATOM     17  H   UNL     1      46.380   0.829   8.823  0.00  0.00    +0.000 HD
ENDBRANCH   9  12
ENDBRANCH   7  10
ENDBRANCH   1   7
BRANCH   4  18
ATOM     18  C   UNL     1      47.389   8.301  13.712  0.00  0.00    +0.000 C 
BRANCH  18  19
ATOM     19  N   UNL     1      47.745   7.535  14.880  0.00  0.00    +0.000 N 
ATOM     20  C   UNL     1      48.981   6.955  14.997  0.00  0.00    +0.000 C 
ATOM     21  O   UNL     1      49.852   7.105  14.144  0.00  0.00    +0.000 OA
ATOM     22  H   UNL     1      46.984   7.204  15.464  0.00  0.00    +0.000 HD
BRANCH  20  23
ATOM     23  C   UNL     1      49.236   6.196  16.228  0.00  0.00    +0.000 A 
ATOM     24  C   UNL     1      50.272   6.579  17.070  0.00  0.00    +0.000 A 
ATOM     25  S   UNL     1      50.392   5.632  18.483  0.00  0.00    +0.000 S 
ATOM     26  C   UNL     1      49.098   4.643  17.995  0.00  0.00    +0.000 A 
ATOM     27  N   UNL     1      48.688   3.598  18.763  0.00  0.00    +0.000 NA
ATOM     28  C   UNL     1      47.719   2.909  18.258  0.00  0.00    +0.000 A 
ATOM     29  N   UNL     1      47.119   3.176  17.055  0.00  0.00    +0.000 N 
ATOM     30  C   UNL     1      47.479   4.237  16.259  0.00  0.00    +0.000 A 
ATOM     31  O   UNL     1      46.899   4.468  15.203  0.00  0.00    +0.000 OA
ATOM     32  C   UNL     1      48.572   5.037  16.777  0.00  0.00    +0.000 A 
ATOM     33  H   UNL     1      46.362   2.602  16.717  0.00  0.00    +0.000 HD
ENDBRANCH  20  23
ENDBRANCH  18  19
ENDBRANCH   4  18
TORSDOF 6
ENDMDL
MODEL 2
REMARK VINA RESULT:    -7.608      1.638      1.960
REMARK INTER + INTRA:         -11.266
REMARK INTER:                 -10.449
REMARK INTRA:                  -0.817
REMARK UNBOUND:                -0.990
REMARK  Name = 
REMARK  6 active torsions:
REMARK  status: ('A' for Active; 'I' for Inactive)
REMARK    1  A    between atoms: C_2  and  C_25
REMARK    2  A    between atoms: N_3  and  C_4
REMARK    3  A    between atoms: C_4  and  C_5
REMARK    4  A    between atoms: C_8  and  C_9
REMARK    5  A    between atoms: C_9  and  N_10
REMARK    6  A    between atoms: C_11  and  C_13
REMARK                            x       y       z     vdW  Elec       q    Type
REMARK                         _______ _______ _______ _____ _____    ______ ____
ROOT
ATOM      1  C   UNL     1      45.309   5.008  11.638  0.00  0.00    +0.000 A 
ATOM      2  C   UNL     1      45.856   4.577  12.842  0.00  0.00    +0.000 A 
ATOM      3  C   UNL     1      46.738   5.414  13.520  0.00  0.00    +0.000 A 
ATOM      4  C   UNL     1      47.064   6.659  12.982  0.00  0.00    +0.000 A 
ATOM      5  C   UNL     1      46.445   7.021  11.792  0.00  0.00    +0.000 A 
ATOM      6  N   UNL     1      45.577   6.233  11.113  0.00  0.00    +0.000 NA
ENDROOT
BRANCH   1   7
ATOM      7  C   UNL     1      44.335   4.131  10.887  0.00  0.00    +0.000 C 
BRANCH   7  10
ATOM      8  O   UNL     1      45.016   4.564   8.192  0.00  0.00    +0.000 OA
ATOM      9  C   UNL     1      45.325   3.498   8.718  0.00  0.00    +0.000 C 
ATOM     10  N   UNL     1      45.013   3.195  10.019  0.00  0.00    +0.000 N 
ATOM     11  H   UNL     1      45.487   2.426  10.469  0.00  0.00    +0.000 HD
BRANCH   9  12
ATOM     12  C   UNL     1      46.057   2.472   8.011  0.00  0.00    +0.000 A 
ATOM     13  C   UNL     1      46.972   2.532   6.971  0.00  0.00    +0.000 A 
ATOM     14  C   UNL     1      47.408   1.214   6.688  0.00  0.00    +0.000 A 
ATOM     15  C   UNL     1      46.752   0.373   7.555  0.00  0.00    +0.000 A 
ATOM     16  N   UNL     1      45.945   1.139   8.353  0.00  0.00    +0.000 N 
ATOM     17  H   UNL     1      45.350   0.802   9.101  0.00  0.00    +0.000 HD
ENDBRANCH   9  12
ENDBRANCH   7  10
ENDBRANCH   1   7
BRANCH   4  18
ATOM     18  C   UNL     1      48.006   7.592  13.684  0.00  0.00    +0.000 C 
BRANCH  18  19
ATOM     19  N   UNL     1      47.890   7.467  15.115  0.00  0.00    +0.000 N 
ATOM     20  C   UNL     1      48.936   7.013  15.874  0.00  0.00    +0.000 C 
ATOM     21  O   UNL     1      50.028   6.743  15.380  0.00  0.00    +0.000 OA
ATOM     22  H   UNL     1      46.952   7.450  15.502  0.00  0.00    +0.000 HD
BRANCH  20  23
ATOM     23  C   UNL     1      48.707   6.924  17.322  0.00  0.00    +0.000 A 
ATOM     24  C   UNL     1      48.368   8.065  18.035  0.00  0.00    +0.000 A 
ATOM     25  S   UNL     1      48.076   7.778  19.691  0.00  0.00    +0.000 S 
ATOM     26  C   UNL     1      48.445   6.126  19.524  0.00  0.00    +0.000 A 
ATOM     27  N   UNL     1      48.407   5.289  20.596  0.00  0.00    +0.000 NA
ATOM     28  C   UNL     1      48.743   4.070  20.335  0.00  0.00    +0.000 A 
ATOM     29  N   UNL     1      49.108   3.610  19.096  0.00  0.00    +0.000 N 
ATOM     30  C   UNL     1      49.132   4.411  17.980  0.00  0.00    +0.000 A 
ATOM     31  O   UNL     1      49.432   3.961  16.878  0.00  0.00    +0.000 OA
ATOM     32  C   UNL     1      48.773   5.796  18.221  0.00  0.00    +0.000 A 
ATOM     33  H   UNL     1      49.356   2.643  18.957  0.00  0.00    +0.000 HD
ENDBRANCH  20  23
ENDBRANCH  18  19
ENDBRANCH   4  18
TORSDOF 6
ENDMDL
MODEL 3
REMARK VINA RESULT:    -7.336      2.448      4.193
REMARK INTER + INTRA:         -10.899
REMARK INTER:                  -9.897
REMARK INTRA:                  -1.002
REMARK UNBOUND:                -0.990
REMARK  Name = 
REMARK  6 active torsions:
REMARK  status: ('A' for Active; 'I' for Inactive)
REMARK    1  A    between atoms: C_2  and  C_25
REMARK    2  A    between atoms: N_3  and  C_4
REMARK    3  A    between atoms: C_4  and  C_5
REMARK    4  A    between atoms: C_8  and  C_9
REMARK    5  A    between atoms: C_9  and  N_10
REMARK    6  A    between atoms: C_11  and  C_13
REMARK                            x       y       z     vdW  Elec       q    Type
REMARK                         _______ _______ _______ _____ _____    ______ ____
ROOT
ATOM      1  C   UNL     1      44.809   4.431  11.397  0.00  0.00    +0.000 A 
ATOM      2  C   UNL     1      45.293   3.327  12.090  0.00  0.00    +0.000 A 
ATOM      3  C   UNL     1      46.063   3.532  13.232  0.00  0.00    +0.000 A 
ATOM      4  C   UNL     1      46.342   4.832  13.656  0.00  0.00    +0.000 A 
ATOM      5  C   UNL     1      45.789   5.873  12.922  0.00  0.00    +0.000 A 
ATOM      6  N   UNL     1      45.031   5.706  11.812  0.00  0.00    +0.000 NA
ENDROOT
BRANCH   1   7
ATOM      7  C   UNL     1      43.957   4.242  10.164  0.00  0.00    +0.000 C 
BRANCH   7  10
ATOM      8  O   UNL     1      45.972   5.237   8.474  0.00  0.00    +0.000 OA
ATOM      9  C   UNL     1      45.640   4.060   8.371  0.00  0.00    +0.000 C 
ATOM     10  N   UNL     1      44.652   3.498   9.139  0.00  0.00    +0.000 N 
ATOM     11  H   UNL     1      44.582   2.492   9.186  0.00  0.00    +0.000 HD
BRANCH   9  12
ATOM     12  C   UNL     1      46.272   3.158   7.434  0.00  0.00    +0.000 A 
ATOM     13  C   UNL     1      46.663   3.314   6.113  0.00  0.00    +0.000 A 
ATOM     14  C   UNL     1      47.271   2.108   5.686  0.00  0.00    +0.000 A 
ATOM     15  C   UNL     1      47.239   1.237   6.749  0.00  0.00    +0.000 A 
ATOM     16  N   UNL     1      46.642   1.880   7.800  0.00  0.00    +0.000 N 
ATOM     17  H   UNL     1      46.490   1.497   8.726  0.00  0.00    +0.000 HD
ENDBRANCH   9  12
ENDBRANCH   7  10
ENDBRANCH   1   7
BRANCH   4  18
ATOM     18  C   UNL     1      47.162   5.094  14.884  0.00  0.00    +0.000 C 
BRANCH  18  19
ATOM     19  N   UNL     1      47.827   6.368  14.803  0.00  0.00    +0.000 N 
ATOM     20  C   UNL     1      49.026   6.584  15.432  0.00  0.00    +0.000 C 
ATOM     21  O   UNL     1      49.607   5.691  16.044  0.00  0.00    +0.000 OA
ATOM     22  H   UNL     1      47.267   7.165  14.519  0.00  0.00    +0.000 HD
BRANCH  20  23
ATOM     23  C   UNL     1      49.614   7.921  15.284  0.00  0.00    +0.000 A 
ATOM     24  C   UNL     1      49.941   8.657  16.415  0.00  0.00    +0.000 A 
ATOM     25  S   UNL     1      50.671  10.158  16.069  0.00  0.00    +0.000 S 
ATOM     26  C   UNL     1      50.528   9.903  14.394  0.00  0.00    +0.000 A 
ATOM     27  N   UNL     1      50.954  10.839  13.504  0.00  0.00    +0.000 NA
ATOM     28  C   UNL     1      50.753  10.532  12.265  0.00  0.00    +0.000 A 
ATOM     29  N   UNL     1      50.169   9.368  11.837  0.00  0.00    +0.000 N 
ATOM     30  C   UNL     1      49.750   8.382  12.696  0.00  0.00    +0.000 A 
ATOM     31  O   UNL     1      49.261   7.337  12.279  0.00  0.00    +0.000 OA
ATOM     32  C   UNL     1      49.943   8.683  14.102  0.00  0.00    +0.000 A 
ATOM     33  H   UNL     1      50.045   9.186  10.853  0.00  0.00    +0.000 HD
ENDBRANCH  20  23
ENDBRANCH  18  19
ENDBRANCH   4  18
TORSDOF 6
ENDMDL
MODEL 4
REMARK VINA RESULT:    -7.291      4.574      9.533
REMARK INTER + INTRA:         -10.839
REMARK INTER:                 -10.083
REMARK INTRA:                  -0.755
REMARK UNBOUND:                -0.990
REMARK  Name = 
REMARK  6 active torsions:
REMARK  status: ('A' for Active; 'I' for Inactive)
REMARK    1  A    between atoms: C_2  and  C_25
REMARK    2  A    between atoms: N_3  and  C_4
REMARK    3  A    between atoms: C_4  and  C_5
REMARK    4  A    between atoms: C_8  and  C_9
REMARK    5  A    between atoms: C_9  and  N_10
REMARK    6  A    between atoms: C_11  and  C_13
REMARK                            x       y       z     vdW  Elec       q    Type
REMARK                         _______ _______ _______ _____ _____    ______ ____
ROOT
ATOM      1  C   UNL     1      51.434   2.872  17.724  0.00  0.00    +0.000 A 
ATOM      2  C   UNL     1      50.703   1.888  17.067  0.00  0.00    +0.000 A 
ATOM      3  C   UNL     1      49.348   2.102  16.829  0.00  0.00    +0.000 A 
ATOM      4  C   UNL     1      48.747   3.286  17.255  0.00  0.00    +0.000 A 
ATOM      5  C   UNL     1      49.562   4.227  17.873  0.00  0.00    +0.000 A 
ATOM      6  N   UNL     1      50.884   4.052  18.112  0.00  0.00    +0.000 NA
ENDROOT
BRANCH   1   7
ATOM      7  C   UNL     1      52.910   2.678  17.982  0.00  0.00    +0.000 C 
BRANCH   7  10
ATOM      8  O   UNL     1      54.171   0.483  16.756  0.00  0.00    +0.000 OA
ATOM      9  C   UNL     1      53.824   0.388  17.929  0.00  0.00    +0.000 C 
ATOM     10  N   UNL     1      53.184   1.400  18.599  0.00  0.00    +0.000 N 
ATOM     11  H   UNL     1      53.137   1.366  19.607  0.00  0.00    +0.000 HD
BRANCH   9  12
ATOM     12  C   UNL     1      54.073  -0.800  18.714  0.00  0.00    +0.000 A 
ATOM     13  C   UNL     1      55.209  -1.268  19.358  0.00  0.00    +0.000 A 
ATOM     14  C   UNL     1      54.879  -2.480  20.014  0.00  0.00    +0.000 A 
ATOM     15  C   UNL     1      53.552  -2.733  19.757  0.00  0.00    +0.000 A 
ATOM     16  N   UNL     1      53.073  -1.713  18.979  0.00  0.00    +0.000 N 
ATOM     17  H   UNL     1      52.122  -1.615  18.642  0.00  0.00    +0.000 HD
ENDBRANCH   9  12
ENDBRANCH   7  10
ENDBRANCH   1   7
BRANCH   4  18
ATOM     18  C   UNL     1      47.292   3.556  17.012  0.00  0.00    +0.000 C 
BRANCH  18  19
ATOM     19  N   UNL     1      47.113   4.593  16.028  0.00  0.00    +0.000 N 
ATOM     20  C   UNL     1      47.117   4.307  14.688  0.00  0.00    +0.000 C 
ATOM     21  O   UNL     1      47.220   3.157  14.270  0.00  0.00    +0.000 OA
ATOM     22  H   UNL     1      47.267   5.549  16.332  0.00  0.00    +0.000 HD
BRANCH  20  23
ATOM     23  C   UNL     1      46.928   5.441  13.774  0.00  0.00    +0.000 A 
ATOM     24  C   UNL     1      47.976   6.322  13.545  0.00  0.00    +0.000 A 
ATOM     25  S   UNL     1      47.611   7.543  12.413  0.00  0.00    +0.000 S 
ATOM     26  C   UNL     1      46.021   6.970  12.227  0.00  0.00    +0.000 A 
ATOM     27  N   UNL     1      45.145   7.594  11.394  0.00  0.00    +0.000 NA
ATOM     28  C   UNL     1      43.962   7.076  11.375  0.00  0.00    +0.000 A 
ATOM     29  N   UNL     1      43.577   5.985  12.111  0.00  0.00    +0.000 N 
ATOM     30  C   UNL     1      44.435   5.305  12.942  0.00  0.00    +0.000 A 
ATOM     31  O   UNL     1      44.068   4.312  13.562  0.00  0.00    +0.000 OA
ATOM     32  C   UNL     1      45.776   5.855  13.008  0.00  0.00    +0.000 A 
ATOM     33  H   UNL     1      42.638   5.626  12.048  0.00  0.00    +0.000 HD
ENDBRANCH  20  23
ENDBRANCH  18  19
ENDBRANCH   4  18
TORSDOF 6
ENDMDL
MODEL 5
REMARK VINA RESULT:    -7.116      4.580      9.485
REMARK INTER + INTRA:         -10.601
REMARK INTER:                  -9.582
REMARK INTRA:                  -1.019
REMARK UNBOUND:                -0.990
REMARK  Name = 
REMARK  6 active torsions:
REMARK  status: ('A' for Active; 'I' for Inactive)
REMARK    1  A    between atoms: C_2  and  C_25
REMARK    2  A    between atoms: N_3  and  C_4
REMARK    3  A    between atoms: C_4  and  C_5
REMARK    4  A    between atoms: C_8  and  C_9
REMARK    5  A    between atoms: C_9  and  N_10
REMARK    6  A    between atoms: C_11  and  C_13
REMARK                            x       y       z     vdW  Elec       q    Type
REMARK                         _______ _______ _______ _____ _____    ______ ____
ROOT
ATOM      1  C   UNL     1      51.390   2.875  17.711  0.00  0.00    +0.000 A 
ATOM      2  C   UNL     1      50.620   1.891  17.100  0.00  0.00    +0.000 A 
ATOM      3  C   UNL     1      49.274   2.146  16.853  0.00  0.00    +0.000 A 
ATOM      4  C   UNL     1      48.720   3.371  17.225  0.00  0.00    +0.000 A 
ATOM      5  C   UNL     1      49.572   4.307  17.798  0.00  0.00    +0.000 A 
ATOM      6  N   UNL     1      50.887   4.092  18.045  0.00  0.00    +0.000 NA
ENDROOT
BRANCH   1   7
ATOM      7  C   UNL     1      52.858   2.637  17.977  0.00  0.00    +0.000 C 
BRANCH   7  10
ATOM      8  O   UNL     1      54.012   0.384  16.750  0.00  0.00    +0.000 OA
ATOM      9  C   UNL     1      53.679   0.312  17.929  0.00  0.00    +0.000 C 
ATOM     10  N   UNL     1      53.090   1.353  18.599  0.00  0.00    +0.000 N 
ATOM     11  H   UNL     1      53.056   1.329  19.608  0.00  0.00    +0.000 HD
BRANCH   9  12
ATOM     12  C   UNL     1      53.891  -0.880  18.720  0.00  0.00    +0.000 A 
ATOM     13  C   UNL     1      55.010  -1.377  19.370  0.00  0.00    +0.000 A 
ATOM     14  C   UNL     1      54.644  -2.577  20.029  0.00  0.00    +0.000 A 
ATOM     15  C   UNL     1      53.312  -2.794  19.767  0.00  0.00    +0.000 A 
ATOM     16  N   UNL     1      52.864  -1.764  18.984  0.00  0.00    +0.000 N 
ATOM     17  H   UNL     1      51.918  -1.640  18.642  0.00  0.00    +0.000 HD
ENDBRANCH   9  12
ENDBRANCH   7  10
ENDBRANCH   1   7
BRANCH   4  18
ATOM     18  C   UNL     1      47.276   3.685  16.970  0.00  0.00    +0.000 C 
BRANCH  18  19
ATOM     19  N   UNL     1      47.134   4.668  15.926  0.00  0.00    +0.000 N 
ATOM     20  C   UNL     1      47.146   4.305  14.604  0.00  0.00    +0.000 C 
ATOM     21  O   UNL     1      47.226   3.130  14.255  0.00  0.00    +0.000 OA
ATOM     22  H   UNL     1      47.309   5.636  16.176  0.00  0.00    +0.000 HD
BRANCH  20  23
ATOM     23  C   UNL     1      46.996   5.388  13.625  0.00  0.00    +0.000 A 
ATOM     24  C   UNL     1      45.963   5.338  12.698  0.00  0.00    +0.000 A 
ATOM     25  S   UNL     1      45.893   6.701  11.676  0.00  0.00    +0.000 S 
ATOM     26  C   UNL     1      47.272   7.383  12.400  0.00  0.00    +0.000 A 
ATOM     27  N   UNL     1      47.773   8.572  11.969  0.00  0.00    +0.000 NA
ATOM     28  C   UNL     1      48.843   8.956  12.583  0.00  0.00    +0.000 A 
ATOM     29  N   UNL     1      49.454   8.259  13.593  0.00  0.00    +0.000 N 
ATOM     30  C   UNL     1      48.969   7.070  14.080  0.00  0.00    +0.000 A 
ATOM     31  O   UNL     1      49.521   6.487  15.008  0.00  0.00    +0.000 OA
ATOM     32  C   UNL     1      47.772   6.588  13.416  0.00  0.00    +0.000 A 
ATOM     33  H   UNL     1      50.287   8.616  14.035  0.00  0.00    +0.000 HD
ENDBRANCH  20  23
ENDBRANCH  18  19
ENDBRANCH   4  18
TORSDOF 6
ENDMDL
MODEL 6
REMARK VINA RESULT:    -6.980      2.401      3.122
REMARK INTER + INTRA:         -10.418
REMARK INTER:                  -9.539
REMARK INTRA:                  -0.879
REMARK UNBOUND:                -0.990
REMARK  Name = 
REMARK  6 active torsions:
REMARK  status: ('A' for Active; 'I' for Inactive)
REMARK    1  A    between atoms: C_2  and  C_25
REMARK    2  A    between atoms: N_3  and  C_4
REMARK    3  A    between atoms: C_4  and  C_5
REMARK    4  A    between atoms: C_8  and  C_9
REMARK    5  A    between atoms: C_9  and  N_10
REMARK    6  A    between atoms: C_11  and  C_13
REMARK                            x       y       z     vdW  Elec       q    Type
REMARK                         _______ _______ _______ _____ _____    ______ ____
ROOT
ATOM      1  C   UNL     1      44.843   4.555  11.681  0.00  0.00    +0.000 A 
ATOM      2  C   UNL     1      45.727   4.379  12.740  0.00  0.00    +0.000 A 
ATOM      3  C   UNL     1      46.321   5.499  13.316  0.00  0.00    +0.000 A 
ATOM      4  C   UNL     1      46.029   6.770  12.821  0.00  0.00    +0.000 A 
ATOM      5  C   UNL     1      45.109   6.854  11.783  0.00  0.00    +0.000 A 
ATOM      6  N   UNL     1      44.509   5.784  11.207  0.00  0.00    +0.000 NA
ENDROOT
BRANCH   1   7
ATOM      7  C   UNL     1      44.168   3.362  11.046  0.00  0.00    +0.000 C 
BRANCH   7  10
ATOM      8  O   UNL     1      44.327   4.204   8.367  0.00  0.00    +0.000 OA
ATOM      9  C   UNL     1      45.018   3.258   8.733  0.00  0.00    +0.000 C 
ATOM     10  N   UNL     1      44.987   2.768  10.014  0.00  0.00    +0.000 N 
ATOM     11  H   UNL     1      45.732   2.160  10.323  0.00  0.00    +0.000 HD
BRANCH   9  12
ATOM     12  C   UNL     1      45.937   2.583   7.843  0.00  0.00    +0.000 A 
ATOM     13  C   UNL     1      46.568   2.988   6.677  0.00  0.00    +0.000 A 
ATOM     14  C   UNL     1      47.396   1.930   6.231  0.00  0.00    +0.000 A 
ATOM     15  C   UNL     1      47.255   0.897   7.128  0.00  0.00    +0.000 A 
ATOM     16  N   UNL     1      46.379   1.301   8.099  0.00  0.00    +0.000 N 
ATOM     17  H   UNL     1      46.089   0.760   8.905  0.00  0.00    +0.000 HD
ENDBRANCH   9  12
ENDBRANCH   7  10
ENDBRANCH   1   7
BRANCH   4  18
ATOM     18  C   UNL     1      46.644   8.001  13.418  0.00  0.00    +0.000 C 
BRANCH  18  19
ATOM     19  N   UNL     1      48.039   7.797  13.709  0.00  0.00    +0.000 N 
ATOM     20  C   UNL     1      48.840   8.835  14.108  0.00  0.00    +0.000 C 
ATOM     21  O   UNL     1      48.395   9.966  14.286  0.00  0.00    +0.000 OA
ATOM     22  H   UNL     1      48.469   6.953  13.344  0.00  0.00    +0.000 HD
BRANCH  20  23
ATOM     23  C   UNL     1      50.247   8.514  14.376  0.00  0.00    +0.000 A 
ATOM     24  C   UNL     1      51.248   9.174  13.675  0.00  0.00    +0.000 A 
ATOM     25  S   UNL     1      52.825   8.730  14.150  0.00  0.00    +0.000 S 
ATOM     26  C   UNL     1      52.227   7.600  15.273  0.00  0.00    +0.000 A 
ATOM     27  N   UNL     1      53.072   6.843  16.021  0.00  0.00    +0.000 NA
ATOM     28  C   UNL     1      52.485   6.002  16.807  0.00  0.00    +0.000 A 
ATOM     29  N   UNL     1      51.127   5.855  16.915  0.00  0.00    +0.000 N 
ATOM     30  C   UNL     1      50.234   6.618  16.201  0.00  0.00    +0.000 A 
ATOM     31  O   UNL     1      49.022   6.485  16.346  0.00  0.00    +0.000 OA
ATOM     32  C   UNL     1      50.843   7.572  15.294  0.00  0.00    +0.000 A 
ATOM     33  H   UNL     1      50.729   5.182  17.552  0.00  0.00    +0.000 HD
ENDBRANCH  20  23
ENDBRANCH  18  19
ENDBRANCH   4  18
TORSDOF 6
ENDMDL
MODEL 7
REMARK VINA RESULT:    -6.863      3.609      8.350
REMARK INTER + INTRA:         -10.260
REMARK INTER:                  -9.437
REMARK INTRA:                  -0.823
REMARK UNBOUND:                -0.990
REMARK  Name = 
REMARK  6 active torsions:
REMARK  status: ('A' for Active; 'I' for Inactive)
REMARK    1  A    between atoms: C_2  and  C_25
REMARK    2  A    between atoms: N_3  and  C_4
REMARK    3  A    between atoms: C_4  and  C_5
REMARK    4  A    between atoms: C_8  and  C_9
REMARK    5  A    between atoms: C_9  and  N_10
REMARK    6  A    between atoms: C_11  and  C_13
REMARK                            x       y       z     vdW  Elec       q    Type
REMARK                         _______ _______ _______ _____ _____    ______ ____
ROOT
ATOM      1  C   UNL     1      48.998   5.067  17.179  0.00  0.00    +0.000 A 
ATOM      2  C   UNL     1      49.656   6.249  16.859  0.00  0.00    +0.000 A 
ATOM      3  C   UNL     1      49.359   6.881  15.654  0.00  0.00    +0.000 A 
ATOM      4  C   UNL     1      48.419   6.320  14.790  0.00  0.00    +0.000 A 
ATOM      5  C   UNL     1      47.786   5.155  15.207  0.00  0.00    +0.000 A 
ATOM      6  N   UNL     1      48.048   4.521  16.375  0.00  0.00    +0.000 NA
ENDROOT
BRANCH   1   7
ATOM      7  C   UNL     1      49.284   4.366  18.486  0.00  0.00    +0.000 C 
BRANCH   7  10
ATOM      8  O   UNL     1      49.766   1.947  17.133  0.00  0.00    +0.000 OA
ATOM      9  C   UNL     1      50.689   2.479  17.742  0.00  0.00    +0.000 C 
ATOM     10  N   UNL     1      50.538   3.647  18.446  0.00  0.00    +0.000 N 
ATOM     11  H   UNL     1      51.361   4.161  18.723  0.00  0.00    +0.000 HD
BRANCH   9  12
ATOM     12  C   UNL     1      52.024   1.925  17.760  0.00  0.00    +0.000 A 
ATOM     13  C   UNL     1      53.278   2.519  17.751  0.00  0.00    +0.000 A 
ATOM     14  C   UNL     1      54.254   1.495  17.814  0.00  0.00    +0.000 A 
ATOM     15  C   UNL     1      53.583   0.296  17.857  0.00  0.00    +0.000 A 
ATOM     16  N   UNL     1      52.241   0.564  17.831  0.00  0.00    +0.000 N 
ATOM     17  H   UNL     1      51.494  -0.120  17.868  0.00  0.00    +0.000 HD
ENDBRANCH   9  12
ENDBRANCH   7  10
ENDBRANCH   1   7
BRANCH   4  18
ATOM     18  C   UNL     1      48.067   6.974  13.487  0.00  0.00    +0.000 C 
BRANCH  18  19
ATOM     19  N   UNL     1      47.369   6.061  12.618  0.00  0.00    +0.000 N 
ATOM     20  C   UNL     1      46.363   6.495  11.794  0.00  0.00    +0.000 C 
ATOM     21  O   UNL     1      46.051   7.680  11.721  0.00  0.00    +0.000 OA
ATOM     22  H   UNL     1      47.440   5.072  12.835  0.00  0.00    +0.000 HD
BRANCH  20  23
ATOM     23  C   UNL     1      45.719   5.479  10.954  0.00  0.00    +0.000 A 
ATOM     24  C   UNL     1      45.817   5.567   9.571  0.00  0.00    +0.000 A 
ATOM     25  S   UNL     1      45.067   4.276   8.747  0.00  0.00    +0.000 S 
ATOM     26  C   UNL     1      44.537   3.581  10.206  0.00  0.00    +0.000 A 
ATOM     27  N   UNL     1      43.802   2.437  10.209  0.00  0.00    +0.000 NA
ATOM     28  C   UNL     1      43.437   2.038  11.382  0.00  0.00    +0.000 A 
ATOM     29  N   UNL     1      43.747   2.678  12.554  0.00  0.00    +0.000 N 
ATOM     30  C   UNL     1      44.512   3.819  12.602  0.00  0.00    +0.000 A 
ATOM     31  O   UNL     1      44.800   4.350  13.670  0.00  0.00    +0.000 OA
ATOM     32  C   UNL     1      44.939   4.316  11.307  0.00  0.00    +0.000 A 
ATOM     33  H   UNL     1      43.435   2.313  13.440  0.00  0.00    +0.000 HD
ENDBRANCH  20  23
ENDBRANCH  18  19
ENDBRANCH   4  18
TORSDOF 6
ENDMDL
MODEL 8
REMARK VINA RESULT:    -6.637      3.425      4.601
REMARK INTER + INTRA:          -9.954
REMARK INTER:                  -9.083
REMARK INTRA:                  -0.871
REMARK UNBOUND:                -0.990
REMARK  Name = 
REMARK  6 active torsions:
REMARK  status: ('A' for Active; 'I' for Inactive)
REMARK    1  A    between atoms: C_2  and  C_25
REMARK    2  A    between atoms: N_3  and  C_4
REMARK    3  A    between atoms: C_4  and  C_5
REMARK    4  A    between atoms: C_8  and  C_9
REMARK    5  A    between atoms: C_9  and  N_10
REMARK    6  A    between atoms: C_11  and  C_13
REMARK                            x       y       z     vdW  Elec       q    Type
REMARK                         _______ _______ _______ _____ _____    ______ ____
ROOT
ATOM      1  C   UNL     1      47.179   6.063  13.748  0.00  0.00    +0.000 A 
ATOM      2  C   UNL     1      46.666   4.845  14.179  0.00  0.00    +0.000 A 
ATOM      3  C   UNL     1      47.106   4.319  15.391  0.00  0.00    +0.000 A 
ATOM      4  C   UNL     1      48.054   5.012  16.144  0.00  0.00    +0.000 A 
ATOM      5  C   UNL     1      48.485   6.238  15.653  0.00  0.00    +0.000 A 
ATOM      6  N   UNL     1      48.071   6.779  14.482  0.00  0.00    +0.000 NA
ENDROOT
BRANCH   1   7
ATOM      7  C   UNL     1      46.708   6.669  12.447  0.00  0.00    +0.000 C 
BRANCH   7  10
ATOM      8  O   UNL     1      44.171   6.045  11.406  0.00  0.00    +0.000 OA
ATOM      9  C   UNL     1      45.150   5.433  10.989  0.00  0.00    +0.000 C 
ATOM     10  N   UNL     1      46.420   5.657  11.456  0.00  0.00    +0.000 N 
ATOM     11  H   UNL     1      47.205   5.310  10.925  0.00  0.00    +0.000 HD
BRANCH   9  12
ATOM     12  C   UNL     1      45.049   4.426   9.956  0.00  0.00    +0.000 A 
ATOM     13  C   UNL     1      45.426   4.423   8.621  0.00  0.00    +0.000 A 
ATOM     14  C   UNL     1      45.122   3.151   8.078  0.00  0.00    +0.000 A 
ATOM     15  C   UNL     1      44.563   2.401   9.086  0.00  0.00    +0.000 A 
ATOM     16  N   UNL     1      44.529   3.175  10.215  0.00  0.00    +0.000 N 
ATOM     17  H   UNL     1      44.185   2.889  11.125  0.00  0.00    +0.000 HD
ENDBRANCH   9  12
ENDBRANCH   7  10
ENDBRANCH   1   7
BRANCH   4  18
ATOM     18  C   UNL     1      48.549   4.482  17.457  0.00  0.00    +0.000 C 
BRANCH  18  19
ATOM     19  N   UNL     1      49.926   4.071  17.366  0.00  0.00    +0.000 N 
ATOM     20  C   UNL     1      50.786   4.231  18.422  0.00  0.00    +0.000 C 
ATOM     21  O   UNL     1      50.410   4.680  19.501  0.00  0.00    +0.000 OA
ATOM     22  H   UNL     1      50.306   3.930  16.435  0.00  0.00    +0.000 HD
BRANCH  20  23
ATOM     23  C   UNL     1      52.167   3.779  18.218  0.00  0.00    +0.000 A 
ATOM     24  C   UNL     1      53.216   4.674  18.391  0.00  0.00    +0.000 A 
ATOM     25  S   UNL     1      54.756   3.974  18.178  0.00  0.00    +0.000 S 
ATOM     26  C   UNL     1      54.076   2.463  17.795  0.00  0.00    +0.000 A 
ATOM     27  N   UNL     1      54.865   1.400  17.481  0.00  0.00    +0.000 NA
ATOM     28  C   UNL     1      54.218   0.324  17.178  0.00  0.00    +0.000 A 
ATOM     29  N   UNL     1      52.852   0.214  17.164  0.00  0.00    +0.000 N 
ATOM     30  C   UNL     1      52.016   1.251  17.502  0.00  0.00    +0.000 A 
ATOM     31  O   UNL     1      50.797   1.111  17.513  0.00  0.00    +0.000 OA
ATOM     32  C   UNL     1      52.693   2.488  17.842  0.00  0.00    +0.000 A 
ATOM     33  H   UNL     1      52.406  -0.657  16.922  0.00  0.00    +0.000 HD
ENDBRANCH  20  23
ENDBRANCH  18  19
ENDBRANCH   4  18
TORSDOF 6
ENDMDL
MODEL 9
REMARK VINA RESULT:    -6.522      3.462      4.563
REMARK INTER + INTRA:          -9.800
REMARK INTER:                  -8.872
REMARK INTRA:                  -0.927
REMARK UNBOUND:                -0.990
REMARK  Name = 
REMARK  6 active torsions:
REMARK  status: ('A' for Active; 'I' for Inactive)
REMARK    1  A    between atoms: C_2  and  C_25
REMARK    2  A    between atoms: N_3  and  C_4
REMARK    3  A    between atoms: C_4  and  C_5
REMARK    4  A    between atoms: C_8  and  C_9
REMARK    5  A    between atoms: C_9  and  N_10
REMARK    6  A    between atoms: C_11  and  C_13
REMARK                            x       y       z     vdW  Elec       q    Type
REMARK                         _______ _______ _______ _____ _____    ______ ____
ROOT
ATOM      1  C   UNL     1      44.906   4.943  11.831  0.00  0.00    +0.000 A 
ATOM      2  C   UNL     1      45.914   4.773  12.772  0.00  0.00    +0.000 A 
ATOM      3  C   UNL     1      46.531   5.899  13.311  0.00  0.00    +0.000 A 
ATOM      4  C   UNL     1      46.136   7.171  12.897  0.00  0.00    +0.000 A 
ATOM      5  C   UNL     1      45.097   7.247  11.977  0.00  0.00    +0.000 A 
ATOM      6  N   UNL     1      44.473   6.171  11.441  0.00  0.00    +0.000 NA
ENDROOT
BRANCH   1   7
ATOM      7  C   UNL     1      44.205   3.743  11.240  0.00  0.00    +0.000 C 
BRANCH   7  10
ATOM      8  O   UNL     1      44.341   4.211   8.470  0.00  0.00    +0.000 OA
ATOM      9  C   UNL     1      45.063   3.348   8.961  0.00  0.00    +0.000 C 
ATOM     10  N   UNL     1      45.046   3.040  10.298  0.00  0.00    +0.000 N 
ATOM     11  H   UNL     1      45.810   2.506  10.686  0.00  0.00    +0.000 HD
BRANCH   9  12
ATOM     12  C   UNL     1      46.006   2.589   8.172  0.00  0.00    +0.000 A 
ATOM     13  C   UNL     1      46.239   1.226   8.059  0.00  0.00    +0.000 A 
ATOM     14  C   UNL     1      47.268   1.030   7.106  0.00  0.00    +0.000 A 
ATOM     15  C   UNL     1      47.647   2.272   6.655  0.00  0.00    +0.000 A 
ATOM     16  N   UNL     1      46.877   3.205   7.297  0.00  0.00    +0.000 N 
ATOM     17  H   UNL     1      46.916   4.208   7.160  0.00  0.00    +0.000 HD
ENDBRANCH   9  12
ENDBRANCH   7  10
ENDBRANCH   1   7
BRANCH   4  18
ATOM     18  C   UNL     1      46.771   8.408  13.458  0.00  0.00    +0.000 C 
BRANCH  18  19
ATOM     19  N   UNL     1      48.206   8.354  13.344  0.00  0.00    +0.000 N 
ATOM     20  C   UNL     1      48.985   9.432  13.674  0.00  0.00    +0.000 C 
ATOM     21  O   UNL     1      48.502  10.466  14.128  0.00  0.00    +0.000 OA
ATOM     22  H   UNL     1      48.596   7.622  12.759  0.00  0.00    +0.000 HD
BRANCH  20  23
ATOM     23  C   UNL     1      50.435   9.267  13.517  0.00  0.00    +0.000 A 
ATOM     24  C   UNL     1      51.297   9.855  14.434  0.00  0.00    +0.000 A 
ATOM     25  S   UNL     1      52.943   9.514  14.144  0.00  0.00    +0.000 S 
ATOM     26  C   UNL     1      52.567   8.614  12.752  0.00  0.00    +0.000 A 
ATOM     27  N   UNL     1      53.548   8.046  12.000  0.00  0.00    +0.000 NA
ATOM     28  C   UNL     1      53.125   7.420  10.952  0.00  0.00    +0.000 A 
ATOM     29  N   UNL     1      51.807   7.307  10.591  0.00  0.00    +0.000 N 
ATOM     30  C   UNL     1      50.781   7.838  11.334  0.00  0.00    +0.000 A 
ATOM     31  O   UNL     1      49.609   7.691  11.002  0.00  0.00    +0.000 OA
ATOM     32  C   UNL     1      51.204   8.562  12.518  0.00  0.00    +0.000 A 
ATOM     33  H   UNL     1      51.541   6.800   9.761  0.00  0.00    +0.000 HD
ENDBRANCH  20  23
ENDBRANCH  18  19
ENDBRANCH   4  18
TORSDOF 6
ENDMDL
