MODEL 1
REMARK VINA RESULT:    -7.954      0.000      0.000
REMARK INTER + INTRA:         -11.687
REMARK INTER:                 -10.744
REMARK INTRA:                  -0.942
REMARK UNBOUND:                -0.942
REMARK  Name = 
REMARK  6 active torsions:
REMARK  status: ('A' for Active; 'I' for Inactive)
REMARK    1  A    between atoms: C_2  and  C_18
REMARK    2  A    between atoms: N_3  and  C_4
REMARK    3  A    between atoms: C_4  and  C_5
REMARK    4  A    between atoms: C_8  and  O_9
REMARK    5  A    between atoms: O_9  and  C_10
REMARK    6  A    between atoms: C_10  and  C_11
REMARK                            x       y       z     vdW  Elec       q    Type
REMARK                         _______ _______ _______ _____ _____    ______ ____
ROOT
ATOM      1  O   UNL     1      48.852   6.858  13.013  0.00  0.00    +0.000 OA
ATOM      2  C   UNL     1      48.135   6.767  14.004  0.00  0.00    +0.000 C 
ATOM      3  N   UNL     1      46.800   7.083  13.980  0.00  0.00    +0.000 N 
ATOM      4  H   UNL     1      46.283   7.134  14.850  0.00  0.00    +0.000 HD
ENDROOT
BRANCH   2   5
ATOM      5  C   UNL     1      48.655   6.260  15.281  0.00  0.00    +0.000 A 
ATOM      6  C   UNL     1      49.701   6.921  15.913  0.00  0.00    +0.000 A 
ATOM      7  S   UNL     1      50.172   6.205  17.387  0.00  0.00    +0.000 S 
ATOM      8  C   UNL     1      48.969   5.010  17.256  0.00  0.00    +0.000 A 
ATOM      9  N   UNL     1      48.794   4.079  18.233  0.00  0.00    +0.000 NA
ATOM     10  C   UNL     1      47.816   3.263  18.024  0.00  0.00    +0.000 A 
ATOM     11  N   UNL     1      47.007   3.280  16.919  0.00  0.00    +0.000 N 
ATOM     12  C   UNL     1      47.206   4.141  15.867  0.00  0.00    +0.000 A 
ATOM     13  O   UNL     1      46.570   4.020  14.825  0.00  0.00    +0.000 OA
ATOM     14  C   UNL     1      48.245   5.128  16.081  0.00  0.00    +0.000 A 
ATOM     15  H   UNL     1      46.286   2.586  16.794  0.00  0.00    +0.000 HD
ENDBRANCH   2   5
BRANCH   3  16
ATOM     16  C   UNL     1      46.141   7.618  12.817  0.00  0.00    +0.000 C 
BRANCH  16  17
ATOM     17  C   UNL     1      45.631   6.531  11.906  0.00  0.00    +0.000 A 
ATOM     18  C   UNL     1      44.611   5.675  12.338  0.00  0.00    +0.000 A 
ATOM     19  C   UNL     1      44.092   4.692  11.488  0.00  0.00    +0.000 A 
ATOM     20  C   UNL     1      44.591   4.539  10.194  0.00  0.00    +0.000 A 
ATOM     21  C   UNL     1      45.632   5.371   9.769  0.00  0.00    +0.000 A 
ATOM     22  C   UNL     1      46.155   6.354  10.620  0.00  0.00    +0.000 A 
BRANCH  20  23
ATOM     23  O   UNL     1      44.155   3.627   9.267  0.00  0.00    +0.000 OA
BRANCH  23  24
ATOM     24  C   UNL     1      44.720   2.315   9.358  0.00  0.00    +0.000 C 
BRANCH  24  25
ATOM     25  C   UNL     1      46.013   2.233   8.535  0.00  0.00    +0.000 C 
ATOM     26  C   UNL     1      45.941   2.951   7.196  0.00  0.00    +0.000 C 
ATOM     27  C   UNL     1      47.106   2.341   6.434  0.00  0.00    +0.000 C 
ATOM     28  C   UNL     1      47.220   0.924   6.978  0.00  0.00    +0.000 C 
ATOM     29  N   UNL     1      46.334   0.852   8.143  0.00  0.00    +0.000 NA
ATOM     30  H   UNL     1      46.782   0.350   8.908  0.00  0.00    +0.000 HD
ENDBRANCH  24  25
ENDBRANCH  23  24
ENDBRANCH  20  23
ENDBRANCH  16  17
ENDBRANCH   3  16
TORSDOF 6
ENDMDL
MODEL 2
REMARK VINA RESULT:    -7.501      2.007      2.440
REMARK INTER + INTRA:         -11.075
REMARK INTER:                 -10.343
REMARK INTRA:                  -0.732
REMARK UNBOUND:                -0.942
REMARK  Name = 
REMARK  6 active torsions:
REMARK  status: ('A' for Active; 'I' for Inactive)
REMARK    1  A    between atoms: C_2  and  C_18
REMARK    2  A    between atoms: N_3  and  C_4
REMARK    3  A    between atoms: C_4  and  C_5
REMARK    4  A    between atoms: C_8  and  O_9
REMARK    5  A    between atoms: O_9  and  C_10
REMARK    6  A    between atoms: C_10  and  C_11
REMARK                            x       y       z     vdW  Elec       q    Type
REMARK                         _______ _______ _______ _____ _____    ______ ____
ROOT
ATOM      1  O   UNL     1      49.629   6.648  15.078  0.00  0.00    +0.000 OA
ATOM      2  C   UNL     1      48.595   6.121  15.474  0.00  0.00    +0.000 C 
ATOM      3  N   UNL     1      47.468   6.036  14.697  0.00  0.00    +0.000 N 
ATOM      4  H   UNL     1      46.596   5.727  15.113  0.00  0.00    +0.000 HD
ENDROOT
BRANCH   2   5
ATOM      5  C   UNL     1      48.514   5.494  16.799  0.00  0.00    +0.000 A 
ATOM      6  C   UNL     1      48.592   4.111  16.917  0.00  0.00    +0.000 A 
ATOM      7  S   UNL     1      48.492   3.555  18.525  0.00  0.00    +0.000 S 
ATOM      8  C   UNL     1      48.380   5.141  19.127  0.00  0.00    +0.000 A 
ATOM      9  N   UNL     1      48.310   5.381  20.465  0.00  0.00    +0.000 NA
ATOM     10  C   UNL     1      48.277   6.632  20.782  0.00  0.00    +0.000 A 
ATOM     11  N   UNL     1      48.288   7.666  19.884  0.00  0.00    +0.000 N 
ATOM     12  C   UNL     1      48.264   7.467  18.524  0.00  0.00    +0.000 A 
ATOM     13  O   UNL     1      48.109   8.409  17.753  0.00  0.00    +0.000 OA
ATOM     14  C   UNL     1      48.376   6.083  18.112  0.00  0.00    +0.000 A 
ATOM     15  H   UNL     1      48.216   8.623  20.194  0.00  0.00    +0.000 HD
ENDBRANCH   2   5
BRANCH   3  16
ATOM     16  C   UNL     1      47.372   6.621  13.385  0.00  0.00    +0.000 C 
BRANCH  16  17
ATOM     17  C   UNL     1      46.522   5.793  12.456  0.00  0.00    +0.000 A 
ATOM     18  C   UNL     1      46.026   4.553  12.877  0.00  0.00    +0.000 A 
ATOM     19  C   UNL     1      45.195   3.793  12.045  0.00  0.00    +0.000 A 
ATOM     20  C   UNL     1      44.855   4.253  10.774  0.00  0.00    +0.000 A 
ATOM     21  C   UNL     1      45.374   5.477  10.336  0.00  0.00    +0.000 A 
ATOM     22  C   UNL     1      46.207   6.238  11.166  0.00  0.00    +0.000 A 
BRANCH  20  23
ATOM     23  O   UNL     1      44.040   3.610   9.877  0.00  0.00    +0.000 OA
BRANCH  23  24
ATOM     24  C   UNL     1      44.465   2.308   9.459  0.00  0.00    +0.000 C 
BRANCH  24  25
ATOM     25  C   UNL     1      45.789   2.403   8.689  0.00  0.00    +0.000 C 
ATOM     26  C   UNL     1      45.688   3.162   7.374  0.00  0.00    +0.000 C 
ATOM     27  C   UNL     1      46.941   2.715   6.640  0.00  0.00    +0.000 C 
ATOM     28  C   UNL     1      47.191   1.298   7.136  0.00  0.00    +0.000 C 
ATOM     29  N   UNL     1      46.276   1.081   8.260  0.00  0.00    +0.000 NA
ATOM     30  H   UNL     1      46.747   0.601   9.025  0.00  0.00    +0.000 HD
ENDBRANCH  24  25
ENDBRANCH  23  24
ENDBRANCH  20  23
ENDBRANCH  16  17
ENDBRANCH   3  16
TORSDOF 6
ENDMDL
MODEL 3
REMARK VINA RESULT:    -7.206      1.803      2.278
REMARK INTER + INTRA:         -10.676
REMARK INTER:                 -10.074
REMARK INTRA:                  -0.602
REMARK UNBOUND:                -0.942
REMARK  Name = 
REMARK  6 active torsions:
REMARK  status: ('A' for Active; 'I' for Inactive)
REMARK    1  A    between atoms: C_2  and  C_18
REMARK    2  A    between atoms: N_3  and  C_4
REMARK    3  A    between atoms: C_4  and  C_5
REMARK    4  A    between atoms: C_8  and  O_9
REMARK    5  A    between atoms: O_9  and  C_10
REMARK    6  A    between atoms: C_10  and  C_11
REMARK                            x       y       z     vdW  Elec       q    Type
REMARK                         _______ _______ _______ _____ _____    ______ ____
ROOT
ATOM      1  O   UNL     1      50.182   6.687  15.147  0.00  0.00    +0.000 OA
ATOM      2  C   UNL     1      49.058   6.832  15.616  0.00  0.00    +0.000 C 
ATOM      3  N   UNL     1      47.937   6.920  14.830  0.00  0.00    +0.000 N 
ATOM      4  H   UNL     1      47.053   7.186  15.249  0.00  0.00    +0.000 HD
ENDROOT
BRANCH   2   5
ATOM      5  C   UNL     1      48.834   6.871  17.067  0.00  0.00    +0.000 A 
ATOM      6  C   UNL     1      48.502   8.071  17.684  0.00  0.00    +0.000 A 
ATOM      7  S   UNL     1      48.266   7.934  19.367  0.00  0.00    +0.000 S 
ATOM      8  C   UNL     1      48.560   6.259  19.328  0.00  0.00    +0.000 A 
ATOM      9  N   UNL     1      48.472   5.504  20.457  0.00  0.00    +0.000 NA
ATOM     10  C   UNL     1      48.673   4.243  20.273  0.00  0.00    +0.000 A 
ATOM     11  N   UNL     1      48.973   3.668  19.066  0.00  0.00    +0.000 N 
ATOM     12  C   UNL     1      49.163   4.402  17.921  0.00  0.00    +0.000 A 
ATOM     13  O   UNL     1      49.590   3.876  16.898  0.00  0.00    +0.000 OA
ATOM     14  C   UNL     1      48.876   5.816  18.055  0.00  0.00    +0.000 A 
ATOM     15  H   UNL     1      49.162   2.680  18.996  0.00  0.00    +0.000 HD
ENDBRANCH   2   5
BRANCH   3  16
ATOM     16  C   UNL     1      47.985   6.925  13.392  0.00  0.00    +0.000 C 
BRANCH  16  17
ATOM     17  C   UNL     1      46.790   6.238  12.783  0.00  0.00    +0.000 A 
ATOM     18  C   UNL     1      46.084   6.849  11.741  0.00  0.00    +0.000 A 
ATOM     19  C   UNL     1      45.001   6.204  11.132  0.00  0.00    +0.000 A 
ATOM     20  C   UNL     1      44.596   4.941  11.562  0.00  0.00    +0.000 A 
ATOM     21  C   UNL     1      45.278   4.339  12.626  0.00  0.00    +0.000 A 
ATOM     22  C   UNL     1      46.361   4.984  13.238  0.00  0.00    +0.000 A 
BRANCH  20  23
ATOM     23  O   UNL     1      43.566   4.204  11.037  0.00  0.00    +0.000 OA
BRANCH  23  24
ATOM     24  C   UNL     1      43.908   2.905  10.540  0.00  0.00    +0.000 C 
BRANCH  24  25
ATOM     25  C   UNL     1      45.087   3.003   9.562  0.00  0.00    +0.000 C 
ATOM     26  C   UNL     1      44.739   3.666   8.238  0.00  0.00    +0.000 C 
ATOM     27  C   UNL     1      45.882   3.224   7.340  0.00  0.00    +0.000 C 
ATOM     28  C   UNL     1      46.282   1.855   7.874  0.00  0.00    +0.000 C 
ATOM     29  N   UNL     1      45.569   1.678   9.141  0.00  0.00    +0.000 NA
ATOM     30  H   UNL     1      46.180   1.271   9.848  0.00  0.00    +0.000 HD
ENDBRANCH  24  25
ENDBRANCH  23  24
ENDBRANCH  20  23
ENDBRANCH  16  17
ENDBRANCH   3  16
TORSDOF 6
ENDMDL
MODEL 4
REMARK VINA RESULT:    -6.984      1.619      2.205
REMARK INTER + INTRA:         -10.376
REMARK INTER:                  -9.710
REMARK INTRA:                  -0.666
REMARK UNBOUND:                -0.942
REMARK  Name = 
REMARK  6 active torsions:
REMARK  status: ('A' for Active; 'I' for Inactive)
REMARK    1  A    between atoms: C_2  and  C_18
REMARK    2  A    between atoms: N_3  and  C_4
REMARK    3  A    between atoms: C_4  and  C_5
REMARK    4  A    between atoms: C_8  and  O_9
REMARK    5  A    between atoms: O_9  and  C_10
REMARK    6  A    between atoms: C_10  and  C_11
REMARK                            x       y       z     vdW  Elec       q    Type
REMARK                         _______ _______ _______ _____ _____    ______ ____
ROOT
ATOM      1  O   UNL     1      48.258   7.613  11.815  0.00  0.00    +0.000 OA
ATOM      2  C   UNL     1      48.126   7.773  13.023  0.00  0.00    +0.000 C 
ATOM      3  N   UNL     1      46.896   7.883  13.623  0.00  0.00    +0.000 N 
ATOM      4  H   UNL     1      46.838   8.160  14.596  0.00  0.00    +0.000 HD
ENDROOT
BRANCH   2   5
ATOM      5  C   UNL     1      49.287   7.805  13.922  0.00  0.00    +0.000 A 
ATOM      6  C   UNL     1      50.305   8.726  13.704  0.00  0.00    +0.000 A 
ATOM      7  S   UNL     1      51.567   8.633  14.846  0.00  0.00    +0.000 S 
ATOM      8  C   UNL     1      50.782   7.388  15.697  0.00  0.00    +0.000 A 
ATOM      9  N   UNL     1      51.319   6.867  16.834  0.00  0.00    +0.000 NA
ATOM     10  C   UNL     1      50.595   5.962  17.401  0.00  0.00    +0.000 A 
ATOM     11  N   UNL     1      49.390   5.516  16.927  0.00  0.00    +0.000 N 
ATOM     12  C   UNL     1      48.856   5.946  15.736  0.00  0.00    +0.000 A 
ATOM     13  O   UNL     1      47.861   5.408  15.260  0.00  0.00    +0.000 OA
ATOM     14  C   UNL     1      49.592   7.016  15.094  0.00  0.00    +0.000 A 
ATOM     15  H   UNL     1      48.892   4.774  17.394  0.00  0.00    +0.000 HD
ENDBRANCH   2   5
BRANCH   3  16
ATOM     16  C   UNL     1      45.661   7.897  12.883  0.00  0.00    +0.000 C 
BRANCH  16  17
ATOM     17  C   UNL     1      45.346   6.551  12.283  0.00  0.00    +0.000 A 
ATOM     18  C   UNL     1      45.398   6.371  10.895  0.00  0.00    +0.000 A 
ATOM     19  C   UNL     1      45.156   5.117  10.325  0.00  0.00    +0.000 A 
ATOM     20  C   UNL     1      44.844   4.021  11.129  0.00  0.00    +0.000 A 
ATOM     21  C   UNL     1      44.758   4.202  12.514  0.00  0.00    +0.000 A 
ATOM     22  C   UNL     1      44.999   5.459  13.087  0.00  0.00    +0.000 A 
BRANCH  20  23
ATOM     23  O   UNL     1      44.602   2.744  10.691  0.00  0.00    +0.000 OA
BRANCH  23  24
ATOM     24  C   UNL     1      44.483   2.575   9.274  0.00  0.00    +0.000 C 
BRANCH  24  25
ATOM     25  C   UNL     1      45.863   2.327   8.650  0.00  0.00    +0.000 C 
ATOM     26  C   UNL     1      46.081   3.045   7.326  0.00  0.00    +0.000 C 
ATOM     27  C   UNL     1      47.259   2.289   6.734  0.00  0.00    +0.000 C 
ATOM     28  C   UNL     1      47.110   0.870   7.265  0.00  0.00    +0.000 C 
ATOM     29  N   UNL     1      46.060   0.915   8.286  0.00  0.00    +0.000 NA
ATOM     30  H   UNL     1      46.322   0.362   9.100  0.00  0.00    +0.000 HD
ENDBRANCH  24  25
ENDBRANCH  23  24
ENDBRANCH  20  23
ENDBRANCH  16  17
ENDBRANCH   3  16
TORSDOF 6
ENDMDL
MODEL 5
REMARK VINA RESULT:    -6.692      2.135      2.605
REMARK INTER + INTRA:          -9.981
REMARK INTER:                  -9.026
REMARK INTRA:                  -0.955
REMARK UNBOUND:                -0.942
REMARK  Name = 
REMARK  6 active torsions:
REMARK  status: ('A' for Active; 'I' for Inactive)
REMARK    1  A    between atoms: C_2  and  C_18
REMARK    2  A    between atoms: N_3  and  C_4
REMARK    3  A    between atoms: C_4  and  C_5
REMARK    4  A    between atoms: C_8  and  O_9
REMARK    5  A    between atoms: O_9  and  C_10
REMARK    6  A    between atoms: C_10  and  C_11
REMARK                            x       y       z     vdW  Elec       q    Type
REMARK                         _______ _______ _______ _____ _____    ______ ____
ROOT
ATOM      1  O   UNL     1      49.084   9.876  14.688  0.00  0.00    +0.000 OA
ATOM      2  C   UNL     1      48.287   9.188  15.317  0.00  0.00    +0.000 C 
ATOM      3  N   UNL     1      47.167   8.644  14.742  0.00  0.00    +0.000 N 
ATOM      4  H   UNL     1      46.464   8.209  15.329  0.00  0.00    +0.000 HD
ENDROOT
BRANCH   2   5
ATOM      5  C   UNL     1      48.512   8.857  16.730  0.00  0.00    +0.000 A 
ATOM      6  C   UNL     1      48.437   9.855  17.695  0.00  0.00    +0.000 A 
ATOM      7  S   UNL     1      48.712   9.295  19.282  0.00  0.00    +0.000 S 
ATOM      8  C   UNL     1      48.902   7.693  18.744  0.00  0.00    +0.000 A 
ATOM      9  N   UNL     1      49.123   6.678  19.623  0.00  0.00    +0.000 NA
ATOM     10  C   UNL     1      49.201   5.509  19.082  0.00  0.00    +0.000 A 
ATOM     11  N   UNL     1      49.096   5.262  17.739  0.00  0.00    +0.000 N 
ATOM     12  C   UNL     1      48.967   6.265  16.808  0.00  0.00    +0.000 A 
ATOM     13  O   UNL     1      49.042   6.024  15.607  0.00  0.00    +0.000 OA
ATOM     14  C   UNL     1      48.800   7.591  17.367  0.00  0.00    +0.000 A 
ATOM     15  H   UNL     1      49.210   4.329  17.373  0.00  0.00    +0.000 HD
ENDBRANCH   2   5
BRANCH   3  16
ATOM     16  C   UNL     1      46.787   8.892  13.375  0.00  0.00    +0.000 C 
BRANCH  16  17
ATOM     17  C   UNL     1      46.240   7.658  12.707  0.00  0.00    +0.000 A 
ATOM     18  C   UNL     1      45.064   7.731  11.951  0.00  0.00    +0.000 A 
ATOM     19  C   UNL     1      44.568   6.605  11.284  0.00  0.00    +0.000 A 
ATOM     20  C   UNL     1      45.231   5.382  11.371  0.00  0.00    +0.000 A 
ATOM     21  C   UNL     1      46.389   5.294  12.152  0.00  0.00    +0.000 A 
ATOM     22  C   UNL     1      46.886   6.421  12.822  0.00  0.00    +0.000 A 
BRANCH  20  23
ATOM     23  O   UNL     1      44.855   4.217  10.753  0.00  0.00    +0.000 OA
BRANCH  23  24
ATOM     24  C   UNL     1      44.183   4.358   9.496  0.00  0.00    +0.000 C 
BRANCH  24  25
ATOM     25  C   UNL     1      44.817   3.437   8.446  0.00  0.00    +0.000 C 
ATOM     26  C   UNL     1      45.506   2.212   9.031  0.00  0.00    +0.000 C 
ATOM     27  C   UNL     1      46.402   1.763   7.889  0.00  0.00    +0.000 C 
ATOM     28  C   UNL     1      46.762   3.047   7.156  0.00  0.00    +0.000 C 
ATOM     29  N   UNL     1      45.909   4.100   7.714  0.00  0.00    +0.000 NA
ATOM     30  H   UNL     1      45.541   4.699   6.976  0.00  0.00    +0.000 HD
ENDBRANCH  24  25
ENDBRANCH  23  24
ENDBRANCH  20  23
ENDBRANCH  16  17
ENDBRANCH   3  16
TORSDOF 6
ENDMDL
MODEL 6
REMARK VINA RESULT:    -6.564      4.352      7.297
REMARK INTER + INTRA:          -9.809
REMARK INTER:                  -8.881
REMARK INTRA:                  -0.928
REMARK UNBOUND:                -0.942
REMARK  Name = 
REMARK  6 active torsions:
REMARK  status: ('A' for Active; 'I' for Inactive)
REMARK    1  A    between atoms: C_2  and  C_18
REMARK    2  A    between atoms: N_3  and  C_4
REMARK    3  A    between atoms: C_4  and  C_5
REMARK    4  A    between atoms: C_8  and  O_9
REMARK    5  A    between atoms: O_9  and  C_10
REMARK    6  A    between atoms: C_10  and  C_11
REMARK                            x       y       z     vdW  Elec       q    Type
REMARK                         _______ _______ _______ _____ _____    ______ ____
ROOT
ATOM      1  O   UNL     1      44.202   7.589  11.220  0.00  0.00    +0.000 OA
ATOM      2  C   UNL     1      44.834   6.675  11.739  0.00  0.00    +0.000 C 
ATOM      3  N   UNL     1      45.877   6.897  12.602  0.00  0.00    +0.000 N 
ATOM      4  H   UNL     1      46.461   6.120  12.890  0.00  0.00    +0.000 HD
ENDROOT
BRANCH   2   5
ATOM      5  C   UNL     1      44.476   5.269  11.507  0.00  0.00    +0.000 A 
ATOM      6  C   UNL     1      43.744   4.575  12.462  0.00  0.00    +0.000 A 
ATOM      7  S   UNL     1      43.408   2.962  12.028  0.00  0.00    +0.000 S 
ATOM      8  C   UNL     1      44.192   3.142  10.530  0.00  0.00    +0.000 A 
ATOM      9  N   UNL     1      44.233   2.121   9.630  0.00  0.00    +0.000 NA
ATOM     10  C   UNL     1      44.820   2.412   8.519  0.00  0.00    +0.000 A 
ATOM     11  N   UNL     1      45.387   3.624   8.229  0.00  0.00    +0.000 N 
ATOM     12  C   UNL     1      45.452   4.650   9.141  0.00  0.00    +0.000 A 
ATOM     13  O   UNL     1      46.109   5.660   8.909  0.00  0.00    +0.000 OA
ATOM     14  C   UNL     1      44.743   4.403  10.380  0.00  0.00    +0.000 A 
ATOM     15  H   UNL     1      45.870   3.776   7.357  0.00  0.00    +0.000 HD
ENDBRANCH   2   5
BRANCH   3  16
ATOM     16  C   UNL     1      46.370   8.213  12.915  0.00  0.00    +0.000 C 
BRANCH  16  17
ATOM     17  C   UNL     1      47.741   8.455  12.339  0.00  0.00    +0.000 A 
ATOM     18  C   UNL     1      48.123   9.746  11.954  0.00  0.00    +0.000 A 
ATOM     19  C   UNL     1      49.409   9.997  11.463  0.00  0.00    +0.000 A 
ATOM     20  C   UNL     1      50.333   8.960  11.334  0.00  0.00    +0.000 A 
ATOM     21  C   UNL     1      49.946   7.662  11.687  0.00  0.00    +0.000 A 
ATOM     22  C   UNL     1      48.658   7.409  12.177  0.00  0.00    +0.000 A 
BRANCH  20  23
ATOM     23  O   UNL     1      51.622   9.083  10.883  0.00  0.00    +0.000 OA
BRANCH  23  24
ATOM     24  C   UNL     1      52.566   8.141  11.405  0.00  0.00    +0.000 C 
BRANCH  24  25
ATOM     25  C   UNL     1      53.377   7.511  10.265  0.00  0.00    +0.000 C 
ATOM     26  C   UNL     1      52.718   7.628   8.898  0.00  0.00    +0.000 C 
ATOM     27  C   UNL     1      53.449   6.570   8.090  0.00  0.00    +0.000 C 
ATOM     28  C   UNL     1      53.816   5.497   9.105  0.00  0.00    +0.000 C 
ATOM     29  N   UNL     1      53.523   6.056  10.427  0.00  0.00    +0.000 NA
ATOM     30  H   UNL     1      54.268   5.836  11.087  0.00  0.00    +0.000 HD
ENDBRANCH  24  25
ENDBRANCH  23  24
ENDBRANCH  20  23
ENDBRANCH  16  17
ENDBRANCH   3  16
TORSDOF 6
ENDMDL
MODEL 7
REMARK VINA RESULT:    -6.562      3.193      7.773
REMARK INTER + INTRA:          -9.806
REMARK INTER:                  -8.902
REMARK INTRA:                  -0.903
REMARK UNBOUND:                -0.942
REMARK  Name = 
REMARK  6 active torsions:
REMARK  status: ('A' for Active; 'I' for Inactive)
REMARK    1  A    between atoms: C_2  and  C_18
REMARK    2  A    between atoms: N_3  and  C_4
REMARK    3  A    between atoms: C_4  and  C_5
REMARK    4  A    between atoms: C_8  and  O_9
REMARK    5  A    between atoms: O_9  and  C_10
REMARK    6  A    between atoms: C_10  and  C_11
REMARK                            x       y       z     vdW  Elec       q    Type
REMARK                         _______ _______ _______ _____ _____    ______ ____
ROOT
ATOM      1  O   UNL     1      45.625   7.761  11.948  0.00  0.00    +0.000 OA
ATOM      2  C   UNL     1      46.280   6.866  11.426  0.00  0.00    +0.000 C 
ATOM      3  N   UNL     1      47.651   6.845  11.449  0.00  0.00    +0.000 N 
ATOM      4  H   UNL     1      48.150   6.169  10.882  0.00  0.00    +0.000 HD
ENDROOT
BRANCH   2   5
ATOM      5  C   UNL     1      45.628   5.719  10.779  0.00  0.00    +0.000 A 
ATOM      6  C   UNL     1      45.795   5.507   9.415  0.00  0.00    +0.000 A 
ATOM      7  S   UNL     1      44.980   4.128   8.833  0.00  0.00    +0.000 S 
ATOM      8  C   UNL     1      44.408   3.740  10.387  0.00  0.00    +0.000 A 
ATOM      9  N   UNL     1      43.662   2.622  10.602  0.00  0.00    +0.000 NA
ATOM     10  C   UNL     1      43.335   2.427  11.835  0.00  0.00    +0.000 A 
ATOM     11  N   UNL     1      43.670   3.256  12.872  0.00  0.00    +0.000 N 
ATOM     12  C   UNL     1      44.341   4.441  12.687  0.00  0.00    +0.000 A 
ATOM     13  O   UNL     1      44.479   5.238  13.611  0.00  0.00    +0.000 OA
ATOM     14  C   UNL     1      44.796   4.674  11.332  0.00  0.00    +0.000 A 
ATOM     15  H   UNL     1      43.347   3.071  13.809  0.00  0.00    +0.000 HD
ENDBRANCH   2   5
BRANCH   3  16
ATOM     16  C   UNL     1      48.442   7.904  12.019  0.00  0.00    +0.000 C 
BRANCH  16  17
ATOM     17  C   UNL     1      49.011   7.525  13.362  0.00  0.00    +0.000 A 
ATOM     18  C   UNL     1      50.303   7.932  13.717  0.00  0.00    +0.000 A 
ATOM     19  C   UNL     1      50.828   7.630  14.979  0.00  0.00    +0.000 A 
ATOM     20  C   UNL     1      50.077   6.906  15.904  0.00  0.00    +0.000 A 
ATOM     21  C   UNL     1      48.798   6.469  15.542  0.00  0.00    +0.000 A 
ATOM     22  C   UNL     1      48.271   6.768  14.279  0.00  0.00    +0.000 A 
BRANCH  20  23
ATOM     23  O   UNL     1      50.474   6.564  17.172  0.00  0.00    +0.000 OA
BRANCH  23  24
ATOM     24  C   UNL     1      49.563   5.752  17.921  0.00  0.00    +0.000 C 
BRANCH  24  25
ATOM     25  C   UNL     1      50.158   4.356  18.148  0.00  0.00    +0.000 C 
ATOM     26  C   UNL     1      51.651   4.266  17.870  0.00  0.00    +0.000 C 
ATOM     27  C   UNL     1      51.866   2.770  17.716  0.00  0.00    +0.000 C 
ATOM     28  C   UNL     1      50.554   2.250  17.144  0.00  0.00    +0.000 C 
ATOM     29  N   UNL     1      49.598   3.358  17.222  0.00  0.00    +0.000 NA
ATOM     30  H   UNL     1      48.689   3.031  17.545  0.00  0.00    +0.000 HD
ENDBRANCH  24  25
ENDBRANCH  23  24
ENDBRANCH  20  23
ENDBRANCH  16  17
ENDBRANCH   3  16
TORSDOF 6
ENDMDL
MODEL 8
REMARK VINA RESULT:    -6.038      2.470      3.315
REMARK INTER + INTRA:          -9.098
REMARK INTER:                  -7.953
REMARK INTRA:                  -1.145
REMARK UNBOUND:                -0.942
REMARK  Name = 
REMARK  6 active torsions:
REMARK  status: ('A' for Active; 'I' for Inactive)
REMARK    1  A    between atoms: C_2  and  C_18
REMARK    2  A    between atoms: N_3  and  C_4
REMARK    3  A    between atoms: C_4  and  C_5
REMARK    4  A    between atoms: C_8  and  O_9
REMARK    5  A    between atoms: O_9  and  C_10
REMARK    6  A    between atoms: C_10  and  C_11
REMARK                            x       y       z     vdW  Elec       q    Type
REMARK                         _______ _______ _______ _____ _____    ______ ____
ROOT
ATOM      1  O   UNL     1      50.400   7.081  14.757  0.00  0.00    +0.000 OA
ATOM      2  C   UNL     1      49.549   7.250  15.623  0.00  0.00    +0.000 C 
ATOM      3  N   UNL     1      48.459   8.063  15.437  0.00  0.00    +0.000 N 
ATOM      4  H   UNL     1      47.863   8.287  16.226  0.00  0.00    +0.000 HD
ENDROOT
BRANCH   2   5
ATOM      5  C   UNL     1      49.615   6.543  16.909  0.00  0.00    +0.000 A 
ATOM      6  C   UNL     1      50.361   7.076  17.953  0.00  0.00    +0.000 A 
ATOM      7  S   UNL     1      50.319   6.135  19.374  0.00  0.00    +0.000 S 
ATOM      8  C   UNL     1      49.270   5.002  18.660  0.00  0.00    +0.000 A 
ATOM      9  N   UNL     1      48.799   3.938  19.366  0.00  0.00    +0.000 NA
ATOM     10  C   UNL     1      47.977   3.187  18.715  0.00  0.00    +0.000 A 
ATOM     11  N   UNL     1      47.595   3.390  17.415  0.00  0.00    +0.000 N 
ATOM     12  C   UNL     1      48.117   4.395  16.637  0.00  0.00    +0.000 A 
ATOM     13  O   UNL     1      47.881   4.448  15.434  0.00  0.00    +0.000 OA
ATOM     14  C   UNL     1      48.990   5.313  17.340  0.00  0.00    +0.000 A 
ATOM     15  H   UNL     1      46.982   2.740  16.948  0.00  0.00    +0.000 HD
ENDBRANCH   2   5
BRANCH   3  16
ATOM     16  C   UNL     1      48.259   8.846  14.246  0.00  0.00    +0.000 C 
BRANCH  16  17
ATOM     17  C   UNL     1      47.193   8.260  13.356  0.00  0.00    +0.000 A 
ATOM     18  C   UNL     1      46.015   8.975  13.107  0.00  0.00    +0.000 A 
ATOM     19  C   UNL     1      45.036   8.467  12.246  0.00  0.00    +0.000 A 
ATOM     20  C   UNL     1      45.211   7.229  11.627  0.00  0.00    +0.000 A 
ATOM     21  C   UNL     1      46.371   6.496  11.898  0.00  0.00    +0.000 A 
ATOM     22  C   UNL     1      47.351   7.002  12.762  0.00  0.00    +0.000 A 
BRANCH  20  23
ATOM     23  O   UNL     1      44.335   6.636  10.754  0.00  0.00    +0.000 OA
BRANCH  23  24
ATOM     24  C   UNL     1      43.058   6.273  11.290  0.00  0.00    +0.000 C 
BRANCH  24  25
ATOM     25  C   UNL     1      42.910   4.746  11.328  0.00  0.00    +0.000 C 
ATOM     26  C   UNL     1      43.394   4.109  12.622  0.00  0.00    +0.000 C 
ATOM     27  C   UNL     1      43.571   2.653  12.225  0.00  0.00    +0.000 C 
ATOM     28  C   UNL     1      43.950   2.701  10.751  0.00  0.00    +0.000 C 
ATOM     29  N   UNL     1      43.744   4.084  10.312  0.00  0.00    +0.000 NA
ATOM     30  H   UNL     1      43.295   4.111   9.398  0.00  0.00    +0.000 HD
ENDBRANCH  24  25
ENDBRANCH  23  24
ENDBRANCH  20  23
ENDBRANCH  16  17
ENDBRANCH   3  16
TORSDOF 6
ENDMDL
