MODEL 1
REMARK VINA RESULT:    -8.390      0.000      0.000
REMARK INTER + INTRA:         -11.812
REMARK INTER:                 -11.088
REMARK INTRA:                  -0.723
REMARK UNBOUND:                -0.723
REMARK  Name = 
REMARK  6 active torsions:
REMARK  status: ('A' for Active; 'I' for Inactive)
REMARK    1  A    between atoms: C_2  and  C_19
REMARK    2  A    between atoms: N_3  and  C_4
REMARK    3  A    between atoms: C_4  and  C_5
REMARK    4  A    between atoms: C_8  and  C_9
REMARK    5  A    between atoms: C_9  and  O_10
REMARK    6  A    between atoms: C_9  and  C_11
REMARK                            x       y       z     vdW  Elec       q    Type
REMARK                         _______ _______ _______ _____ _____    ______ ____
ROOT
ATOM      1  C   UNL     1      47.219   7.286  13.070  0.00  0.00    +0.000 C 
ENDROOT
BRANCH   1   2
ATOM      2  C   UNL     1      46.502   6.307  12.190  0.00  0.00    +0.000 A 
ATOM      3  C   UNL     1      45.925   5.140  12.698  0.00  0.00    +0.000 A 
ATOM      4  C   UNL     1      45.254   4.270  11.841  0.00  0.00    +0.000 A 
ATOM      5  C   UNL     1      45.170   4.591  10.486  0.00  0.00    +0.000 A 
ATOM      6  N   UNL     1      45.713   5.731   9.983  0.00  0.00    +0.000 NA
ATOM      7  C   UNL     1      46.350   6.561  10.835  0.00  0.00    +0.000 A 
BRANCH   5   8
ATOM      8  C   UNL     1      44.490   3.643   9.509  0.00  0.00    +0.000 C 
BRANCH   8   9
ATOM      9  C   UNL     1      45.496   2.932   8.608  0.00  0.00    +0.000 A 
ATOM     10  C   UNL     1      46.144   3.632   7.588  0.00  0.00    +0.000 A 
ATOM     11  C   UNL     1      46.982   2.936   6.722  0.00  0.00    +0.000 A 
ATOM     12  C   UNL     1      47.165   1.570   6.903  0.00  0.00    +0.000 A 
ATOM     13  C   UNL     1      46.514   0.954   7.958  0.00  0.00    +0.000 A 
ATOM     14  N   UNL     1      45.693   1.599   8.817  0.00  0.00    +0.000 NA
ENDBRANCH   8   9
BRANCH   8  15
ATOM     15  O   UNL     1      43.549   4.399   8.730  0.00  0.00    +0.000 OA
ATOM     16  H   UNL     1      43.969   4.435   7.846  0.00  0.00    +0.000 HD
ENDBRANCH   8  15
ENDBRANCH   5   8
ENDBRANCH   1   2
BRANCH   1  19
ATOM     17  O   UNL     1      49.738   6.944  14.255  0.00  0.00    +0.000 OA
ATOM     18  C   UNL     1      48.738   6.640  14.900  0.00  0.00    +0.000 C 
ATOM     19  N   UNL     1      47.477   6.722  14.372  0.00  0.00    +0.000 N 
ATOM     20  H   UNL     1      46.677   6.646  14.991  0.00  0.00    +0.000 HD
BRANCH  18  21
ATOM     21  C   UNL     1      48.837   6.111  16.267  0.00  0.00    +0.000 A 
ATOM     22  C   UNL     1      49.434   6.876  17.260  0.00  0.00    +0.000 A 
ATOM     23  S   UNL     1      49.493   6.103  18.776  0.00  0.00    +0.000 S 
ATOM     24  C   UNL     1      48.676   4.739  18.175  0.00  0.00    +0.000 A 
ATOM     25  N   UNL     1      48.373   3.690  18.986  0.00  0.00    +0.000 NA
ATOM     26  C   UNL     1      47.707   2.746  18.411  0.00  0.00    +0.000 A 
ATOM     27  N   UNL     1      47.329   2.746  17.092  0.00  0.00    +0.000 N 
ATOM     28  C   UNL     1      47.688   3.740  16.215  0.00  0.00    +0.000 A 
ATOM     29  O   UNL     1      47.458   3.641  15.014  0.00  0.00    +0.000 OA
ATOM     30  C   UNL     1      48.385   4.856  16.825  0.00  0.00    +0.000 A 
ATOM     31  H   UNL     1      46.839   1.958  16.697  0.00  0.00    +0.000 HD
ENDBRANCH  18  21
ENDBRANCH   1  19
TORSDOF 6
ENDMDL
MODEL 2
REMARK VINA RESULT:    -8.215      1.652      2.385
REMARK INTER + INTRA:         -11.580
REMARK INTER:                 -10.878
REMARK INTRA:                  -0.702
REMARK UNBOUND:                -0.723
REMARK  Name = 
REMARK  6 active torsions:
REMARK  status: ('A' for Active; 'I' for Inactive)
REMARK    1  A    between atoms: C_2  and  C_19
REMARK    2  A    between atoms: N_3  and  C_4
REMARK    3  A    between atoms: C_4  and  C_5
REMARK    4  A    between atoms: C_8  and  C_9
REMARK    5  A    between atoms: C_9  and  O_10
REMARK    6  A    between atoms: C_9  and  C_11
REMARK                            x       y       z     vdW  Elec       q    Type
REMARK                         _______ _______ _______ _____ _____    ______ ____
ROOT
ATOM      1  C   UNL     1      47.415   6.705  13.624  0.00  0.00    +0.000 C 
ENDROOT
BRANCH   1   2
ATOM      2  C   UNL     1      46.614   5.921  12.630  0.00  0.00    +0.000 A 
ATOM      3  C   UNL     1      46.027   4.695  12.955  0.00  0.00    +0.000 A 
ATOM      4  C   UNL     1      45.277   4.011  11.999  0.00  0.00    +0.000 A 
ATOM      5  C   UNL     1      45.125   4.576  10.733  0.00  0.00    +0.000 A 
ATOM      6  N   UNL     1      45.678   5.776  10.410  0.00  0.00    +0.000 NA
ATOM      7  C   UNL     1      46.391   6.421  11.355  0.00  0.00    +0.000 A 
BRANCH   5   8
ATOM      8  C   UNL     1      44.356   3.838   9.646  0.00  0.00    +0.000 C 
BRANCH   8   9
ATOM      9  C   UNL     1      45.289   3.186   8.629  0.00  0.00    +0.000 A 
ATOM     10  C   UNL     1      45.632   1.838   8.753  0.00  0.00    +0.000 A 
ATOM     11  C   UNL     1      46.560   1.296   7.869  0.00  0.00    +0.000 A 
ATOM     12  C   UNL     1      47.107   2.102   6.878  0.00  0.00    +0.000 A 
ATOM     13  C   UNL     1      46.690   3.420   6.798  0.00  0.00    +0.000 A 
ATOM     14  N   UNL     1      45.793   3.979   7.640  0.00  0.00    +0.000 NA
ENDBRANCH   8   9
BRANCH   8  15
ATOM     15  O   UNL     1      43.473   4.773   9.006  0.00  0.00    +0.000 OA
ATOM     16  H   UNL     1      43.466   5.532   9.625  0.00  0.00    +0.000 HD
ENDBRANCH   8  15
ENDBRANCH   5   8
ENDBRANCH   1   2
BRANCH   1  19
ATOM     17  O   UNL     1      49.680   6.593  15.274  0.00  0.00    +0.000 OA
ATOM     18  C   UNL     1      48.649   6.042  15.651  0.00  0.00    +0.000 C 
ATOM     19  N   UNL     1      47.519   6.002  14.878  0.00  0.00    +0.000 N 
ATOM     20  H   UNL     1      46.644   5.710  15.299  0.00  0.00    +0.000 HD
BRANCH  18  21
ATOM     21  C   UNL     1      48.581   5.338  16.939  0.00  0.00    +0.000 A 
ATOM     22  C   UNL     1      48.570   3.950  16.966  0.00  0.00    +0.000 A 
ATOM     23  S   UNL     1      48.458   3.297  18.535  0.00  0.00    +0.000 S 
ATOM     24  C   UNL     1      48.474   4.845  19.240  0.00  0.00    +0.000 A 
ATOM     25  N   UNL     1      48.431   4.999  20.590  0.00  0.00    +0.000 NA
ATOM     26  C   UNL     1      48.502   6.224  20.990  0.00  0.00    +0.000 A 
ATOM     27  N   UNL     1      48.594   7.314  20.161  0.00  0.00    +0.000 N 
ATOM     28  C   UNL     1      48.551   7.212  18.792  0.00  0.00    +0.000 A 
ATOM     29  O   UNL     1      48.491   8.212  18.083  0.00  0.00    +0.000 OA
ATOM     30  C   UNL     1      48.535   5.851  18.290  0.00  0.00    +0.000 A 
ATOM     31  H   UNL     1      48.610   8.248  20.539  0.00  0.00    +0.000 HD
ENDBRANCH  18  21
ENDBRANCH   1  19
TORSDOF 6
ENDMDL
MODEL 3
REMARK VINA RESULT:    -8.106      2.479      4.301
REMARK INTER + INTRA:         -11.435
REMARK INTER:                 -10.399
REMARK INTRA:                  -1.036
REMARK UNBOUND:                -0.723
REMARK  Name = 
REMARK  6 active torsions:
REMARK  status: ('A' for Active; 'I' for Inactive)
REMARK    1  A    between atoms: C_2  and  C_19
REMARK    2  A    between atoms: N_3  and  C_4
REMARK    3  A    between atoms: C_4  and  C_5
REMARK    4  A    between atoms: C_8  and  C_9
REMARK    5  A    between atoms: C_9  and  O_10
REMARK    6  A    between atoms: C_9  and  C_11
REMARK                            x       y       z     vdW  Elec       q    Type
REMARK                         _______ _______ _______ _____ _____    ______ ____
ROOT
ATOM      1  C   UNL     1      46.735   5.005  14.383  0.00  0.00    +0.000 C 
ENDROOT
BRANCH   1   2
ATOM      2  C   UNL     1      46.145   4.645  13.052  0.00  0.00    +0.000 A 
ATOM      3  C   UNL     1      46.022   5.580  12.021  0.00  0.00    +0.000 A 
ATOM      4  C   UNL     1      45.482   5.191  10.796  0.00  0.00    +0.000 A 
ATOM      5  C   UNL     1      45.080   3.867  10.627  0.00  0.00    +0.000 A 
ATOM      6  N   UNL     1      45.211   2.944  11.617  0.00  0.00    +0.000 NA
ATOM      7  C   UNL     1      45.744   3.343  12.790  0.00  0.00    +0.000 A 
BRANCH   5   8
ATOM      8  C   UNL     1      44.440   3.414   9.322  0.00  0.00    +0.000 C 
BRANCH   8   9
ATOM      9  C   UNL     1      45.466   2.827   8.356  0.00  0.00    +0.000 A 
ATOM     10  C   UNL     1      45.916   3.577   7.267  0.00  0.00    +0.000 A 
ATOM     11  C   UNL     1      46.776   2.982   6.350  0.00  0.00    +0.000 A 
ATOM     12  C   UNL     1      47.176   1.666   6.547  0.00  0.00    +0.000 A 
ATOM     13  C   UNL     1      46.714   0.999   7.669  0.00  0.00    +0.000 A 
ATOM     14  N   UNL     1      45.878   1.546   8.579  0.00  0.00    +0.000 NA
ENDBRANCH   8   9
BRANCH   8  15
ATOM     15  O   UNL     1      43.768   4.539   8.736  0.00  0.00    +0.000 OA
ATOM     16  H   UNL     1      44.435   5.255   8.799  0.00  0.00    +0.000 HD
ENDBRANCH   8  15
ENDBRANCH   5   8
ENDBRANCH   1   2
BRANCH   1  19
ATOM     17  O   UNL     1      49.096   5.911  15.593  0.00  0.00    +0.000 OA
ATOM     18  C   UNL     1      48.417   6.712  14.956  0.00  0.00    +0.000 C 
ATOM     19  N   UNL     1      47.222   6.362  14.385  0.00  0.00    +0.000 N 
ATOM     20  H   UNL     1      46.792   6.990  13.715  0.00  0.00    +0.000 HD
BRANCH  18  21
ATOM     21  C   UNL     1      48.817   8.118  14.815  0.00  0.00    +0.000 A 
ATOM     22  C   UNL     1      48.951   8.914  15.944  0.00  0.00    +0.000 A 
ATOM     23  S   UNL     1      49.391  10.522  15.600  0.00  0.00    +0.000 S 
ATOM     24  C   UNL     1      49.472  10.202  13.931  0.00  0.00    +0.000 A 
ATOM     25  N   UNL     1      49.832  11.172  13.049  0.00  0.00    +0.000 NA
ATOM     26  C   UNL     1      49.902  10.777  11.822  0.00  0.00    +0.000 A 
ATOM     27  N   UNL     1      49.628   9.503  11.393  0.00  0.00    +0.000 N 
ATOM     28  C   UNL     1      49.176   8.516  12.234  0.00  0.00    +0.000 A 
ATOM     29  O   UNL     1      48.803   7.432  11.798  0.00  0.00    +0.000 OA
ATOM     30  C   UNL     1      49.139   8.890  13.635  0.00  0.00    +0.000 A 
ATOM     31  H   UNL     1      49.668   9.271  10.413  0.00  0.00    +0.000 HD
ENDBRANCH  18  21
ENDBRANCH   1  19
TORSDOF 6
ENDMDL
MODEL 4
REMARK VINA RESULT:    -8.025      1.478      1.826
REMARK INTER + INTRA:         -11.329
REMARK INTER:                 -10.686
REMARK INTRA:                  -0.643
REMARK UNBOUND:                -0.723
REMARK  Name = 
REMARK  6 active torsions:
REMARK  status: ('A' for Active; 'I' for Inactive)
REMARK    1  A    between atoms: C_2  and  C_19
REMARK    2  A    between atoms: N_3  and  C_4
REMARK    3  A    between atoms: C_4  and  C_5
REMARK    4  A    between atoms: C_8  and  C_9
REMARK    5  A    between atoms: C_9  and  O_10
REMARK    6  A    between atoms: C_9  and  C_11
REMARK                            x       y       z     vdW  Elec       q    Type
REMARK                         _______ _______ _______ _____ _____    ______ ____
ROOT
ATOM      1  C   UNL     1      48.166   7.378  13.545  0.00  0.00    +0.000 C 
ENDROOT
BRANCH   1   2
ATOM      2  C   UNL     1      47.185   6.543  12.780  0.00  0.00    +0.000 A 
ATOM      3  C   UNL     1      46.716   5.320  13.268  0.00  0.00    +0.000 A 
ATOM      4  C   UNL     1      45.790   4.587  12.526  0.00  0.00    +0.000 A 
ATOM      5  C   UNL     1      45.347   5.101  11.308  0.00  0.00    +0.000 A 
ATOM      6  N   UNL     1      45.783   6.297  10.830  0.00  0.00    +0.000 NA
ATOM      7  C   UNL     1      46.672   6.991  11.571  0.00  0.00    +0.000 A 
BRANCH   5   8
ATOM      8  C   UNL     1      44.375   4.310  10.444  0.00  0.00    +0.000 C 
BRANCH   8   9
ATOM      9  C   UNL     1      45.083   3.597   9.294  0.00  0.00    +0.000 A 
ATOM     10  C   UNL     1      45.246   2.210   9.320  0.00  0.00    +0.000 A 
ATOM     11  C   UNL     1      45.979   1.601   8.307  0.00  0.00    +0.000 A 
ATOM     12  C   UNL     1      46.514   2.382   7.290  0.00  0.00    +0.000 A 
ATOM     13  C   UNL     1      46.280   3.746   7.316  0.00  0.00    +0.000 A 
ATOM     14  N   UNL     1      45.575   4.371   8.284  0.00  0.00    +0.000 NA
ENDBRANCH   8   9
BRANCH   8  15
ATOM     15  O   UNL     1      43.374   5.213   9.950  0.00  0.00    +0.000 OA
ATOM     16  H   UNL     1      43.066   4.776   9.128  0.00  0.00    +0.000 HD
ENDBRANCH   8  15
ENDBRANCH   5   8
ENDBRANCH   1   2
BRANCH   1  19
ATOM     17  O   UNL     1      50.166   6.671  15.378  0.00  0.00    +0.000 OA
ATOM     18  C   UNL     1      49.039   6.914  15.802  0.00  0.00    +0.000 C 
ATOM     19  N   UNL     1      47.995   7.209  14.967  0.00  0.00    +0.000 N 
ATOM     20  H   UNL     1      47.140   7.587  15.360  0.00  0.00    +0.000 HD
BRANCH  18  21
ATOM     21  C   UNL     1      48.726   6.846  17.236  0.00  0.00    +0.000 A 
ATOM     22  C   UNL     1      48.245   7.973  17.890  0.00  0.00    +0.000 A 
ATOM     23  S   UNL     1      47.963   7.730  19.551  0.00  0.00    +0.000 S 
ATOM     24  C   UNL     1      48.422   6.096  19.448  0.00  0.00    +0.000 A 
ATOM     25  N   UNL     1      48.380   5.287  20.540  0.00  0.00    +0.000 NA
ATOM     26  C   UNL     1      48.706   4.060  20.308  0.00  0.00    +0.000 A 
ATOM     27  N   UNL     1      49.086   3.570  19.084  0.00  0.00    +0.000 N 
ATOM     28  C   UNL     1      49.228   4.367  17.974  0.00  0.00    +0.000 A 
ATOM     29  O   UNL     1      49.706   3.927  16.934  0.00  0.00    +0.000 OA
ATOM     30  C   UNL     1      48.814   5.744  18.167  0.00  0.00    +0.000 A 
ATOM     31  H   UNL     1      49.362   2.605  18.979  0.00  0.00    +0.000 HD
ENDBRANCH  18  21
ENDBRANCH   1  19
TORSDOF 6
ENDMDL
MODEL 5
REMARK VINA RESULT:    -7.703      2.627      3.951
REMARK INTER + INTRA:         -10.903
REMARK INTER:                 -10.143
REMARK INTRA:                  -0.759
REMARK UNBOUND:                -0.723
REMARK  Name = 
REMARK  6 active torsions:
REMARK  status: ('A' for Active; 'I' for Inactive)
REMARK    1  A    between atoms: C_2  and  C_19
REMARK    2  A    between atoms: N_3  and  C_4
REMARK    3  A    between atoms: C_4  and  C_5
REMARK    4  A    between atoms: C_8  and  C_9
REMARK    5  A    between atoms: C_9  and  O_10
REMARK    6  A    between atoms: C_9  and  C_11
REMARK                            x       y       z     vdW  Elec       q    Type
REMARK                         _______ _______ _______ _____ _____    ______ ____
ROOT
ATOM      1  C   UNL     1      46.790   4.920  14.467  0.00  0.00    +0.000 C 
ENDROOT
BRANCH   1   2
ATOM      2  C   UNL     1      46.188   4.579  13.138  0.00  0.00    +0.000 A 
ATOM      3  C   UNL     1      46.095   5.516  12.105  0.00  0.00    +0.000 A 
ATOM      4  C   UNL     1      45.542   5.145  10.881  0.00  0.00    +0.000 A 
ATOM      5  C   UNL     1      45.098   3.833  10.713  0.00  0.00    +0.000 A 
ATOM      6  N   UNL     1      45.198   2.908  11.704  0.00  0.00    +0.000 NA
ATOM      7  C   UNL     1      45.745   3.290  12.877  0.00  0.00    +0.000 A 
BRANCH   5   8
ATOM      8  C   UNL     1      44.443   3.401   9.409  0.00  0.00    +0.000 C 
BRANCH   8   9
ATOM      9  C   UNL     1      45.456   2.818   8.426  0.00  0.00    +0.000 A 
ATOM     10  C   UNL     1      45.898   3.577   7.340  0.00  0.00    +0.000 A 
ATOM     11  C   UNL     1      46.746   2.986   6.409  0.00  0.00    +0.000 A 
ATOM     12  C   UNL     1      47.141   1.666   6.589  0.00  0.00    +0.000 A 
ATOM     13  C   UNL     1      46.687   0.991   7.709  0.00  0.00    +0.000 A 
ATOM     14  N   UNL     1      45.863   1.533   8.633  0.00  0.00    +0.000 NA
ENDBRANCH   8   9
BRANCH   8  15
ATOM     15  O   UNL     1      43.774   4.538   8.842  0.00  0.00    +0.000 OA
ATOM     16  H   UNL     1      42.941   4.585   9.355  0.00  0.00    +0.000 HD
ENDBRANCH   8  15
ENDBRANCH   5   8
ENDBRANCH   1   2
BRANCH   1  19
ATOM     17  O   UNL     1      49.083   5.769  15.840  0.00  0.00    +0.000 OA
ATOM     18  C   UNL     1      48.496   6.573  15.120  0.00  0.00    +0.000 C 
ATOM     19  N   UNL     1      47.338   6.253  14.463  0.00  0.00    +0.000 N 
ATOM     20  H   UNL     1      46.995   6.873  13.737  0.00  0.00    +0.000 HD
BRANCH  18  21
ATOM     21  C   UNL     1      48.972   7.954  14.963  0.00  0.00    +0.000 A 
ATOM     22  C   UNL     1      49.587   8.341  13.780  0.00  0.00    +0.000 A 
ATOM     23  S   UNL     1      50.104   9.963  13.776  0.00  0.00    +0.000 S 
ATOM     24  C   UNL     1      49.478  10.225  15.335  0.00  0.00    +0.000 A 
ATOM     25  N   UNL     1      49.564  11.445  15.928  0.00  0.00    +0.000 NA
ATOM     26  C   UNL     1      49.002  11.516  17.088  0.00  0.00    +0.000 A 
ATOM     27  N   UNL     1      48.376  10.470  17.719  0.00  0.00    +0.000 N 
ATOM     28  C   UNL     1      48.342   9.199  17.199  0.00  0.00    +0.000 A 
ATOM     29  O   UNL     1      47.902   8.258  17.850  0.00  0.00    +0.000 OA
ATOM     30  C   UNL     1      48.905   9.081  15.867  0.00  0.00    +0.000 A 
ATOM     31  H   UNL     1      47.988  10.585  18.643  0.00  0.00    +0.000 HD
ENDBRANCH  18  21
ENDBRANCH   1  19
TORSDOF 6
ENDMDL
MODEL 6
REMARK VINA RESULT:    -7.500      1.739      2.043
REMARK INTER + INTRA:         -10.635
REMARK INTER:                  -9.579
REMARK INTRA:                  -1.056
REMARK UNBOUND:                -0.723
REMARK  Name = 
REMARK  6 active torsions:
REMARK  status: ('A' for Active; 'I' for Inactive)
REMARK    1  A    between atoms: C_2  and  C_19
REMARK    2  A    between atoms: N_3  and  C_4
REMARK    3  A    between atoms: C_4  and  C_5
REMARK    4  A    between atoms: C_8  and  C_9
REMARK    5  A    between atoms: C_9  and  O_10
REMARK    6  A    between atoms: C_9  and  C_11
REMARK                            x       y       z     vdW  Elec       q    Type
REMARK                         _______ _______ _______ _____ _____    ______ ____
ROOT
ATOM      1  C   UNL     1      47.735   8.158  13.962  0.00  0.00    +0.000 C 
ENDROOT
BRANCH   1   2
ATOM      2  C   UNL     1      46.765   7.346  13.158  0.00  0.00    +0.000 A 
ATOM      3  C   UNL     1      45.751   7.940  12.402  0.00  0.00    +0.000 A 
ATOM      4  C   UNL     1      44.885   7.142  11.657  0.00  0.00    +0.000 A 
ATOM      5  C   UNL     1      45.057   5.758  11.679  0.00  0.00    +0.000 A 
ATOM      6  N   UNL     1      46.051   5.169  12.398  0.00  0.00    +0.000 NA
ATOM      7  C   UNL     1      46.881   5.965  13.103  0.00  0.00    +0.000 A 
BRANCH   5   8
ATOM      8  C   UNL     1      44.103   4.848  10.920  0.00  0.00    +0.000 C 
BRANCH   8   9
ATOM      9  C   UNL     1      44.825   4.018   9.861  0.00  0.00    +0.000 A 
ATOM     10  C   UNL     1      45.521   4.649   8.828  0.00  0.00    +0.000 A 
ATOM     11  C   UNL     1      46.087   3.869   7.825  0.00  0.00    +0.000 A 
ATOM     12  C   UNL     1      45.959   2.487   7.883  0.00  0.00    +0.000 A 
ATOM     13  C   UNL     1      45.282   1.934   8.957  0.00  0.00    +0.000 A 
ATOM     14  N   UNL     1      44.720   2.661   9.948  0.00  0.00    +0.000 NA
ENDBRANCH   8   9
BRANCH   8  15
ATOM     15  O   UNL     1      43.081   5.663  10.325  0.00  0.00    +0.000 OA
ATOM     16  H   UNL     1      43.542   6.511  10.158  0.00  0.00    +0.000 HD
ENDBRANCH   8  15
ENDBRANCH   5   8
ENDBRANCH   1   2
BRANCH   1  19
ATOM     17  O   UNL     1      48.760   8.574  16.539  0.00  0.00    +0.000 OA
ATOM     18  C   UNL     1      49.089   7.559  15.931  0.00  0.00    +0.000 C 
ATOM     19  N   UNL     1      48.678   7.311  14.648  0.00  0.00    +0.000 N 
ATOM     20  H   UNL     1      48.812   6.385  14.257  0.00  0.00    +0.000 HD
BRANCH  18  21
ATOM     21  C   UNL     1      49.995   6.567  16.526  0.00  0.00    +0.000 A 
ATOM     22  C   UNL     1      51.300   6.924  16.837  0.00  0.00    +0.000 A 
ATOM     23  S   UNL     1      52.222   5.650  17.489  0.00  0.00    +0.000 S 
ATOM     24  C   UNL     1      50.896   4.586  17.430  0.00  0.00    +0.000 A 
ATOM     25  N   UNL     1      51.004   3.308  17.879  0.00  0.00    +0.000 NA
ATOM     26  C   UNL     1      49.908   2.628  17.823  0.00  0.00    +0.000 A 
ATOM     27  N   UNL     1      48.715   3.105  17.341  0.00  0.00    +0.000 N 
ATOM     28  C   UNL     1      48.581   4.359  16.796  0.00  0.00    +0.000 A 
ATOM     29  O   UNL     1      47.541   4.704  16.244  0.00  0.00    +0.000 OA
ATOM     30  C   UNL     1      49.769   5.186  16.892  0.00  0.00    +0.000 A 
ATOM     31  H   UNL     1      47.904   2.508  17.292  0.00  0.00    +0.000 HD
ENDBRANCH  18  21
ENDBRANCH   1  19
TORSDOF 6
ENDMDL
MODEL 7
REMARK VINA RESULT:    -7.244      3.764      8.828
REMARK INTER + INTRA:         -10.297
REMARK INTER:                  -9.423
REMARK INTRA:                  -0.874
REMARK UNBOUND:                -0.723
REMARK  Name = 
REMARK  6 active torsions:
REMARK  status: ('A' for Active; 'I' for Inactive)
REMARK    1  A    between atoms: C_2  and  C_19
REMARK    2  A    between atoms: N_3  and  C_4
REMARK    3  A    between atoms: C_4  and  C_5
REMARK    4  A    between atoms: C_8  and  C_9
REMARK    5  A    between atoms: C_9  and  O_10
REMARK    6  A    between atoms: C_9  and  C_11
REMARK                            x       y       z     vdW  Elec       q    Type
REMARK                         _______ _______ _______ _____ _____    ______ ____
ROOT
ATOM      1  C   UNL     1      47.102   3.327  16.892  0.00  0.00    +0.000 C 
ENDROOT
BRANCH   1   2
ATOM      2  C   UNL     1      48.524   3.447  17.351  0.00  0.00    +0.000 A 
ATOM      3  C   UNL     1      49.498   2.511  16.995  0.00  0.00    +0.000 A 
ATOM      4  C   UNL     1      50.811   2.677  17.434  0.00  0.00    +0.000 A 
ATOM      5  C   UNL     1      51.124   3.786  18.219  0.00  0.00    +0.000 A 
ATOM      6  N   UNL     1      50.188   4.713  18.558  0.00  0.00    +0.000 NA
ATOM      7  C   UNL     1      48.927   4.534  18.114  0.00  0.00    +0.000 A 
BRANCH   5   8
ATOM      8  C   UNL     1      52.533   3.977  18.759  0.00  0.00    +0.000 C 
BRANCH   8   9
ATOM      9  C   UNL     1      53.492   4.491  17.688  0.00  0.00    +0.000 A 
ATOM     10  C   UNL     1      54.716   3.853  17.476  0.00  0.00    +0.000 A 
ATOM     11  C   UNL     1      55.610   4.401  16.562  0.00  0.00    +0.000 A 
ATOM     12  C   UNL     1      55.256   5.555  15.873  0.00  0.00    +0.000 A 
ATOM     13  C   UNL     1      54.011   6.109  16.113  0.00  0.00    +0.000 A 
ATOM     14  N   UNL     1      53.119   5.604  16.994  0.00  0.00    +0.000 NA
ENDBRANCH   8   9
BRANCH   8  15
ATOM     15  O   UNL     1      52.985   2.723  19.293  0.00  0.00    +0.000 OA
ATOM     16  H   UNL     1      53.337   2.970  20.174  0.00  0.00    +0.000 HD
ENDBRANCH   8  15
ENDBRANCH   5   8
ENDBRANCH   1   2
BRANCH   1  19
ATOM     17  O   UNL     1      47.290   3.021  14.111  0.00  0.00    +0.000 OA
ATOM     18  C   UNL     1      46.857   4.079  14.559  0.00  0.00    +0.000 C 
ATOM     19  N   UNL     1      46.789   4.329  15.904  0.00  0.00    +0.000 N 
ATOM     20  H   UNL     1      46.255   5.126  16.232  0.00  0.00    +0.000 HD
BRANCH  18  21
ATOM     21  C   UNL     1      46.436   5.173  13.673  0.00  0.00    +0.000 A 
ATOM     22  C   UNL     1      47.301   6.230  13.423  0.00  0.00    +0.000 A 
ATOM     23  S   UNL     1      46.645   7.424  12.402  0.00  0.00    +0.000 S 
ATOM     24  C   UNL     1      45.199   6.547  12.213  0.00  0.00    +0.000 A 
ATOM     25  N   UNL     1      44.199   7.011  11.417  0.00  0.00    +0.000 NA
ATOM     26  C   UNL     1      43.182   6.221  11.324  0.00  0.00    +0.000 A 
ATOM     27  N   UNL     1      43.066   5.015  11.968  0.00  0.00    +0.000 N 
ATOM     28  C   UNL     1      44.011   4.549  12.849  0.00  0.00    +0.000 A 
ATOM     29  O   UNL     1      43.813   3.539  13.517  0.00  0.00    +0.000 OA
ATOM     30  C   UNL     1      45.204   5.370  12.942  0.00  0.00    +0.000 A 
ATOM     31  H   UNL     1      42.228   4.463  11.879  0.00  0.00    +0.000 HD
ENDBRANCH  18  21
ENDBRANCH   1  19
TORSDOF 6
ENDMDL
MODEL 8
REMARK VINA RESULT:    -7.215      4.195      8.870
REMARK INTER + INTRA:         -10.258
REMARK INTER:                  -9.717
REMARK INTRA:                  -0.540
REMARK UNBOUND:                -0.723
REMARK  Name = 
REMARK  6 active torsions:
REMARK  status: ('A' for Active; 'I' for Inactive)
REMARK    1  A    between atoms: C_2  and  C_19
REMARK    2  A    between atoms: N_3  and  C_4
REMARK    3  A    between atoms: C_4  and  C_5
REMARK    4  A    between atoms: C_8  and  C_9
REMARK    5  A    between atoms: C_9  and  O_10
REMARK    6  A    between atoms: C_9  and  C_11
REMARK                            x       y       z     vdW  Elec       q    Type
REMARK                         _______ _______ _______ _____ _____    ______ ____
ROOT
ATOM      1  C   UNL     1      47.368   3.318  17.066  0.00  0.00    +0.000 C 
ENDROOT
BRANCH   1   2
ATOM      2  C   UNL     1      48.824   3.215  17.405  0.00  0.00    +0.000 A 
ATOM      3  C   UNL     1      49.617   2.158  16.950  0.00  0.00    +0.000 A 
ATOM      4  C   UNL     1      50.971   2.117  17.279  0.00  0.00    +0.000 A 
ATOM      5  C   UNL     1      51.506   3.144  18.056  0.00  0.00    +0.000 A 
ATOM      6  N   UNL     1      50.749   4.187  18.490  0.00  0.00    +0.000 NA
ATOM      7  C   UNL     1      49.443   4.208  18.151  0.00  0.00    +0.000 A 
BRANCH   5   8
ATOM      8  C   UNL     1      52.968   3.111  18.479  0.00  0.00    +0.000 C 
BRANCH   8   9
ATOM      9  C   UNL     1      53.675   1.848  17.994  0.00  0.00    +0.000 A 
ATOM     10  C   UNL     1      54.620   1.921  16.968  0.00  0.00    +0.000 A 
ATOM     11  C   UNL     1      55.176   0.742  16.481  0.00  0.00    +0.000 A 
ATOM     12  C   UNL     1      54.790  -0.473  17.036  0.00  0.00    +0.000 A 
ATOM     13  C   UNL     1      53.873  -0.460  18.073  0.00  0.00    +0.000 A 
ATOM     14  N   UNL     1      53.313   0.665  18.569  0.00  0.00    +0.000 NA
ENDBRANCH   8   9
BRANCH   8  15
ATOM     15  O   UNL     1      53.025   3.213  19.910  0.00  0.00    +0.000 OA
ATOM     16  H   UNL     1      53.596   3.997  20.054  0.00  0.00    +0.000 HD
ENDBRANCH   8  15
ENDBRANCH   5   8
ENDBRANCH   1   2
BRANCH   1  19
ATOM     17  O   UNL     1      47.390   3.026  14.277  0.00  0.00    +0.000 OA
ATOM     18  C   UNL     1      47.108   4.123  14.751  0.00  0.00    +0.000 C 
ATOM     19  N   UNL     1      47.132   4.362  16.100  0.00  0.00    +0.000 N 
ATOM     20  H   UNL     1      46.712   5.213  16.458  0.00  0.00    +0.000 HD
BRANCH  18  21
ATOM     21  C   UNL     1      46.781   5.270  13.894  0.00  0.00    +0.000 A 
ATOM     22  C   UNL     1      47.690   6.310  13.756  0.00  0.00    +0.000 A 
ATOM     23  S   UNL     1      47.141   7.571  12.752  0.00  0.00    +0.000 S 
ATOM     24  C   UNL     1      45.689   6.750  12.421  0.00  0.00    +0.000 A 
ATOM     25  N   UNL     1      44.760   7.282  11.583  0.00  0.00    +0.000 NA
ATOM     26  C   UNL     1      43.730   6.529  11.381  0.00  0.00    +0.000 A 
ATOM     27  N   UNL     1      43.536   5.298  11.956  0.00  0.00    +0.000 N 
ATOM     28  C   UNL     1      44.403   4.761  12.876  0.00  0.00    +0.000 A 
ATOM     29  O   UNL     1      44.131   3.728  13.478  0.00  0.00    +0.000 OA
ATOM     30  C   UNL     1      45.609   5.539  13.091  0.00  0.00    +0.000 A 
ATOM     31  H   UNL     1      42.690   4.778  11.783  0.00  0.00    +0.000 HD
ENDBRANCH  18  21
ENDBRANCH   1  19
TORSDOF 6
ENDMDL
MODEL 9
REMARK VINA RESULT:    -7.048      3.504      8.280
REMARK INTER + INTRA:         -10.038
REMARK INTER:                  -9.015
REMARK INTRA:                  -1.023
REMARK UNBOUND:                -0.723
REMARK  Name = 
REMARK  6 active torsions:
REMARK  status: ('A' for Active; 'I' for Inactive)
REMARK    1  A    between atoms: C_2  and  C_19
REMARK    2  A    between atoms: N_3  and  C_4
REMARK    3  A    between atoms: C_4  and  C_5
REMARK    4  A    between atoms: C_8  and  C_9
REMARK    5  A    between atoms: C_9  and  O_10
REMARK    6  A    between atoms: C_9  and  C_11
REMARK                            x       y       z     vdW  Elec       q    Type
REMARK                         _______ _______ _______ _____ _____    ______ ____
ROOT
ATOM      1  C   UNL     1      47.794   6.970  13.760  0.00  0.00    +0.000 C 
ENDROOT
BRANCH   1   2
ATOM      2  C   UNL     1      48.300   6.249  14.973  0.00  0.00    +0.000 A 
ATOM      3  C   UNL     1      47.622   5.158  15.522  0.00  0.00    +0.000 A 
ATOM      4  C   UNL     1      48.143   4.511  16.641  0.00  0.00    +0.000 A 
ATOM      5  C   UNL     1      49.343   4.969  17.186  0.00  0.00    +0.000 A 
ATOM      6  N   UNL     1      50.021   6.019  16.650  0.00  0.00    +0.000 NA
ATOM      7  C   UNL     1      49.500   6.623  15.562  0.00  0.00    +0.000 A 
BRANCH   5   8
ATOM      8  C   UNL     1      49.920   4.322  18.437  0.00  0.00    +0.000 C 
BRANCH   8   9
ATOM      9  C   UNL     1      51.052   3.351  18.108  0.00  0.00    +0.000 A 
ATOM     10  C   UNL     1      50.770   2.113  17.527  0.00  0.00    +0.000 A 
ATOM     11  C   UNL     1      51.810   1.211  17.328  0.00  0.00    +0.000 A 
ATOM     12  C   UNL     1      53.101   1.570  17.697  0.00  0.00    +0.000 A 
ATOM     13  C   UNL     1      53.305   2.828  18.236  0.00  0.00    +0.000 A 
ATOM     14  N   UNL     1      52.319   3.728  18.444  0.00  0.00    +0.000 NA
ENDBRANCH   8   9
BRANCH   8  15
ATOM     15  O   UNL     1      48.855   3.652  19.130  0.00  0.00    +0.000 OA
ATOM     16  H   UNL     1      48.131   3.645  18.471  0.00  0.00    +0.000 HD
ENDBRANCH   8  15
ENDBRANCH   5   8
ENDBRANCH   1   2
BRANCH   1  19
ATOM     17  O   UNL     1      45.968   7.715  11.766  0.00  0.00    +0.000 OA
ATOM     18  C   UNL     1      46.241   6.526  11.899  0.00  0.00    +0.000 C 
ATOM     19  N   UNL     1      47.078   6.075  12.886  0.00  0.00    +0.000 N 
ATOM     20  H   UNL     1      47.425   5.123  12.842  0.00  0.00    +0.000 HD
BRANCH  18  21
ATOM     21  C   UNL     1      45.640   5.499  11.038  0.00  0.00    +0.000 A 
ATOM     22  C   UNL     1      45.814   5.564   9.662  0.00  0.00    +0.000 A 
ATOM     23  S   UNL     1      45.028   4.316   8.812  0.00  0.00    +0.000 S 
ATOM     24  C   UNL     1      44.469   3.610  10.255  0.00  0.00    +0.000 A 
ATOM     25  N   UNL     1      43.737   2.465  10.236  0.00  0.00    +0.000 NA
ATOM     26  C   UNL     1      43.423   2.012  11.404  0.00  0.00    +0.000 A 
ATOM     27  N   UNL     1      43.761   2.611  12.591  0.00  0.00    +0.000 N 
ATOM     28  C   UNL     1      44.423   3.813  12.657  0.00  0.00    +0.000 A 
ATOM     29  O   UNL     1      44.584   4.391  13.727  0.00  0.00    +0.000 OA
ATOM     30  C   UNL     1      44.853   4.333  11.373  0.00  0.00    +0.000 A 
ATOM     31  H   UNL     1      43.453   2.222  13.469  0.00  0.00    +0.000 HD
ENDBRANCH  18  21
ENDBRANCH   1  19
TORSDOF 6
ENDMDL
