MODEL 1
REMARK VINA RESULT:    -9.171      0.000      0.000
REMARK INTER + INTRA:         -13.917
REMARK INTER:                 -13.192
REMARK INTRA:                  -0.725
REMARK UNBOUND:                -0.725
REMARK  Name = 
REMARK  9 active torsions:
REMARK  status: ('A' for Active; 'I' for Inactive)
REMARK    1  A    between atoms: C_1  and  C_2
REMARK    2  A    between atoms: C_2  and  N_3
REMARK    3  A    between atoms: C_2  and  C_22
REMARK    4  A    between atoms: N_3  and  C_4
REMARK    5  A    between atoms: C_4  and  C_5
REMARK    6  A    between atoms: C_8  and  C_9
REMARK    7  A    between atoms: C_9  and  O_10
REMARK    8  A    between atoms: C_9  and  C_11
REMARK    9  A    between atoms: C_11  and  N_12
REMARK                            x       y       z     vdW  Elec       q    Type
REMARK                         _______ _______ _______ _____ _____    ______ ____
ROOT
ATOM      1  C   UNL     1      46.770   5.212  13.812  0.00  0.00    +0.000 A 
ATOM      2  C   UNL     1      46.492   3.893  13.432  0.00  0.00    +0.000 A 
ATOM      3  C   UNL     1      45.475   3.613  12.512  0.00  0.00    +0.000 A 
ATOM      4  C   UNL     1      44.713   4.648  11.955  0.00  0.00    +0.000 A 
ATOM      5  C   UNL     1      45.010   5.968  12.339  0.00  0.00    +0.000 A 
ATOM      6  C   UNL     1      46.023   6.248  13.253  0.00  0.00    +0.000 A 
ENDROOT
BRANCH   1   7
ATOM      7  C   UNL     1      47.805   5.519  14.865  0.00  0.00    +0.000 C 
BRANCH   7   8
ATOM      8  N   UNL     1      48.226   4.315  15.573  0.00  0.00    +0.000 NA
ATOM      9  H   UNL     1      49.198   4.127  15.327  0.00  0.00    +0.000 HD
BRANCH   8  11
ATOM     10  C   UNL     1      47.224   3.402  17.665  0.00  0.00    +0.000 C 
ATOM     11  C   UNL     1      48.131   4.464  17.033  0.00  0.00    +0.000 C 
BRANCH  11  12
ATOM     12  C   UNL     1      49.546   4.373  17.565  0.00  0.00    +0.000 A 
ATOM     13  C   UNL     1      50.181   5.382  18.276  0.00  0.00    +0.000 A 
ATOM     14  S   UNL     1      51.742   4.954  18.814  0.00  0.00    +0.000 S 
ATOM     15  C   UNL     1      51.616   3.400  18.129  0.00  0.00    +0.000 A 
ATOM     16  N   UNL     1      52.604   2.479  18.282  0.00  0.00    +0.000 NA
ATOM     17  C   UNL     1      52.354   1.336  17.735  0.00  0.00    +0.000 A 
ATOM     18  N   UNL     1      51.221   1.040  17.021  0.00  0.00    +0.000 N 
ATOM     19  C   UNL     1      50.230   1.963  16.772  0.00  0.00    +0.000 A 
ATOM     20  O   UNL     1      49.291   1.707  16.025  0.00  0.00    +0.000 OA
ATOM     21  C   UNL     1      50.425   3.233  17.447  0.00  0.00    +0.000 A 
ATOM     22  H   UNL     1      51.109   0.140  16.579  0.00  0.00    +0.000 HD
ENDBRANCH  11  12
ENDBRANCH   8  11
ENDBRANCH   7   8
ENDBRANCH   1   7
BRANCH   4  23
ATOM     23  C   UNL     1      43.598   4.312  10.970  0.00  0.00    +0.000 C 
BRANCH  23  24
ATOM     24  O   UNL     1      43.223   5.500  10.254  0.00  0.00    +0.000 OA
ATOM     25  H   UNL     1      43.625   5.438   9.370  0.00  0.00    +0.000 HD
ENDBRANCH  23  24
BRANCH  23  26
ATOM     26  C   UNL     1      44.011   3.237   9.946  0.00  0.00    +0.000 C 
BRANCH  26  27
ATOM     27  N   UNL     1      44.637   3.795   8.742  0.00  0.00    +0.000 N 
ATOM     28  C   UNL     1      45.510   2.864   8.145  0.00  0.00    +0.000 A 
ATOM     29  C   UNL     1      46.206   3.240   7.007  0.00  0.00    +0.000 A 
ATOM     30  C   UNL     1      47.036   2.306   6.395  0.00  0.00    +0.000 A 
ATOM     31 CL   UNL     1      47.906   2.735   4.975  0.00  0.00    +0.000 Cl
ATOM     32  C   UNL     1      47.164   1.027   6.916  0.00  0.00    +0.000 A 
ATOM     33  C   UNL     1      46.434   0.731   8.042  0.00  0.00    +0.000 A 
ATOM     34  N   UNL     1      45.618   1.615   8.652  0.00  0.00    +0.000 NA
ATOM     35  H   UNL     1      45.129   4.657   8.957  0.00  0.00    +0.000 HD
ENDBRANCH  26  27
ENDBRANCH  23  26
ENDBRANCH   4  23
TORSDOF 8
ENDMDL
MODEL 2
REMARK VINA RESULT:    -8.733      2.702      3.765
REMARK INTER + INTRA:         -13.287
REMARK INTER:                 -11.874
REMARK INTRA:                  -1.414
REMARK UNBOUND:                -0.725
REMARK  Name = 
REMARK  9 active torsions:
REMARK  status: ('A' for Active; 'I' for Inactive)
REMARK    1  A    between atoms: C_1  and  C_2
REMARK    2  A    between atoms: C_2  and  N_3
REMARK    3  A    between atoms: C_2  and  C_22
REMARK    4  A    between atoms: N_3  and  C_4
REMARK    5  A    between atoms: C_4  and  C_5
REMARK    6  A    between atoms: C_8  and  C_9
REMARK    7  A    between atoms: C_9  and  O_10
REMARK    8  A    between atoms: C_9  and  C_11
REMARK    9  A    between atoms: C_11  and  N_12
REMARK                            x       y       z     vdW  Elec       q    Type
REMARK                         _______ _______ _______ _____ _____    ______ ____
ROOT
ATOM      1  C   UNL     1      47.564   6.404  12.927  0.00  0.00    +0.000 A 
ATOM      2  C   UNL     1      47.235   5.357  13.798  0.00  0.00    +0.000 A 
ATOM      3  C   UNL     1      45.973   4.754  13.748  0.00  0.00    +0.000 A 
ATOM      4  C   UNL     1      45.011   5.189  12.826  0.00  0.00    +0.000 A 
ATOM      5  C   UNL     1      45.359   6.234  11.951  0.00  0.00    +0.000 A 
ATOM      6  C   UNL     1      46.616   6.834  12.000  0.00  0.00    +0.000 A 
ENDROOT
BRANCH   1   7
ATOM      7  C   UNL     1      48.888   7.116  13.029  0.00  0.00    +0.000 C 
BRANCH   7   8
ATOM      8  N   UNL     1      49.658   6.661  14.182  0.00  0.00    +0.000 NA
ATOM      9  H   UNL     1      50.372   6.012  13.850  0.00  0.00    +0.000 HD
BRANCH   8  11
ATOM     10  C   UNL     1      50.473   9.010  13.995  0.00  0.00    +0.000 C 
ATOM     11  C   UNL     1      50.320   7.770  14.884  0.00  0.00    +0.000 C 
BRANCH  11  12
ATOM     12  C   UNL     1      49.477   8.066  16.108  0.00  0.00    +0.000 A 
ATOM     13  C   UNL     1      48.924   9.306  16.395  0.00  0.00    +0.000 A 
ATOM     14  S   UNL     1      47.957   9.308  17.800  0.00  0.00    +0.000 S 
ATOM     15  C   UNL     1      48.230   7.648  18.062  0.00  0.00    +0.000 A 
ATOM     16  N   UNL     1      47.626   6.986  19.084  0.00  0.00    +0.000 NA
ATOM     17  C   UNL     1      47.904   5.726  19.138  0.00  0.00    +0.000 A 
ATOM     18  N   UNL     1      48.755   5.073  18.282  0.00  0.00    +0.000 N 
ATOM     19  C   UNL     1      49.450   5.716  17.283  0.00  0.00    +0.000 A 
ATOM     20  O   UNL     1      50.298   5.131  16.616  0.00  0.00    +0.000 OA
ATOM     21  C   UNL     1      49.097   7.115  17.126  0.00  0.00    +0.000 A 
ATOM     22  H   UNL     1      48.965   4.095  18.409  0.00  0.00    +0.000 HD
ENDBRANCH  11  12
ENDBRANCH   8  11
ENDBRANCH   7   8
ENDBRANCH   1   7
BRANCH   4  23
ATOM     23  C   UNL     1      43.638   4.527  12.807  0.00  0.00    +0.000 C 
BRANCH  23  24
ATOM     24  O   UNL     1      42.658   5.453  13.306  0.00  0.00    +0.000 OA
ATOM     25  H   UNL     1      43.142   6.148  13.784  0.00  0.00    +0.000 HD
ENDBRANCH  23  24
BRANCH  23  26
ATOM     26  C   UNL     1      43.210   4.080  11.396  0.00  0.00    +0.000 C 
BRANCH  26  27
ATOM     27  N   UNL     1      43.823   2.814  10.980  0.00  0.00    +0.000 N 
ATOM     28  C   UNL     1      44.600   2.983   9.816  0.00  0.00    +0.000 A 
ATOM     29  C   UNL     1      45.232   1.877   9.272  0.00  0.00    +0.000 A 
ATOM     30  C   UNL     1      46.031   2.053   8.147  0.00  0.00    +0.000 A 
ATOM     31 CL   UNL     1      46.840   0.703   7.451  0.00  0.00    +0.000 Cl
ATOM     32  C   UNL     1      46.189   3.310   7.583  0.00  0.00    +0.000 A 
ATOM     33  C   UNL     1      45.535   4.356   8.188  0.00  0.00    +0.000 A 
ATOM     34  N   UNL     1      44.759   4.215   9.282  0.00  0.00    +0.000 NA
ATOM     35  H   UNL     1      43.116   2.099  10.835  0.00  0.00    +0.000 HD
ENDBRANCH  26  27
ENDBRANCH  23  26
ENDBRANCH   4  23
TORSDOF 8
ENDMDL
MODEL 3
REMARK VINA RESULT:    -8.396      2.237      2.869
REMARK INTER + INTRA:         -12.802
REMARK INTER:                 -11.763
REMARK INTRA:                  -1.039
REMARK UNBOUND:                -0.725
REMARK  Name = 
REMARK  9 active torsions:
REMARK  status: ('A' for Active; 'I' for Inactive)
REMARK    1  A    between atoms: C_1  and  C_2
REMARK    2  A    between atoms: C_2  and  N_3
REMARK    3  A    between atoms: C_2  and  C_22
REMARK    4  A    between atoms: N_3  and  C_4
REMARK    5  A    between atoms: C_4  and  C_5
REMARK    6  A    between atoms: C_8  and  C_9
REMARK    7  A    between atoms: C_9  and  O_10
REMARK    8  A    between atoms: C_9  and  C_11
REMARK    9  A    between atoms: C_11  and  N_12
REMARK                            x       y       z     vdW  Elec       q    Type
REMARK                         _______ _______ _______ _____ _____    ______ ____
ROOT
ATOM      1  C   UNL     1      47.247   6.175  13.198  0.00  0.00    +0.000 A 
ATOM      2  C   UNL     1      46.561   5.017  13.585  0.00  0.00    +0.000 A 
ATOM      3  C   UNL     1      45.402   4.613  12.912  0.00  0.00    +0.000 A 
ATOM      4  C   UNL     1      44.904   5.362  11.838  0.00  0.00    +0.000 A 
ATOM      5  C   UNL     1      45.609   6.517  11.454  0.00  0.00    +0.000 A 
ATOM      6  C   UNL     1      46.763   6.919  12.123  0.00  0.00    +0.000 A 
ENDROOT
BRANCH   1   7
ATOM      7  C   UNL     1      48.446   6.666  13.968  0.00  0.00    +0.000 C 
BRANCH   7   8
ATOM      8  N   UNL     1      48.214   6.628  15.408  0.00  0.00    +0.000 NA
ATOM      9  H   UNL     1      48.441   5.690  15.740  0.00  0.00    +0.000 HD
BRANCH   8  11
ATOM     10  C   UNL     1      48.831   9.033  15.635  0.00  0.00    +0.000 C 
ATOM     11  C   UNL     1      49.046   7.599  16.134  0.00  0.00    +0.000 C 
BRANCH  11  12
ATOM     12  C   UNL     1      48.684   7.461  17.598  0.00  0.00    +0.000 A 
ATOM     13  C   UNL     1      48.078   8.458  18.351  0.00  0.00    +0.000 A 
ATOM     14  S   UNL     1      47.720   7.978  19.949  0.00  0.00    +0.000 S 
ATOM     15  C   UNL     1      48.347   6.417  19.682  0.00  0.00    +0.000 A 
ATOM     16  N   UNL     1      48.289   5.460  20.647  0.00  0.00    +0.000 NA
ATOM     17  C   UNL     1      48.774   4.317  20.290  0.00  0.00    +0.000 A 
ATOM     18  N   UNL     1      49.341   4.053  19.068  0.00  0.00    +0.000 N 
ATOM     19  C   UNL     1      49.493   5.010  18.091  0.00  0.00    +0.000 A 
ATOM     20  O   UNL     1      50.116   4.777  17.060  0.00  0.00    +0.000 OA
ATOM     21  C   UNL     1      48.878   6.285  18.413  0.00  0.00    +0.000 A 
ATOM     22  H   UNL     1      49.744   3.150  18.871  0.00  0.00    +0.000 HD
ENDBRANCH  11  12
ENDBRANCH   8  11
ENDBRANCH   7   8
ENDBRANCH   1   7
BRANCH   4  23
ATOM     23  C   UNL     1      43.629   4.908  11.136  0.00  0.00    +0.000 C 
BRANCH  23  24
ATOM     24  O   UNL     1      43.042   6.026  10.447  0.00  0.00    +0.000 OA
ATOM     25  H   UNL     1      43.325   5.967   9.519  0.00  0.00    +0.000 HD
ENDBRANCH  23  24
BRANCH  23  26
ATOM     26  C   UNL     1      43.878   3.784  10.112  0.00  0.00    +0.000 C 
BRANCH  26  27
ATOM     27  N   UNL     1      44.515   4.256   8.878  0.00  0.00    +0.000 N 
ATOM     28  C   UNL     1      45.328   3.255   8.310  0.00  0.00    +0.000 A 
ATOM     29  C   UNL     1      46.026   3.544   7.148  0.00  0.00    +0.000 A 
ATOM     30  C   UNL     1      46.796   2.543   6.567  0.00  0.00    +0.000 A 
ATOM     31 CL   UNL     1      47.667   2.863   5.119  0.00  0.00    +0.000 Cl
ATOM     32  C   UNL     1      46.864   1.281   7.140  0.00  0.00    +0.000 A 
ATOM     33  C   UNL     1      46.136   1.073   8.287  0.00  0.00    +0.000 A 
ATOM     34  N   UNL     1      45.377   2.025   8.869  0.00  0.00    +0.000 NA
ATOM     35  H   UNL     1      45.056   5.099   9.049  0.00  0.00    +0.000 HD
ENDBRANCH  26  27
ENDBRANCH  23  26
ENDBRANCH   4  23
TORSDOF 8
ENDMDL
MODEL 4
REMARK VINA RESULT:    -8.133      2.270      2.931
REMARK INTER + INTRA:         -12.425
REMARK INTER:                 -11.481
REMARK INTRA:                  -0.943
REMARK UNBOUND:                -0.725
REMARK  Name = 
REMARK  9 active torsions:
REMARK  status: ('A' for Active; 'I' for Inactive)
REMARK    1  A    between atoms: C_1  and  C_2
REMARK    2  A    between atoms: C_2  and  N_3
REMARK    3  A    between atoms: C_2  and  C_22
REMARK    4  A    between atoms: N_3  and  C_4
REMARK    5  A    between atoms: C_4  and  C_5
REMARK    6  A    between atoms: C_8  and  C_9
REMARK    7  A    between atoms: C_9  and  O_10
REMARK    8  A    between atoms: C_9  and  C_11
REMARK    9  A    between atoms: C_11  and  N_12
REMARK                            x       y       z     vdW  Elec       q    Type
REMARK                         _______ _______ _______ _____ _____    ______ ____
ROOT
ATOM      1  C   UNL     1      47.342   7.034  13.049  0.00  0.00    +0.000 A 
ATOM      2  C   UNL     1      47.267   5.641  13.173  0.00  0.00    +0.000 A 
ATOM      3  C   UNL     1      46.041   4.977  13.050  0.00  0.00    +0.000 A 
ATOM      4  C   UNL     1      44.863   5.694  12.803  0.00  0.00    +0.000 A 
ATOM      5  C   UNL     1      44.955   7.092  12.672  0.00  0.00    +0.000 A 
ATOM      6  C   UNL     1      46.175   7.754  12.793  0.00  0.00    +0.000 A 
ENDROOT
BRANCH   1   7
ATOM      7  C   UNL     1      48.641   7.767  13.264  0.00  0.00    +0.000 C 
BRANCH   7   8
ATOM      8  N   UNL     1      49.608   6.950  13.990  0.00  0.00    +0.000 NA
ATOM      9  H   UNL     1      50.472   6.924  13.447  0.00  0.00    +0.000 HD
BRANCH   8  11
ATOM     10  C   UNL     1      48.986   8.660  15.694  0.00  0.00    +0.000 C 
ATOM     11  C   UNL     1      49.907   7.492  15.323  0.00  0.00    +0.000 C 
BRANCH  11  12
ATOM     12  C   UNL     1      49.759   6.340  16.296  0.00  0.00    +0.000 A 
ATOM     13  C   UNL     1      48.543   5.787  16.674  0.00  0.00    +0.000 A 
ATOM     14  S   UNL     1      48.703   4.448  17.719  0.00  0.00    +0.000 S 
ATOM     15  C   UNL     1      50.403   4.551  17.686  0.00  0.00    +0.000 A 
ATOM     16  N   UNL     1      51.177   3.639  18.333  0.00  0.00    +0.000 NA
ATOM     17  C   UNL     1      52.447   3.827  18.192  0.00  0.00    +0.000 A 
ATOM     18  N   UNL     1      53.014   4.861  17.490  0.00  0.00    +0.000 N 
ATOM     19  C   UNL     1      52.272   5.850  16.886  0.00  0.00    +0.000 A 
ATOM     20  O   UNL     1      52.809   6.829  16.375  0.00  0.00    +0.000 OA
ATOM     21  C   UNL     1      50.839   5.629  16.939  0.00  0.00    +0.000 A 
ATOM     22  H   UNL     1      54.015   4.975  17.459  0.00  0.00    +0.000 HD
ENDBRANCH  11  12
ENDBRANCH   8  11
ENDBRANCH   7   8
ENDBRANCH   1   7
BRANCH   4  23
ATOM     23  C   UNL     1      43.539   4.946  12.694  0.00  0.00    +0.000 C 
BRANCH  23  24
ATOM     24  O   UNL     1      42.590   5.523  13.607  0.00  0.00    +0.000 OA
ATOM     25  H   UNL     1      43.069   5.708  14.434  0.00  0.00    +0.000 HD
ENDBRANCH  23  24
BRANCH  23  26
ATOM     26  C   UNL     1      42.940   4.997  11.275  0.00  0.00    +0.000 C 
BRANCH  26  27
ATOM     27  N   UNL     1      43.922   5.358  10.246  0.00  0.00    +0.000 N 
ATOM     28  C   UNL     1      44.461   4.209   9.633  0.00  0.00    +0.000 A 
ATOM     29  C   UNL     1      45.426   4.370   8.652  0.00  0.00    +0.000 A 
ATOM     30  C   UNL     1      45.928   3.237   8.020  0.00  0.00    +0.000 A 
ATOM     31 CL   UNL     1      47.119   3.400   6.789  0.00  0.00    +0.000 Cl
ATOM     32  C   UNL     1      45.473   1.974   8.368  0.00  0.00    +0.000 A 
ATOM     33  C   UNL     1      44.509   1.901   9.345  0.00  0.00    +0.000 A 
ATOM     34  N   UNL     1      44.000   2.983   9.970  0.00  0.00    +0.000 NA
ATOM     35  H   UNL     1      44.661   5.933  10.637  0.00  0.00    +0.000 HD
ENDBRANCH  26  27
ENDBRANCH  23  26
ENDBRANCH   4  23
TORSDOF 8
ENDMDL
MODEL 5
REMARK VINA RESULT:    -8.099      2.938      3.771
REMARK INTER + INTRA:         -12.375
REMARK INTER:                 -11.291
REMARK INTRA:                  -1.084
REMARK UNBOUND:                -0.725
REMARK  Name = 
REMARK  9 active torsions:
REMARK  status: ('A' for Active; 'I' for Inactive)
REMARK    1  A    between atoms: C_1  and  C_2
REMARK    2  A    between atoms: C_2  and  N_3
REMARK    3  A    between atoms: C_2  and  C_22
REMARK    4  A    between atoms: N_3  and  C_4
REMARK    5  A    between atoms: C_4  and  C_5
REMARK    6  A    between atoms: C_8  and  C_9
REMARK    7  A    between atoms: C_9  and  O_10
REMARK    8  A    between atoms: C_9  and  C_11
REMARK    9  A    between atoms: C_11  and  N_12
REMARK                            x       y       z     vdW  Elec       q    Type
REMARK                         _______ _______ _______ _____ _____    ______ ____
ROOT
ATOM      1  C   UNL     1      47.351   6.543  13.225  0.00  0.00    +0.000 A 
ATOM      2  C   UNL     1      46.207   7.235  12.806  0.00  0.00    +0.000 A 
ATOM      3  C   UNL     1      44.973   6.582  12.705  0.00  0.00    +0.000 A 
ATOM      4  C   UNL     1      44.859   5.221  13.018  0.00  0.00    +0.000 A 
ATOM      5  C   UNL     1      46.014   4.542  13.446  0.00  0.00    +0.000 A 
ATOM      6  C   UNL     1      47.242   5.191  13.549  0.00  0.00    +0.000 A 
ENDROOT
BRANCH   1   7
ATOM      7  C   UNL     1      48.700   7.214  13.257  0.00  0.00    +0.000 C 
BRANCH   7   8
ATOM      8  N   UNL     1      49.545   6.677  14.318  0.00  0.00    +0.000 NA
ATOM      9  H   UNL     1      50.487   6.560  13.945  0.00  0.00    +0.000 HD
BRANCH   8  11
ATOM     10  C   UNL     1      48.619   8.734  15.380  0.00  0.00    +0.000 C 
ATOM     11  C   UNL     1      49.609   7.568  15.486  0.00  0.00    +0.000 C 
BRANCH  11  12
ATOM     12  C   UNL     1      49.321   6.705  16.698  0.00  0.00    +0.000 A 
ATOM     13  C   UNL     1      48.530   5.565  16.676  0.00  0.00    +0.000 A 
ATOM     14  S   UNL     1      48.459   4.760  18.178  0.00  0.00    +0.000 S 
ATOM     15  C   UNL     1      49.498   5.898  18.903  0.00  0.00    +0.000 A 
ATOM     16  N   UNL     1      49.907   5.758  20.193  0.00  0.00    +0.000 NA
ATOM     17  C   UNL     1      50.717   6.680  20.594  0.00  0.00    +0.000 A 
ATOM     18  N   UNL     1      51.131   7.746  19.836  0.00  0.00    +0.000 N 
ATOM     19  C   UNL     1      50.682   7.972  18.554  0.00  0.00    +0.000 A 
ATOM     20  O   UNL     1      50.970   9.000  17.948  0.00  0.00    +0.000 OA
ATOM     21  C   UNL     1      49.842   6.911  18.028  0.00  0.00    +0.000 A 
ATOM     22  H   UNL     1      51.729   8.457  20.228  0.00  0.00    +0.000 HD
ENDBRANCH  11  12
ENDBRANCH   8  11
ENDBRANCH   7   8
ENDBRANCH   1   7
BRANCH   4  23
ATOM     23  C   UNL     1      43.507   4.531  12.879  0.00  0.00    +0.000 C 
BRANCH  23  24
ATOM     24  O   UNL     1      42.480   5.387  13.407  0.00  0.00    +0.000 OA
ATOM     25  H   UNL     1      42.388   5.172  14.351  0.00  0.00    +0.000 HD
ENDBRANCH  23  24
BRANCH  23  26
ATOM     26  C   UNL     1      43.155   4.195  11.416  0.00  0.00    +0.000 C 
BRANCH  26  27
ATOM     27  N   UNL     1      43.719   2.918  10.965  0.00  0.00    +0.000 N 
ATOM     28  C   UNL     1      44.564   3.100   9.852  0.00  0.00    +0.000 A 
ATOM     29  C   UNL     1      45.162   1.987   9.282  0.00  0.00    +0.000 A 
ATOM     30  C   UNL     1      46.026   2.173   8.209  0.00  0.00    +0.000 A 
ATOM     31 CL   UNL     1      46.795   0.816   7.484  0.00  0.00    +0.000 Cl
ATOM     32  C   UNL     1      46.283   3.446   7.720  0.00  0.00    +0.000 A 
ATOM     33  C   UNL     1      45.656   4.497   8.346  0.00  0.00    +0.000 A 
ATOM     34  N   UNL     1      44.817   4.346   9.392  0.00  0.00    +0.000 NA
ATOM     35  H   UNL     1      42.983   2.254  10.748  0.00  0.00    +0.000 HD
ENDBRANCH  26  27
ENDBRANCH  23  26
ENDBRANCH   4  23
TORSDOF 8
ENDMDL
MODEL 6
REMARK VINA RESULT:    -7.948      1.838      2.340
REMARK INTER + INTRA:         -12.158
REMARK INTER:                 -11.428
REMARK INTRA:                  -0.730
REMARK UNBOUND:                -0.725
REMARK  Name = 
REMARK  9 active torsions:
REMARK  status: ('A' for Active; 'I' for Inactive)
REMARK    1  A    between atoms: C_1  and  C_2
REMARK    2  A    between atoms: C_2  and  N_3
REMARK    3  A    between atoms: C_2  and  C_22
REMARK    4  A    between atoms: N_3  and  C_4
REMARK    5  A    between atoms: C_4  and  C_5
REMARK    6  A    between atoms: C_8  and  C_9
REMARK    7  A    between atoms: C_9  and  O_10
REMARK    8  A    between atoms: C_9  and  C_11
REMARK    9  A    between atoms: C_11  and  N_12
REMARK                            x       y       z     vdW  Elec       q    Type
REMARK                         _______ _______ _______ _____ _____    ______ ____
ROOT
ATOM      1  C   UNL     1      46.897   5.516  13.861  0.00  0.00    +0.000 A 
ATOM      2  C   UNL     1      46.150   4.347  13.671  0.00  0.00    +0.000 A 
ATOM      3  C   UNL     1      45.048   4.334  12.807  0.00  0.00    +0.000 A 
ATOM      4  C   UNL     1      44.670   5.494  12.117  0.00  0.00    +0.000 A 
ATOM      5  C   UNL     1      45.436   6.658  12.311  0.00  0.00    +0.000 A 
ATOM      6  C   UNL     1      46.533   6.671  13.170  0.00  0.00    +0.000 A 
ENDROOT
BRANCH   1   7
ATOM      7  C   UNL     1      48.032   5.564  14.852  0.00  0.00    +0.000 C 
BRANCH   7   8
ATOM      8  N   UNL     1      47.863   4.576  15.913  0.00  0.00    +0.000 NA
ATOM      9  H   UNL     1      48.266   3.695  15.591  0.00  0.00    +0.000 HD
BRANCH   8  11
ATOM     10  C   UNL     1      47.572   5.005  18.351  0.00  0.00    +0.000 C 
ATOM     11  C   UNL     1      48.534   4.974  17.158  0.00  0.00    +0.000 C 
BRANCH  11  12
ATOM     12  C   UNL     1      49.655   3.977  17.377  0.00  0.00    +0.000 A 
ATOM     13  C   UNL     1      49.550   2.616  17.126  0.00  0.00    +0.000 A 
ATOM     14  S   UNL     1      51.005   1.764  17.390  0.00  0.00    +0.000 S 
ATOM     15  C   UNL     1      51.827   3.189  17.831  0.00  0.00    +0.000 A 
ATOM     16  N   UNL     1      53.156   3.175  18.121  0.00  0.00    +0.000 NA
ATOM     17  C   UNL     1      53.648   4.335  18.407  0.00  0.00    +0.000 A 
ATOM     18  N   UNL     1      52.927   5.501  18.461  0.00  0.00    +0.000 N 
ATOM     19  C   UNL     1      51.567   5.551  18.253  0.00  0.00    +0.000 A 
ATOM     20  O   UNL     1      50.931   6.585  18.433  0.00  0.00    +0.000 OA
ATOM     21  C   UNL     1      50.988   4.287  17.837  0.00  0.00    +0.000 A 
ATOM     22  H   UNL     1      53.366   6.366  18.737  0.00  0.00    +0.000 HD
ENDBRANCH  11  12
ENDBRANCH   8  11
ENDBRANCH   7   8
ENDBRANCH   1   7
BRANCH   4  23
ATOM     23  C   UNL     1      43.454   5.457  11.198  0.00  0.00    +0.000 C 
BRANCH  23  24
ATOM     24  O   UNL     1      42.945   6.790  11.029  0.00  0.00    +0.000 OA
ATOM     25  H   UNL     1      42.937   7.204  11.909  0.00  0.00    +0.000 HD
ENDBRANCH  23  24
BRANCH  23  26
ATOM     26  C   UNL     1      43.776   4.879   9.806  0.00  0.00    +0.000 C 
BRANCH  26  27
ATOM     27  N   UNL     1      44.051   3.438   9.828  0.00  0.00    +0.000 N 
ATOM     28  C   UNL     1      45.030   3.093   8.874  0.00  0.00    +0.000 A 
ATOM     29  C   UNL     1      45.392   1.762   8.744  0.00  0.00    +0.000 A 
ATOM     30  C   UNL     1      46.386   1.429   7.830  0.00  0.00    +0.000 A 
ATOM     31 CL   UNL     1      46.869  -0.212   7.650  0.00  0.00    +0.000 Cl
ATOM     32  C   UNL     1      47.000   2.409   7.065  0.00  0.00    +0.000 A 
ATOM     33  C   UNL     1      46.589   3.707   7.260  0.00  0.00    +0.000 A 
ATOM     34  N   UNL     1      45.631   4.059   8.142  0.00  0.00    +0.000 NA
ATOM     35  H   UNL     1      43.202   2.904   9.675  0.00  0.00    +0.000 HD
ENDBRANCH  26  27
ENDBRANCH  23  26
ENDBRANCH   4  23
TORSDOF 8
ENDMDL
MODEL 7
REMARK VINA RESULT:    -7.893      3.020      4.087
REMARK INTER + INTRA:         -12.079
REMARK INTER:                 -11.402
REMARK INTRA:                  -0.678
REMARK UNBOUND:                -0.725
REMARK  Name = 
REMARK  9 active torsions:
REMARK  status: ('A' for Active; 'I' for Inactive)
REMARK    1  A    between atoms: C_1  and  C_2
REMARK    2  A    between atoms: C_2  and  N_3
REMARK    3  A    between atoms: C_2  and  C_22
REMARK    4  A    between atoms: N_3  and  C_4
REMARK    5  A    between atoms: C_4  and  C_5
REMARK    6  A    between atoms: C_8  and  C_9
REMARK    7  A    between atoms: C_9  and  O_10
REMARK    8  A    between atoms: C_9  and  C_11
REMARK    9  A    between atoms: C_11  and  N_12
REMARK                            x       y       z     vdW  Elec       q    Type
REMARK                         _______ _______ _______ _____ _____    ______ ____
ROOT
ATOM      1  C   UNL     1      47.267   6.144  13.029  0.00  0.00    +0.000 A 
ATOM      2  C   UNL     1      46.546   5.066  13.558  0.00  0.00    +0.000 A 
ATOM      3  C   UNL     1      45.424   4.559  12.891  0.00  0.00    +0.000 A 
ATOM      4  C   UNL     1      44.999   5.123  11.680  0.00  0.00    +0.000 A 
ATOM      5  C   UNL     1      45.739   6.199  11.157  0.00  0.00    +0.000 A 
ATOM      6  C   UNL     1      46.856   6.704  11.819  0.00  0.00    +0.000 A 
ENDROOT
BRANCH   1   7
ATOM      7  C   UNL     1      48.423   6.752  13.780  0.00  0.00    +0.000 C 
BRANCH   7   8
ATOM      8  N   UNL     1      48.100   6.967  15.187  0.00  0.00    +0.000 NA
ATOM      9  H   UNL     1      47.219   6.491  15.384  0.00  0.00    +0.000 HD
BRANCH   8  11
ATOM     10  C   UNL     1      50.460   7.191  15.956  0.00  0.00    +0.000 C 
ATOM     11  C   UNL     1      49.134   6.433  16.085  0.00  0.00    +0.000 C 
BRANCH  11  12
ATOM     12  C   UNL     1      48.573   6.532  17.489  0.00  0.00    +0.000 A 
ATOM     13  C   UNL     1      48.424   5.453  18.349  0.00  0.00    +0.000 A 
ATOM     14  S   UNL     1      47.842   5.891  19.892  0.00  0.00    +0.000 S 
ATOM     15  C   UNL     1      47.786   7.540  19.467  0.00  0.00    +0.000 A 
ATOM     16  N   UNL     1      47.430   8.490  20.372  0.00  0.00    +0.000 NA
ATOM     17  C   UNL     1      47.465   9.697  19.915  0.00  0.00    +0.000 A 
ATOM     18  N   UNL     1      47.792  10.039  18.628  0.00  0.00    +0.000 N 
ATOM     19  C   UNL     1      48.083   9.108  17.657  0.00  0.00    +0.000 A 
ATOM     20  O   UNL     1      48.247   9.436  16.485  0.00  0.00    +0.000 OA
ATOM     21  C   UNL     1      48.147   7.744  18.148  0.00  0.00    +0.000 A 
ATOM     22  H   UNL     1      47.754  11.000  18.323  0.00  0.00    +0.000 HD
ENDBRANCH  11  12
ENDBRANCH   8  11
ENDBRANCH   7   8
ENDBRANCH   1   7
BRANCH   4  23
ATOM     23  C   UNL     1      43.763   4.564  10.986  0.00  0.00    +0.000 C 
BRANCH  23  24
ATOM     24  O   UNL     1      43.094   5.623  10.281  0.00  0.00    +0.000 OA
ATOM     25  H   UNL     1      43.372   6.458  10.694  0.00  0.00    +0.000 HD
ENDBRANCH  23  24
BRANCH  23  26
ATOM     26  C   UNL     1      44.099   3.446   9.979  0.00  0.00    +0.000 C 
BRANCH  26  27
ATOM     27  N   UNL     1      44.737   3.943   8.755  0.00  0.00    +0.000 N 
ATOM     28  C   UNL     1      45.552   2.953   8.170  0.00  0.00    +0.000 A 
ATOM     29  C   UNL     1      46.252   3.266   7.015  0.00  0.00    +0.000 A 
ATOM     30  C   UNL     1      47.024   2.277   6.416  0.00  0.00    +0.000 A 
ATOM     31 CL   UNL     1      47.897   2.626   4.975  0.00  0.00    +0.000 Cl
ATOM     32  C   UNL     1      47.093   1.005   6.966  0.00  0.00    +0.000 A 
ATOM     33  C   UNL     1      46.364   0.774   8.107  0.00  0.00    +0.000 A 
ATOM     34  N   UNL     1      45.602   1.713   8.706  0.00  0.00    +0.000 NA
ATOM     35  H   UNL     1      45.275   4.783   8.943  0.00  0.00    +0.000 HD
ENDBRANCH  26  27
ENDBRANCH  23  26
ENDBRANCH   4  23
TORSDOF 8
ENDMDL
MODEL 8
REMARK VINA RESULT:    -7.802      4.560      5.581
REMARK INTER + INTRA:         -11.948
REMARK INTER:                 -10.746
REMARK INTRA:                  -1.202
REMARK UNBOUND:                -0.725
REMARK  Name = 
REMARK  9 active torsions:
REMARK  status: ('A' for Active; 'I' for Inactive)
REMARK    1  A    between atoms: C_1  and  C_2
REMARK    2  A    between atoms: C_2  and  N_3
REMARK    3  A    between atoms: C_2  and  C_22
REMARK    4  A    between atoms: N_3  and  C_4
REMARK    5  A    between atoms: C_4  and  C_5
REMARK    6  A    between atoms: C_8  and  C_9
REMARK    7  A    between atoms: C_9  and  O_10
REMARK    8  A    between atoms: C_9  and  C_11
REMARK    9  A    between atoms: C_11  and  N_12
REMARK                            x       y       z     vdW  Elec       q    Type
REMARK                         _______ _______ _______ _____ _____    ______ ____
ROOT
ATOM      1  C   UNL     1      47.564   6.426  12.889  0.00  0.00    +0.000 A 
ATOM      2  C   UNL     1      47.295   5.291  13.665  0.00  0.00    +0.000 A 
ATOM      3  C   UNL     1      46.036   4.681  13.628  0.00  0.00    +0.000 A 
ATOM      4  C   UNL     1      45.018   5.196  12.814  0.00  0.00    +0.000 A 
ATOM      5  C   UNL     1      45.306   6.330  12.033  0.00  0.00    +0.000 A 
ATOM      6  C   UNL     1      46.559   6.937  12.068  0.00  0.00    +0.000 A 
ENDROOT
BRANCH   1   7
ATOM      7  C   UNL     1      48.887   7.141  12.986  0.00  0.00    +0.000 C 
BRANCH   7   8
ATOM      8  N   UNL     1      48.720   8.590  12.967  0.00  0.00    +0.000 NA
ATOM      9  H   UNL     1      49.166   8.971  13.802  0.00  0.00    +0.000 HD
BRANCH   8  11
ATOM     10  C   UNL     1      48.533  10.414  11.278  0.00  0.00    +0.000 C 
ATOM     11  C   UNL     1      49.334   9.208  11.783  0.00  0.00    +0.000 C 
BRANCH  11  12
ATOM     12  C   UNL     1      50.738   9.606  12.188  0.00  0.00    +0.000 A 
ATOM     13  C   UNL     1      51.041  10.692  12.998  0.00  0.00    +0.000 A 
ATOM     14  S   UNL     1      52.704  10.836  13.347  0.00  0.00    +0.000 S 
ATOM     15  C   UNL     1      53.074   9.442  12.441  0.00  0.00    +0.000 A 
ATOM     16  N   UNL     1      54.344   8.958  12.378  0.00  0.00    +0.000 NA
ATOM     17  C   UNL     1      54.465   7.878  11.681  0.00  0.00    +0.000 A 
ATOM     18  N   UNL     1      53.441   7.254  11.015  0.00  0.00    +0.000 N 
ATOM     19  C   UNL     1      52.157   7.750  10.985  0.00  0.00    +0.000 A 
ATOM     20  O   UNL     1      51.291   7.241  10.279  0.00  0.00    +0.000 OA
ATOM     21  C   UNL     1      51.953   8.911  11.831  0.00  0.00    +0.000 A 
ATOM     22  H   UNL     1      53.614   6.438  10.449  0.00  0.00    +0.000 HD
ENDBRANCH  11  12
ENDBRANCH   8  11
ENDBRANCH   7   8
ENDBRANCH   1   7
BRANCH   4  23
ATOM     23  C   UNL     1      43.650   4.522  12.808  0.00  0.00    +0.000 C 
BRANCH  23  24
ATOM     24  O   UNL     1      42.667   5.437  13.322  0.00  0.00    +0.000 OA
ATOM     25  H   UNL     1      43.092   6.311  13.371  0.00  0.00    +0.000 HD
ENDBRANCH  23  24
BRANCH  23  26
ATOM     26  C   UNL     1      43.210   4.077  11.400  0.00  0.00    +0.000 C 
BRANCH  26  27
ATOM     27  N   UNL     1      43.801   2.800  10.986  0.00  0.00    +0.000 N 
ATOM     28  C   UNL     1      44.589   2.956   9.827  0.00  0.00    +0.000 A 
ATOM     29  C   UNL     1      45.203   1.839   9.285  0.00  0.00    +0.000 A 
ATOM     30  C   UNL     1      46.011   2.001   8.166  0.00  0.00    +0.000 A 
ATOM     31 CL   UNL     1      46.799   0.638   7.473  0.00  0.00    +0.000 Cl
ATOM     32  C   UNL     1      46.197   3.256   7.604  0.00  0.00    +0.000 A 
ATOM     33  C   UNL     1      45.559   4.314   8.206  0.00  0.00    +0.000 A 
ATOM     34  N   UNL     1      44.773   4.186   9.296  0.00  0.00    +0.000 NA
ATOM     35  H   UNL     1      43.082   2.100  10.836  0.00  0.00    +0.000 HD
ENDBRANCH  26  27
ENDBRANCH  23  26
ENDBRANCH   4  23
TORSDOF 8
ENDMDL
MODEL 9
REMARK VINA RESULT:    -6.984      4.324      5.156
REMARK INTER + INTRA:         -10.771
REMARK INTER:                 -10.381
REMARK INTRA:                  -0.390
REMARK UNBOUND:                -0.725
REMARK  Name = 
REMARK  9 active torsions:
REMARK  status: ('A' for Active; 'I' for Inactive)
REMARK    1  A    between atoms: C_1  and  C_2
REMARK    2  A    between atoms: C_2  and  N_3
REMARK    3  A    between atoms: C_2  and  C_22
REMARK    4  A    between atoms: N_3  and  C_4
REMARK    5  A    between atoms: C_4  and  C_5
REMARK    6  A    between atoms: C_8  and  C_9
REMARK    7  A    between atoms: C_9  and  O_10
REMARK    8  A    between atoms: C_9  and  C_11
REMARK    9  A    between atoms: C_11  and  N_12
REMARK                            x       y       z     vdW  Elec       q    Type
REMARK                         _______ _______ _______ _____ _____    ______ ____
ROOT
ATOM      1  C   UNL     1      47.375   6.468  13.216  0.00  0.00    +0.000 A 
ATOM      2  C   UNL     1      46.966   7.101  12.035  0.00  0.00    +0.000 A 
ATOM      3  C   UNL     1      45.746   6.775  11.434  0.00  0.00    +0.000 A 
ATOM      4  C   UNL     1      44.908   5.805  12.001  0.00  0.00    +0.000 A 
ATOM      5  C   UNL     1      45.327   5.184  13.192  0.00  0.00    +0.000 A 
ATOM      6  C   UNL     1      46.542   5.509  13.792  0.00  0.00    +0.000 A 
ENDROOT
BRANCH   1   7
ATOM      7  C   UNL     1      48.725   6.749  13.825  0.00  0.00    +0.000 C 
BRANCH   7   8
ATOM      8  N   UNL     1      49.739   6.985  12.803  0.00  0.00    +0.000 NA
ATOM      9  H   UNL     1      49.438   6.520  11.946  0.00  0.00    +0.000 HD
BRANCH   8  11
ATOM     10  C   UNL     1      49.578   9.294  13.729  0.00  0.00    +0.000 C 
ATOM     11  C   UNL     1      49.927   8.415  12.522  0.00  0.00    +0.000 C 
BRANCH  11  12
ATOM     12  C   UNL     1      51.377   8.584  12.115  0.00  0.00    +0.000 A 
ATOM     13  C   UNL     1      51.795   8.922  10.836  0.00  0.00    +0.000 A 
ATOM     14  S   UNL     1      53.485   9.120  10.705  0.00  0.00    +0.000 S 
ATOM     15  C   UNL     1      53.712   8.776  12.357  0.00  0.00    +0.000 A 
ATOM     16  N   UNL     1      54.944   8.839  12.928  0.00  0.00    +0.000 NA
ATOM     17  C   UNL     1      54.956   8.584  14.194  0.00  0.00    +0.000 A 
ATOM     18  N   UNL     1      53.854   8.240  14.935  0.00  0.00    +0.000 N 
ATOM     19  C   UNL     1      52.601   8.087  14.386  0.00  0.00    +0.000 A 
ATOM     20  O   UNL     1      51.661   7.657  15.049  0.00  0.00    +0.000 OA
ATOM     21  C   UNL     1      52.522   8.454  12.984  0.00  0.00    +0.000 A 
ATOM     22  H   UNL     1      53.941   8.008  15.913  0.00  0.00    +0.000 HD
ENDBRANCH  11  12
ENDBRANCH   8  11
ENDBRANCH   7   8
ENDBRANCH   1   7
BRANCH   4  23
ATOM     23  C   UNL     1      43.593   5.456  11.314  0.00  0.00    +0.000 C 
BRANCH  23  24
ATOM     24  O   UNL     1      42.782   6.638  11.210  0.00  0.00    +0.000 OA
ATOM     25  H   UNL     1      42.402   6.643  10.315  0.00  0.00    +0.000 HD
ENDBRANCH  23  24
BRANCH  23  26
ATOM     26  C   UNL     1      43.794   4.878   9.899  0.00  0.00    +0.000 C 
BRANCH  26  27
ATOM     27  N   UNL     1      44.088   3.441   9.897  0.00  0.00    +0.000 N 
ATOM     28  C   UNL     1      45.055   3.121   8.923  0.00  0.00    +0.000 A 
ATOM     29  C   UNL     1      45.432   1.796   8.770  0.00  0.00    +0.000 A 
ATOM     30  C   UNL     1      46.415   1.488   7.837  0.00  0.00    +0.000 A 
ATOM     31 CL   UNL     1      46.915  -0.145   7.628  0.00  0.00    +0.000 Cl
ATOM     32  C   UNL     1      47.004   2.486   7.075  0.00  0.00    +0.000 A 
ATOM     33  C   UNL     1      46.580   3.775   7.293  0.00  0.00    +0.000 A 
ATOM     34  N   UNL     1      45.632   4.104   8.195  0.00  0.00    +0.000 NA
ATOM     35  H   UNL     1      43.242   2.899   9.751  0.00  0.00    +0.000 HD
ENDBRANCH  26  27
ENDBRANCH  23  26
ENDBRANCH   4  23
TORSDOF 8
ENDMDL
