MODEL 1
REMARK VINA RESULT:    -9.223      0.000      0.000
REMARK INTER + INTRA:         -13.023
REMARK INTER:                 -12.458
REMARK INTRA:                  -0.565
REMARK UNBOUND:                -0.565
REMARK  Name = 
REMARK  6 active torsions:
REMARK  status: ('A' for Active; 'I' for Inactive)
REMARK    1  A    between atoms: C_2  and  C_4
REMARK    2  A    between atoms: N_8  and  C_9
REMARK    3  A    between atoms: C_9  and  C_10
REMARK    4  A    between atoms: C_10  and  C_13
REMARK    5  A    between atoms: C_17  and  N_18
REMARK    6  A    between atoms: N_18  and  C_19
REMARK                            x       y       z     vdW  Elec       q    Type
REMARK                         _______ _______ _______ _____ _____    ______ ____
ROOT
ATOM      1  C   UNL     1      43.254   5.575  12.159  0.00  0.00    +0.000 C 
ATOM      2  F   UNL     1      42.712   6.764  11.762  0.00  0.00    +0.000 F 
ATOM      3  F   UNL     1      42.422   5.108  13.139  0.00  0.00    +0.000 F 
ENDROOT
BRANCH   1   4
ATOM      4  C   UNL     1      44.681   5.736  12.652  0.00  0.00    +0.000 A 
ATOM      5  C   UNL     1      45.479   6.804  12.224  0.00  0.00    +0.000 A 
ATOM      6  C   UNL     1      46.805   6.905  12.647  0.00  0.00    +0.000 A 
ATOM      7  C   UNL     1      47.354   5.935  13.492  0.00  0.00    +0.000 A 
ATOM      8  C   UNL     1      46.575   4.868  13.942  0.00  0.00    +0.000 A 
ATOM      9  C   UNL     1      45.242   4.779  13.513  0.00  0.00    +0.000 A 
BRANCH   8  10
ATOM     10  N   UNL     1      47.070   3.840  14.769  0.00  0.00    +0.000 N 
ATOM     11  H   UNL     1      46.742   2.935  14.428  0.00  0.00    +0.000 HD
BRANCH  10  12
ATOM     12  C   UNL     1      47.218   3.884  16.198  0.00  0.00    +0.000 C 
ATOM     13  C   UNL     1      48.252   4.909  16.690  0.00  0.00    +0.000 C 
ATOM     14  O   UNL     1      48.965   3.886  17.436  0.00  0.00    +0.000 OA
ATOM     15  C   UNL     1      48.235   2.855  16.721  0.00  0.00    +0.000 C 
ENDBRANCH  10  12
ENDBRANCH   8  10
ENDBRANCH   1   4
BRANCH   1  16
ATOM     16  C   UNL     1      43.221   4.587  10.967  0.00  0.00    +0.000 C 
BRANCH  16  21
ATOM     17  C   UNL     1      46.425   2.299   7.683  0.00  0.00    +0.000 A 
ATOM     18  C   UNL     1      45.664   1.799   8.731  0.00  0.00    +0.000 A 
ATOM     19  C   UNL     1      44.872   2.677   9.470  0.00  0.00    +0.000 A 
ATOM     20  C   UNL     1      44.856   4.036   9.162  0.00  0.00    +0.000 A 
ATOM     21  N   UNL     1      44.091   4.942   9.850  0.00  0.00    +0.000 N 
ATOM     22  N   UNL     1      45.608   4.530   8.160  0.00  0.00    +0.000 NA
ATOM     23  C   UNL     1      46.383   3.663   7.453  0.00  0.00    +0.000 A 
ATOM     24  H   UNL     1      44.142   5.897   9.515  0.00  0.00    +0.000 HD
BRANCH  17  26
ATOM     25  N   UNL     1      48.330   2.034   6.209  0.00  0.00    +0.000 N 
ATOM     26  C   UNL     1      47.277   1.437   6.842  0.00  0.00    +0.000 C 
ATOM     27  O   UNL     1      47.075   0.235   6.740  0.00  0.00    +0.000 OA
ATOM     28  H   UNL     1      48.967   1.423   5.719  0.00  0.00    +0.000 HD
ATOM     29  H   UNL     1      48.670   2.955   6.455  0.00  0.00    +0.000 HD
ENDBRANCH  17  26
ENDBRANCH  16  21
ENDBRANCH   1  16
TORSDOF 6
ENDMDL
MODEL 2
REMARK VINA RESULT:    -8.852      3.019      4.248
REMARK INTER + INTRA:         -12.523
REMARK INTER:                 -11.949
REMARK INTRA:                  -0.574
REMARK UNBOUND:                -0.565
REMARK  Name = 
REMARK  6 active torsions:
REMARK  status: ('A' for Active; 'I' for Inactive)
REMARK    1  A    between atoms: C_2  and  C_4
REMARK    2  A    between atoms: N_8  and  C_9
REMARK    3  A    between atoms: C_9  and  C_10
REMARK    4  A    between atoms: C_10  and  C_13
REMARK    5  A    between atoms: C_17  and  N_18
REMARK    6  A    between atoms: N_18  and  C_19
REMARK                            x       y       z     vdW  Elec       q    Type
REMARK                         _______ _______ _______ _____ _____    ______ ____
ROOT
ATOM      1  C   UNL     1      43.798   4.247  12.467  0.00  0.00    +0.000 C 
ATOM      2  F   UNL     1      42.830   4.346  13.426  0.00  0.00    +0.000 F 
ATOM      3  F   UNL     1      44.307   2.985  12.596  0.00  0.00    +0.000 F 
ENDROOT
BRANCH   1   4
ATOM      4  C   UNL     1      44.868   5.313  12.627  0.00  0.00    +0.000 A 
ATOM      5  C   UNL     1      46.195   4.970  12.916  0.00  0.00    +0.000 A 
ATOM      6  C   UNL     1      47.152   5.967  13.112  0.00  0.00    +0.000 A 
ATOM      7  C   UNL     1      46.795   7.317  13.032  0.00  0.00    +0.000 A 
ATOM      8  C   UNL     1      45.482   7.683  12.732  0.00  0.00    +0.000 A 
ATOM      9  C   UNL     1      44.529   6.673  12.534  0.00  0.00    +0.000 A 
BRANCH   8  10
ATOM     10  N   UNL     1      45.045   9.021  12.666  0.00  0.00    +0.000 N 
ATOM     11  H   UNL     1      44.329   9.186  13.374  0.00  0.00    +0.000 HD
BRANCH  10  12
ATOM     12  C   UNL     1      44.851   9.803  11.476  0.00  0.00    +0.000 C 
ATOM     13  C   UNL     1      44.200  11.173  11.725  0.00  0.00    +0.000 C 
ATOM     14  O   UNL     1      43.148  10.888  10.764  0.00  0.00    +0.000 OA
ATOM     15  C   UNL     1      43.522   9.486  10.769  0.00  0.00    +0.000 C 
ENDBRANCH  10  12
ENDBRANCH   8  10
ENDBRANCH   1   4
BRANCH   1  16
ATOM     16  C   UNL     1      43.136   4.376  11.073  0.00  0.00    +0.000 C 
BRANCH  16  21
ATOM     17  C   UNL     1      46.436   2.466   7.646  0.00  0.00    +0.000 A 
ATOM     18  C   UNL     1      45.665   1.855   8.625  0.00  0.00    +0.000 A 
ATOM     19  C   UNL     1      44.845   2.645   9.430  0.00  0.00    +0.000 A 
ATOM     20  C   UNL     1      44.812   4.027   9.255  0.00  0.00    +0.000 A 
ATOM     21  N   UNL     1      44.021   4.851  10.013  0.00  0.00    +0.000 N 
ATOM     22  N   UNL     1      45.574   4.628   8.321  0.00  0.00    +0.000 NA
ATOM     23  C   UNL     1      46.377   3.845   7.549  0.00  0.00    +0.000 A 
ATOM     24  H   UNL     1      44.062   5.835   9.774  0.00  0.00    +0.000 HD
BRANCH  17  26
ATOM     25  N   UNL     1      48.369   2.375   6.187  0.00  0.00    +0.000 N 
ATOM     26  C   UNL     1      47.318   1.702   6.742  0.00  0.00    +0.000 C 
ATOM     27  O   UNL     1      47.140   0.512   6.523  0.00  0.00    +0.000 OA
ATOM     28  H   UNL     1      49.025   1.824   5.652  0.00  0.00    +0.000 HD
ATOM     29  H   UNL     1      48.688   3.274   6.525  0.00  0.00    +0.000 HD
ENDBRANCH  17  26
ENDBRANCH  16  21
ENDBRANCH   1  16
TORSDOF 6
ENDMDL
MODEL 3
REMARK VINA RESULT:    -8.462      2.241      3.022
REMARK INTER + INTRA:         -11.996
REMARK INTER:                 -11.062
REMARK INTRA:                  -0.933
REMARK UNBOUND:                -0.565
REMARK  Name = 
REMARK  6 active torsions:
REMARK  status: ('A' for Active; 'I' for Inactive)
REMARK    1  A    between atoms: C_2  and  C_4
REMARK    2  A    between atoms: N_8  and  C_9
REMARK    3  A    between atoms: C_9  and  C_10
REMARK    4  A    between atoms: C_10  and  C_13
REMARK    5  A    between atoms: C_17  and  N_18
REMARK    6  A    between atoms: N_18  and  C_19
REMARK                            x       y       z     vdW  Elec       q    Type
REMARK                         _______ _______ _______ _____ _____    ______ ____
ROOT
ATOM      1  C   UNL     1      43.456   5.860  11.873  0.00  0.00    +0.000 C 
ATOM      2  F   UNL     1      43.363   7.150  11.435  0.00  0.00    +0.000 F 
ATOM      3  F   UNL     1      42.419   5.700  12.750  0.00  0.00    +0.000 F 
ENDROOT
BRANCH   1   4
ATOM      4  C   UNL     1      44.799   5.574  12.521  0.00  0.00    +0.000 A 
ATOM      5  C   UNL     1      45.196   4.265  12.819  0.00  0.00    +0.000 A 
ATOM      6  C   UNL     1      46.411   4.027  13.462  0.00  0.00    +0.000 A 
ATOM      7  C   UNL     1      47.239   5.094  13.827  0.00  0.00    +0.000 A 
ATOM      8  C   UNL     1      46.871   6.407  13.529  0.00  0.00    +0.000 A 
ATOM      9  C   UNL     1      45.649   6.633  12.879  0.00  0.00    +0.000 A 
BRANCH   8  10
ATOM     10  N   UNL     1      47.641   7.530  13.894  0.00  0.00    +0.000 N 
ATOM     11  H   UNL     1      47.025   8.292  14.178  0.00  0.00    +0.000 HD
BRANCH  10  12
ATOM     12  C   UNL     1      48.846   7.986  13.258  0.00  0.00    +0.000 C 
ATOM     13  C   UNL     1      48.835   9.479  12.891  0.00  0.00    +0.000 C 
ATOM     14  O   UNL     1      49.153   9.178  11.506  0.00  0.00    +0.000 OA
ATOM     15  C   UNL     1      48.827   7.781  11.734  0.00  0.00    +0.000 C 
ENDBRANCH  10  12
ENDBRANCH   8  10
ENDBRANCH   1   4
BRANCH   1  16
ATOM     16  C   UNL     1      43.242   4.907  10.672  0.00  0.00    +0.000 C 
BRANCH  16  21
ATOM     17  C   UNL     1      46.376   1.998   7.843  0.00  0.00    +0.000 A 
ATOM     18  C   UNL     1      45.510   1.683   8.882  0.00  0.00    +0.000 A 
ATOM     19  C   UNL     1      44.771   2.704   9.478  0.00  0.00    +0.000 A 
ATOM     20  C   UNL     1      44.911   4.020   9.040  0.00  0.00    +0.000 A 
ATOM     21  N   UNL     1      44.205   5.060   9.585  0.00  0.00    +0.000 N 
ATOM     22  N   UNL     1      45.764   4.334   8.047  0.00  0.00    +0.000 NA
ATOM     23  C   UNL     1      46.487   3.329   7.481  0.00  0.00    +0.000 A 
ATOM     24  H   UNL     1      44.371   5.967   9.163  0.00  0.00    +0.000 HD
BRANCH  17  26
ATOM     25  N   UNL     1      46.929  -0.330   7.457  0.00  0.00    +0.000 N 
ATOM     26  C   UNL     1      47.183   0.976   7.148  0.00  0.00    +0.000 C 
ATOM     27  O   UNL     1      48.019   1.278   6.308  0.00  0.00    +0.000 OA
ATOM     28  H   UNL     1      47.412  -1.025   6.906  0.00  0.00    +0.000 HD
ATOM     29  H   UNL     1      46.098  -0.627   7.952  0.00  0.00    +0.000 HD
ENDBRANCH  17  26
ENDBRANCH  16  21
ENDBRANCH   1  16
TORSDOF 6
ENDMDL
MODEL 4
REMARK VINA RESULT:    -8.076      2.434      2.839
REMARK INTER + INTRA:         -11.474
REMARK INTER:                 -10.588
REMARK INTRA:                  -0.885
REMARK UNBOUND:                -0.565
REMARK  Name = 
REMARK  6 active torsions:
REMARK  status: ('A' for Active; 'I' for Inactive)
REMARK    1  A    between atoms: C_2  and  C_4
REMARK    2  A    between atoms: N_8  and  C_9
REMARK    3  A    between atoms: C_9  and  C_10
REMARK    4  A    between atoms: C_10  and  C_13
REMARK    5  A    between atoms: C_17  and  N_18
REMARK    6  A    between atoms: N_18  and  C_19
REMARK                            x       y       z     vdW  Elec       q    Type
REMARK                         _______ _______ _______ _____ _____    ______ ____
ROOT
ATOM      1  C   UNL     1      44.018   4.397  12.508  0.00  0.00    +0.000 C 
ATOM      2  F   UNL     1      42.979   4.605  13.370  0.00  0.00    +0.000 F 
ATOM      3  F   UNL     1      44.737   3.368  13.050  0.00  0.00    +0.000 F 
ENDROOT
BRANCH   1   4
ATOM      4  C   UNL     1      44.862   5.645  12.322  0.00  0.00    +0.000 A 
ATOM      5  C   UNL     1      44.295   6.841  11.862  0.00  0.00    +0.000 A 
ATOM      6  C   UNL     1      45.097   7.962  11.646  0.00  0.00    +0.000 A 
ATOM      7  C   UNL     1      46.476   7.900  11.876  0.00  0.00    +0.000 A 
ATOM      8  C   UNL     1      47.062   6.724  12.346  0.00  0.00    +0.000 A 
ATOM      9  C   UNL     1      46.245   5.605  12.562  0.00  0.00    +0.000 A 
BRANCH   8  10
ATOM     10  N   UNL     1      48.446   6.582  12.568  0.00  0.00    +0.000 N 
ATOM     11  H   UNL     1      48.764   5.685  12.199  0.00  0.00    +0.000 HD
BRANCH  10  12
ATOM     12  C   UNL     1      49.175   7.002  13.734  0.00  0.00    +0.000 C 
ATOM     13  C   UNL     1      48.336   7.803  14.743  0.00  0.00    +0.000 C 
ATOM     14  O   UNL     1      49.287   8.900  14.718  0.00  0.00    +0.000 OA
ATOM     15  C   UNL     1      49.902   8.342  13.527  0.00  0.00    +0.000 C 
ENDBRANCH  10  12
ENDBRANCH   8  10
ENDBRANCH   1   4
BRANCH   1  16
ATOM     16  C   UNL     1      43.450   3.941  11.142  0.00  0.00    +0.000 C 
BRANCH  16  21
ATOM     17  C   UNL     1      46.603   2.542   7.348  0.00  0.00    +0.000 A 
ATOM     18  C   UNL     1      46.105   3.782   7.725  0.00  0.00    +0.000 A 
ATOM     19  C   UNL     1      45.245   3.860   8.819  0.00  0.00    +0.000 A 
ATOM     20  C   UNL     1      44.887   2.706   9.515  0.00  0.00    +0.000 A 
ATOM     21  N   UNL     1      44.051   2.725  10.601  0.00  0.00    +0.000 N 
ATOM     22  N   UNL     1      45.351   1.498   9.141  0.00  0.00    +0.000 NA
ATOM     23  C   UNL     1      46.182   1.436   8.065  0.00  0.00    +0.000 A 
ATOM     24  H   UNL     1      43.888   1.826  11.040  0.00  0.00    +0.000 HD
BRANCH  17  26
ATOM     25  N   UNL     1      47.409   3.256   5.177  0.00  0.00    +0.000 N 
ATOM     26  C   UNL     1      47.530   2.374   6.212  0.00  0.00    +0.000 C 
ATOM     27  O   UNL     1      48.391   1.506   6.208  0.00  0.00    +0.000 OA
ATOM     28  H   UNL     1      48.110   3.200   4.452  0.00  0.00    +0.000 HD
ATOM     29  H   UNL     1      46.886   4.120   5.248  0.00  0.00    +0.000 HD
ENDBRANCH  17  26
ENDBRANCH  16  21
ENDBRANCH   1  16
TORSDOF 6
ENDMDL
MODEL 5
REMARK VINA RESULT:    -7.786      1.928      7.943
REMARK INTER + INTRA:         -11.082
REMARK INTER:                 -10.507
REMARK INTRA:                  -0.575
REMARK UNBOUND:                -0.565
REMARK  Name = 
REMARK  6 active torsions:
REMARK  status: ('A' for Active; 'I' for Inactive)
REMARK    1  A    between atoms: C_2  and  C_4
REMARK    2  A    between atoms: N_8  and  C_9
REMARK    3  A    between atoms: C_9  and  C_10
REMARK    4  A    between atoms: C_10  and  C_13
REMARK    5  A    between atoms: C_17  and  N_18
REMARK    6  A    between atoms: N_18  and  C_19
REMARK                            x       y       z     vdW  Elec       q    Type
REMARK                         _______ _______ _______ _____ _____    ______ ____
ROOT
ATOM      1  C   UNL     1      45.675   6.019  11.493  0.00  0.00    +0.000 C 
ATOM      2  F   UNL     1      44.840   7.091  11.356  0.00  0.00    +0.000 F 
ATOM      3  F   UNL     1      46.906   6.467  11.102  0.00  0.00    +0.000 F 
ENDROOT
BRANCH   1   4
ATOM      4  C   UNL     1      45.213   4.829  10.670  0.00  0.00    +0.000 A 
ATOM      5  C   UNL     1      44.404   3.832  11.229  0.00  0.00    +0.000 A 
ATOM      6  C   UNL     1      44.034   2.719  10.472  0.00  0.00    +0.000 A 
ATOM      7  C   UNL     1      44.476   2.584   9.152  0.00  0.00    +0.000 A 
ATOM      8  C   UNL     1      45.273   3.571   8.569  0.00  0.00    +0.000 A 
ATOM      9  C   UNL     1      45.635   4.686   9.339  0.00  0.00    +0.000 A 
BRANCH   8  10
ATOM     10  N   UNL     1      45.779   3.484   7.256  0.00  0.00    +0.000 N 
ATOM     11  H   UNL     1      45.095   3.029   6.652  0.00  0.00    +0.000 HD
BRANCH  10  12
ATOM     12  C   UNL     1      47.138   3.207   6.878  0.00  0.00    +0.000 C 
ATOM     13  C   UNL     1      47.296   2.704   5.434  0.00  0.00    +0.000 C 
ATOM     14  O   UNL     1      48.009   1.521   5.885  0.00  0.00    +0.000 OA
ATOM     15  C   UNL     1      47.576   1.779   7.247  0.00  0.00    +0.000 C 
ENDBRANCH  10  12
ENDBRANCH   8  10
ENDBRANCH   1   4
BRANCH   1  16
ATOM     16  C   UNL     1      45.741   5.625  12.989  0.00  0.00    +0.000 C 
BRANCH  16  21
ATOM     17  C   UNL     1      48.633   4.361  17.030  0.00  0.00    +0.000 A 
ATOM     18  C   UNL     1      47.508   3.764  16.476  0.00  0.00    +0.000 A 
ATOM     19  C   UNL     1      46.918   4.346  15.355  0.00  0.00    +0.000 A 
ATOM     20  C   UNL     1      47.447   5.515  14.809  0.00  0.00    +0.000 A 
ATOM     21  N   UNL     1      46.911   6.125  13.706  0.00  0.00    +0.000 N 
ATOM     22  N   UNL     1      48.525   6.109  15.355  0.00  0.00    +0.000 NA
ATOM     23  C   UNL     1      49.085   5.536  16.455  0.00  0.00    +0.000 A 
ATOM     24  H   UNL     1      47.401   6.953  13.385  0.00  0.00    +0.000 HD
BRANCH  17  26
ATOM     25  N   UNL     1      50.311   2.885  17.968  0.00  0.00    +0.000 N 
ATOM     26  C   UNL     1      49.327   3.803  18.206  0.00  0.00    +0.000 C 
ATOM     27  O   UNL     1      49.061   4.166  19.343  0.00  0.00    +0.000 OA
ATOM     28  H   UNL     1      50.849   2.583  18.767  0.00  0.00    +0.000 HD
ATOM     29  H   UNL     1      50.720   2.742  17.053  0.00  0.00    +0.000 HD
ENDBRANCH  17  26
ENDBRANCH  16  21
ENDBRANCH   1  16
TORSDOF 6
ENDMDL
MODEL 6
REMARK VINA RESULT:    -7.482      2.123      7.208
REMARK INTER + INTRA:         -10.672
REMARK INTER:                 -10.120
REMARK INTRA:                  -0.552
REMARK UNBOUND:                -0.565
REMARK  Name = 
REMARK  6 active torsions:
REMARK  status: ('A' for Active; 'I' for Inactive)
REMARK    1  A    between atoms: C_2  and  C_4
REMARK    2  A    between atoms: N_8  and  C_9
REMARK    3  A    between atoms: C_9  and  C_10
REMARK    4  A    between atoms: C_10  and  C_13
REMARK    5  A    between atoms: C_17  and  N_18
REMARK    6  A    between atoms: N_18  and  C_19
REMARK                            x       y       z     vdW  Elec       q    Type
REMARK                         _______ _______ _______ _____ _____    ______ ____
ROOT
ATOM      1  C   UNL     1      45.648   7.123  12.046  0.00  0.00    +0.000 C 
ATOM      2  F   UNL     1      45.454   7.847  13.188  0.00  0.00    +0.000 F 
ATOM      3  F   UNL     1      45.303   7.963  11.024  0.00  0.00    +0.000 F 
ENDROOT
BRANCH   1   4
ATOM      4  C   UNL     1      44.828   5.845  12.035  0.00  0.00    +0.000 A 
ATOM      5  C   UNL     1      43.711   5.693  12.866  0.00  0.00    +0.000 A 
ATOM      6  C   UNL     1      43.003   4.491  12.879  0.00  0.00    +0.000 A 
ATOM      7  C   UNL     1      43.408   3.422  12.073  0.00  0.00    +0.000 A 
ATOM      8  C   UNL     1      44.511   3.554  11.227  0.00  0.00    +0.000 A 
ATOM      9  C   UNL     1      45.212   4.768  11.220  0.00  0.00    +0.000 A 
BRANCH   8  10
ATOM     10  N   UNL     1      44.992   2.510  10.413  0.00  0.00    +0.000 N 
ATOM     11  H   UNL     1      45.947   2.273  10.683  0.00  0.00    +0.000 HD
BRANCH  10  12
ATOM     12  C   UNL     1      44.745   2.335   9.007  0.00  0.00    +0.000 C 
ATOM     13  C   UNL     1      45.990   1.940   8.196  0.00  0.00    +0.000 C 
ATOM     14  O   UNL     1      45.798   3.059   7.289  0.00  0.00    +0.000 OA
ATOM     15  C   UNL     1      44.852   3.651   8.218  0.00  0.00    +0.000 C 
ENDBRANCH  10  12
ENDBRANCH   8  10
ENDBRANCH   1   4
BRANCH   1  16
ATOM     16  C   UNL     1      47.152   6.780  11.921  0.00  0.00    +0.000 C 
BRANCH  16  21
ATOM     17  C   UNL     1      47.861   4.467  16.442  0.00  0.00    +0.000 A 
ATOM     18  C   UNL     1      47.045   4.156  15.363  0.00  0.00    +0.000 A 
ATOM     19  C   UNL     1      47.058   4.987  14.244  0.00  0.00    +0.000 A 
ATOM     20  C   UNL     1      47.873   6.118  14.219  0.00  0.00    +0.000 A 
ATOM     21  N   UNL     1      47.929   6.965  13.143  0.00  0.00    +0.000 N 
ATOM     22  N   UNL     1      48.651   6.436  15.270  0.00  0.00    +0.000 NA
ATOM     23  C   UNL     1      48.621   5.621  16.360  0.00  0.00    +0.000 A 
ATOM     24  H   UNL     1      48.581   7.737  13.232  0.00  0.00    +0.000 HD
BRANCH  17  26
ATOM     25  N   UNL     1      47.004   2.624  17.762  0.00  0.00    +0.000 N 
ATOM     26  C   UNL     1      47.919   3.633  17.658  0.00  0.00    +0.000 C 
ATOM     27  O   UNL     1      48.767   3.810  18.520  0.00  0.00    +0.000 OA
ATOM     28  H   UNL     1      47.113   1.995  18.544  0.00  0.00    +0.000 HD
ATOM     29  H   UNL     1      46.455   2.295  16.977  0.00  0.00    +0.000 HD
ENDBRANCH  17  26
ENDBRANCH  16  21
ENDBRANCH   1  16
TORSDOF 6
ENDMDL
MODEL 7
REMARK VINA RESULT:    -7.156      3.144      4.106
REMARK INTER + INTRA:         -10.231
REMARK INTER:                  -9.529
REMARK INTRA:                  -0.702
REMARK UNBOUND:                -0.565
REMARK  Name = 
REMARK  6 active torsions:
REMARK  status: ('A' for Active; 'I' for Inactive)
REMARK    1  A    between atoms: C_2  and  C_4
REMARK    2  A    between atoms: N_8  and  C_9
REMARK    3  A    between atoms: C_9  and  C_10
REMARK    4  A    between atoms: C_10  and  C_13
REMARK    5  A    between atoms: C_17  and  N_18
REMARK    6  A    between atoms: N_18  and  C_19
REMARK                            x       y       z     vdW  Elec       q    Type
REMARK                         _______ _______ _______ _____ _____    ______ ____
ROOT
ATOM      1  C   UNL     1      45.180   6.330  11.989  0.00  0.00    +0.000 C 
ATOM      2  F   UNL     1      44.820   5.930  13.244  0.00  0.00    +0.000 F 
ATOM      3  F   UNL     1      46.400   5.757  11.762  0.00  0.00    +0.000 F 
ENDROOT
BRANCH   1   4
ATOM      4  C   UNL     1      45.229   7.843  11.866  0.00  0.00    +0.000 A 
ATOM      5  C   UNL     1      44.231   8.548  11.183  0.00  0.00    +0.000 A 
ATOM      6  C   UNL     1      44.322   9.933  11.036  0.00  0.00    +0.000 A 
ATOM      7  C   UNL     1      45.417  10.629  11.559  0.00  0.00    +0.000 A 
ATOM      8  C   UNL     1      46.418   9.950  12.255  0.00  0.00    +0.000 A 
ATOM      9  C   UNL     1      46.314   8.559  12.399  0.00  0.00    +0.000 A 
BRANCH   8  10
ATOM     10  N   UNL     1      47.563  10.582  12.780  0.00  0.00    +0.000 N 
ATOM     11  H   UNL     1      47.992  11.169  12.064  0.00  0.00    +0.000 HD
BRANCH  10  12
ATOM     12  C   UNL     1      48.520  10.008  13.686  0.00  0.00    +0.000 C 
ATOM     13  C   UNL     1      49.321  11.044  14.492  0.00  0.00    +0.000 C 
ATOM     14  O   UNL     1      50.579  10.474  14.043  0.00  0.00    +0.000 OA
ATOM     15  C   UNL     1      49.876   9.727  13.016  0.00  0.00    +0.000 C 
ENDBRANCH  10  12
ENDBRANCH   8  10
ENDBRANCH   1   4
BRANCH   1  16
ATOM     16  C   UNL     1      44.164   5.757  10.971  0.00  0.00    +0.000 C 
BRANCH  16  21
ATOM     17  C   UNL     1      46.431   2.600   7.627  0.00  0.00    +0.000 A 
ATOM     18  C   UNL     1      46.402   3.985   7.715  0.00  0.00    +0.000 A 
ATOM     19  C   UNL     1      45.685   4.581   8.752  0.00  0.00    +0.000 A 
ATOM     20  C   UNL     1      45.002   3.793   9.677  0.00  0.00    +0.000 A 
ATOM     21  N   UNL     1      44.287   4.324  10.718  0.00  0.00    +0.000 N 
ATOM     22  N   UNL     1      45.009   2.449   9.584  0.00  0.00    +0.000 NA
ATOM     23  C   UNL     1      45.706   1.882   8.561  0.00  0.00    +0.000 A 
ATOM     24  H   UNL     1      43.858   3.649  11.341  0.00  0.00    +0.000 HD
BRANCH  17  26
ATOM     25  N   UNL     1      47.948   2.651   5.737  0.00  0.00    +0.000 N 
ATOM     26  C   UNL     1      47.178   1.890   6.570  0.00  0.00    +0.000 C 
ATOM     27  O   UNL     1      47.139   0.673   6.463  0.00  0.00    +0.000 OA
ATOM     28  H   UNL     1      48.533   2.152   5.083  0.00  0.00    +0.000 HD
ATOM     29  H   UNL     1      48.195   3.612   5.940  0.00  0.00    +0.000 HD
ENDBRANCH  17  26
ENDBRANCH  16  21
ENDBRANCH   1  16
TORSDOF 6
ENDMDL
MODEL 8
REMARK VINA RESULT:    -7.017      1.568      2.068
REMARK INTER + INTRA:         -10.044
REMARK INTER:                  -9.448
REMARK INTRA:                  -0.596
REMARK UNBOUND:                -0.565
REMARK  Name = 
REMARK  6 active torsions:
REMARK  status: ('A' for Active; 'I' for Inactive)
REMARK    1  A    between atoms: C_2  and  C_4
REMARK    2  A    between atoms: N_8  and  C_9
REMARK    3  A    between atoms: C_9  and  C_10
REMARK    4  A    between atoms: C_10  and  C_13
REMARK    5  A    between atoms: C_17  and  N_18
REMARK    6  A    between atoms: N_18  and  C_19
REMARK                            x       y       z     vdW  Elec       q    Type
REMARK                         _______ _______ _______ _____ _____    ______ ____
ROOT
ATOM      1  C   UNL     1      45.123   6.570  11.966  0.00  0.00    +0.000 C 
ATOM      2  F   UNL     1      45.934   7.530  11.431  0.00  0.00    +0.000 F 
ATOM      3  F   UNL     1      44.176   7.253  12.677  0.00  0.00    +0.000 F 
ENDROOT
BRANCH   1   4
ATOM      4  C   UNL     1      45.894   5.593  12.836  0.00  0.00    +0.000 A 
ATOM      5  C   UNL     1      45.773   4.210  12.655  0.00  0.00    +0.000 A 
ATOM      6  C   UNL     1      46.448   3.328  13.499  0.00  0.00    +0.000 A 
ATOM      7  C   UNL     1      47.244   3.816  14.541  0.00  0.00    +0.000 A 
ATOM      8  C   UNL     1      47.391   5.190  14.734  0.00  0.00    +0.000 A 
ATOM      9  C   UNL     1      46.709   6.067  13.877  0.00  0.00    +0.000 A 
BRANCH   8  10
ATOM     10  N   UNL     1      48.150   5.750  15.780  0.00  0.00    +0.000 N 
ATOM     11  H   UNL     1      48.896   6.329  15.394  0.00  0.00    +0.000 HD
BRANCH  10  12
ATOM     12  C   UNL     1      48.516   5.108  17.013  0.00  0.00    +0.000 C 
ATOM     13  C   UNL     1      47.347   4.918  17.993  0.00  0.00    +0.000 C 
ATOM     14  O   UNL     1      48.072   5.604  19.048  0.00  0.00    +0.000 OA
ATOM     15  C   UNL     1      49.024   6.102  18.072  0.00  0.00    +0.000 C 
ENDBRANCH  10  12
ENDBRANCH   8  10
ENDBRANCH   1   4
BRANCH   1  16
ATOM     16  C   UNL     1      44.425   5.806  10.814  0.00  0.00    +0.000 C 
BRANCH  16  21
ATOM     17  C   UNL     1      46.457   2.205   7.783  0.00  0.00    +0.000 A 
ATOM     18  C   UNL     1      45.741   2.117   8.969  0.00  0.00    +0.000 A 
ATOM     19  C   UNL     1      45.310   3.290   9.586  0.00  0.00    +0.000 A 
ATOM     20  C   UNL     1      45.603   4.530   9.020  0.00  0.00    +0.000 A 
ATOM     21  N   UNL     1      45.198   5.714   9.579  0.00  0.00    +0.000 N 
ATOM     22  N   UNL     1      46.314   4.622   7.880  0.00  0.00    +0.000 NA
ATOM     23  C   UNL     1      46.737   3.468   7.294  0.00  0.00    +0.000 A 
ATOM     24  H   UNL     1      45.447   6.548   9.060  0.00  0.00    +0.000 HD
BRANCH  17  26
ATOM     25  N   UNL     1      46.721  -0.201   7.648  0.00  0.00    +0.000 N 
ATOM     26  C   UNL     1      46.937   1.012   7.058  0.00  0.00    +0.000 C 
ATOM     27  O   UNL     1      47.475   1.097   5.964  0.00  0.00    +0.000 OA
ATOM     28  H   UNL     1      46.960  -1.016   7.103  0.00  0.00    +0.000 HD
ATOM     29  H   UNL     1      46.077  -0.331   8.419  0.00  0.00    +0.000 HD
ENDBRANCH  17  26
ENDBRANCH  16  21
ENDBRANCH   1  16
TORSDOF 6
ENDMDL
MODEL 9
REMARK VINA RESULT:    -6.839      3.391      4.781
REMARK INTER + INTRA:          -9.803
REMARK INTER:                  -8.918
REMARK INTRA:                  -0.885
REMARK UNBOUND:                -0.565
REMARK  Name = 
REMARK  6 active torsions:
REMARK  status: ('A' for Active; 'I' for Inactive)
REMARK    1  A    between atoms: C_2  and  C_4
REMARK    2  A    between atoms: N_8  and  C_9
REMARK    3  A    between atoms: C_9  and  C_10
REMARK    4  A    between atoms: C_10  and  C_13
REMARK    5  A    between atoms: C_17  and  N_18
REMARK    6  A    between atoms: N_18  and  C_19
REMARK                            x       y       z     vdW  Elec       q    Type
REMARK                         _______ _______ _______ _____ _____    ______ ____
ROOT
ATOM      1  C   UNL     1      48.317   8.032  13.089  0.00  0.00    +0.000 C 
ATOM      2  F   UNL     1      48.717   6.888  12.458  0.00  0.00    +0.000 F 
ATOM      3  F   UNL     1      49.120   9.019  12.591  0.00  0.00    +0.000 F 
ENDROOT
BRANCH   1   4
ATOM      4  C   UNL     1      48.426   7.916  14.600  0.00  0.00    +0.000 A 
ATOM      5  C   UNL     1      48.187   9.018  15.430  0.00  0.00    +0.000 A 
ATOM      6  C   UNL     1      48.344   8.905  16.812  0.00  0.00    +0.000 A 
ATOM      7  C   UNL     1      48.753   7.694  17.381  0.00  0.00    +0.000 A 
ATOM      8  C   UNL     1      48.986   6.578  16.575  0.00  0.00    +0.000 A 
ATOM      9  C   UNL     1      48.821   6.703  15.188  0.00  0.00    +0.000 A 
BRANCH   8  10
ATOM     10  N   UNL     1      49.429   5.339  17.076  0.00  0.00    +0.000 N 
ATOM     11  H   UNL     1      50.201   4.992  16.506  0.00  0.00    +0.000 HD
BRANCH  10  12
ATOM     12  C   UNL     1      48.609   4.287  17.613  0.00  0.00    +0.000 C 
ATOM     13  C   UNL     1      47.981   3.376  16.547  0.00  0.00    +0.000 C 
ATOM     14  O   UNL     1      46.649   3.614  17.075  0.00  0.00    +0.000 OA
ATOM     15  C   UNL     1      47.156   4.732  17.851  0.00  0.00    +0.000 C 
ENDBRANCH  10  12
ENDBRANCH   8  10
ENDBRANCH   1   4
BRANCH   1  16
ATOM     16  C   UNL     1      46.851   8.335  12.693  0.00  0.00    +0.000 C 
BRANCH  16  21
ATOM     17  C   UNL     1      44.390   3.993  11.519  0.00  0.00    +0.000 A 
ATOM     18  C   UNL     1      45.323   4.744  10.818  0.00  0.00    +0.000 A 
ATOM     19  C   UNL     1      45.828   5.907  11.398  0.00  0.00    +0.000 A 
ATOM     20  C   UNL     1      45.391   6.310  12.659  0.00  0.00    +0.000 A 
ATOM     21  N   UNL     1      45.858   7.440  13.278  0.00  0.00    +0.000 N 
ATOM     22  N   UNL     1      44.470   5.597  13.335  0.00  0.00    +0.000 NA
ATOM     23  C   UNL     1      43.979   4.469  12.752  0.00  0.00    +0.000 A 
ATOM     24  H   UNL     1      45.486   7.612  14.206  0.00  0.00    +0.000 HD
BRANCH  17  26
ATOM     25  N   UNL     1      44.411   2.214   9.873  0.00  0.00    +0.000 N 
ATOM     26  C   UNL     1      43.817   2.743  10.984  0.00  0.00    +0.000 C 
ATOM     27  O   UNL     1      42.876   2.183  11.527  0.00  0.00    +0.000 OA
ATOM     28  H   UNL     1      44.080   1.309   9.573  0.00  0.00    +0.000 HD
ATOM     29  H   UNL     1      45.322   2.507   9.544  0.00  0.00    +0.000 HD
ENDBRANCH  17  26
ENDBRANCH  16  21
ENDBRANCH   1  16
TORSDOF 6
ENDMDL
