MODEL 1
REMARK VINA RESULT:    -6.891      0.000      0.000
REMARK INTER + INTRA:          -9.699
REMARK INTER:                  -8.905
REMARK INTRA:                  -0.794
REMARK UNBOUND:                -0.794
REMARK  Name = 
REMARK  8 active torsions:
REMARK  status: ('A' for Active; 'I' for Inactive)
REMARK    1  A    between atoms: C_1  and  O_2
REMARK    2  A    between atoms: O_2  and  C_3
REMARK    3  A    between atoms: C_5  and  C_6
REMARK    4  A    between atoms: C_6  and  N_7
REMARK    5  A    between atoms: C_17  and  O_18
REMARK    6  A    between atoms: O_18  and  C_19
REMARK    7  A    between atoms: C_20  and  O_21
REMARK    8  A    between atoms: O_21  and  C_22
REMARK                            x       y       z     vdW  Elec       q    Type
REMARK                         _______ _______ _______ _____ _____    ______ ____
ROOT
ATOM      1  C   UNL     1      47.209   4.971  13.388  0.00  0.00    +0.000 A 
ATOM      2  C   UNL     1      46.033   4.701  12.674  0.00  0.00    +0.000 A 
ATOM      3  C   UNL     1      45.552   5.579  11.687  0.00  0.00    +0.000 A 
ATOM      4  C   UNL     1      46.268   6.742  11.422  0.00  0.00    +0.000 A 
ATOM      5  C   UNL     1      47.436   7.046  12.130  0.00  0.00    +0.000 A 
ATOM      6  C   UNL     1      47.933   6.142  13.093  0.00  0.00    +0.000 A 
ENDROOT
BRANCH   1   8
ATOM      7  C   UNL     1      47.052   4.347  15.693  0.00  0.00    +0.000 C 
ATOM      8  O   UNL     1      47.651   4.174  14.416  0.00  0.00    +0.000 OA
ENDBRANCH   1   8
BRANCH   5   9
ATOM      9  O   UNL     1      48.209   8.158  11.871  0.00  0.00    +0.000 OA
ATOM     10  C   UNL     1      47.592   9.404  12.160  0.00  0.00    +0.000 C 
ENDBRANCH   5   9
BRANCH   6  11
ATOM     11  O   UNL     1      49.085   6.556  13.728  0.00  0.00    +0.000 OA
ATOM     12  C   UNL     1      48.944   7.277  14.942  0.00  0.00    +0.000 C 
ENDBRANCH   6  11
BRANCH   3  13
ATOM     13  C   UNL     1      44.290   5.258  10.926  0.00  0.00    +0.000 C 
BRANCH  13  14
ATOM     14  N   UNL     1      44.362   3.992  10.200  0.00  0.00    +0.000 N 
ATOM     15  C   UNL     1      43.891   2.796  10.690  0.00  0.00    +0.000 A 
ATOM     16  C   UNL     1      44.248   1.800   9.812  0.00  0.00    +0.000 A 
ATOM     17  C   UNL     1      45.199   2.363   8.924  0.00  0.00    +0.000 A 
ATOM     18  C   UNL     1      46.123   1.811   8.017  0.00  0.00    +0.000 A 
ATOM     19  C   UNL     1      46.942   2.663   7.271  0.00  0.00    +0.000 A 
ATOM     20  C   UNL     1      46.771   4.042   7.339  0.00  0.00    +0.000 A 
ATOM     21  C   UNL     1      45.859   4.615   8.233  0.00  0.00    +0.000 A 
ATOM     22  C   UNL     1      45.145   3.752   9.081  0.00  0.00    +0.000 A 
ENDBRANCH  13  14
ENDBRANCH   3  13
TORSDOF 5
ENDMDL
MODEL 2
REMARK VINA RESULT:    -6.794      0.966      2.882
REMARK INTER + INTRA:          -9.574
REMARK INTER:                  -8.726
REMARK INTRA:                  -0.848
REMARK UNBOUND:                -0.794
REMARK  Name = 
REMARK  8 active torsions:
REMARK  status: ('A' for Active; 'I' for Inactive)
REMARK    1  A    between atoms: C_1  and  O_2
REMARK    2  A    between atoms: O_2  and  C_3
REMARK    3  A    between atoms: C_5  and  C_6
REMARK    4  A    between atoms: C_6  and  N_7
REMARK    5  A    between atoms: C_17  and  O_18
REMARK    6  A    between atoms: O_18  and  C_19
REMARK    7  A    between atoms: C_20  and  O_21
REMARK    8  A    between atoms: O_21  and  C_22
REMARK                            x       y       z     vdW  Elec       q    Type
REMARK                         _______ _______ _______ _____ _____    ______ ____
ROOT
ATOM      1  C   UNL     1      47.795   7.344  12.166  0.00  0.00    +0.000 A 
ATOM      2  C   UNL     1      46.478   7.143  11.729  0.00  0.00    +0.000 A 
ATOM      3  C   UNL     1      45.612   6.251  12.383  0.00  0.00    +0.000 A 
ATOM      4  C   UNL     1      46.084   5.554  13.492  0.00  0.00    +0.000 A 
ATOM      5  C   UNL     1      47.399   5.723  13.942  0.00  0.00    +0.000 A 
ATOM      6  C   UNL     1      48.251   6.648  13.301  0.00  0.00    +0.000 A 
ENDROOT
BRANCH   1   8
ATOM      7  C   UNL     1      48.600   9.548  11.692  0.00  0.00    +0.000 C 
ATOM      8  O   UNL     1      48.686   8.143  11.491  0.00  0.00    +0.000 OA
ENDBRANCH   1   8
BRANCH   5   9
ATOM      9  O   UNL     1      47.899   5.097  15.063  0.00  0.00    +0.000 OA
ATOM     10  C   UNL     1      47.099   4.041  15.575  0.00  0.00    +0.000 C 
ENDBRANCH   5   9
BRANCH   6  11
ATOM     11  O   UNL     1      49.522   6.719  13.831  0.00  0.00    +0.000 OA
ATOM     12  C   UNL     1      49.803   7.782  14.728  0.00  0.00    +0.000 C 
ENDBRANCH   6  11
BRANCH   3  13
ATOM     13  C   UNL     1      44.197   6.063  11.898  0.00  0.00    +0.000 C 
BRANCH  13  14
ATOM     14  N   UNL     1      43.943   4.726  11.367  0.00  0.00    +0.000 N 
ATOM     15  C   UNL     1      43.411   3.693  12.103  0.00  0.00    +0.000 A 
ATOM     16  C   UNL     1      43.441   2.555  11.333  0.00  0.00    +0.000 A 
ATOM     17  C   UNL     1      44.270   2.840  10.218  0.00  0.00    +0.000 A 
ATOM     18  C   UNL     1      44.909   2.036   9.256  0.00  0.00    +0.000 A 
ATOM     19  C   UNL     1      45.679   2.644   8.260  0.00  0.00    +0.000 A 
ATOM     20  C   UNL     1      45.724   4.030   8.152  0.00  0.00    +0.000 A 
ATOM     21  C   UNL     1      45.097   4.850   9.098  0.00  0.00    +0.000 A 
ATOM     22  C   UNL     1      44.448   4.227  10.176  0.00  0.00    +0.000 A 
ENDBRANCH  13  14
ENDBRANCH   3  13
TORSDOF 5
ENDMDL
MODEL 3
REMARK VINA RESULT:    -6.157      1.134      2.838
REMARK INTER + INTRA:          -8.750
REMARK INTER:                  -8.259
REMARK INTRA:                  -0.491
REMARK UNBOUND:                -0.794
REMARK  Name = 
REMARK  8 active torsions:
REMARK  status: ('A' for Active; 'I' for Inactive)
REMARK    1  A    between atoms: C_1  and  O_2
REMARK    2  A    between atoms: O_2  and  C_3
REMARK    3  A    between atoms: C_5  and  C_6
REMARK    4  A    between atoms: C_6  and  N_7
REMARK    5  A    between atoms: C_17  and  O_18
REMARK    6  A    between atoms: O_18  and  C_19
REMARK    7  A    between atoms: C_20  and  O_21
REMARK    8  A    between atoms: O_21  and  C_22
REMARK                            x       y       z     vdW  Elec       q    Type
REMARK                         _______ _______ _______ _____ _____    ______ ____
ROOT
ATOM      1  C   UNL     1      46.559   8.166  12.856  0.00  0.00    +0.000 A 
ATOM      2  C   UNL     1      45.467   7.813  12.052  0.00  0.00    +0.000 A 
ATOM      3  C   UNL     1      45.128   6.469  11.817  0.00  0.00    +0.000 A 
ATOM      4  C   UNL     1      45.904   5.473  12.403  0.00  0.00    +0.000 A 
ATOM      5  C   UNL     1      47.010   5.796  13.197  0.00  0.00    +0.000 A 
ATOM      6  C   UNL     1      47.322   7.148  13.457  0.00  0.00    +0.000 A 
ENDROOT
BRANCH   1   8
ATOM      7  C   UNL     1      47.518  10.144  11.907  0.00  0.00    +0.000 C 
ATOM      8  O   UNL     1      46.962   9.469  13.028  0.00  0.00    +0.000 OA
ENDBRANCH   1   8
BRANCH   5   9
ATOM      9  O   UNL     1      47.780   4.851  13.840  0.00  0.00    +0.000 OA
ATOM     10  C   UNL     1      47.123   3.622  14.117  0.00  0.00    +0.000 C 
ENDBRANCH   5   9
BRANCH   6  11
ATOM     11  O   UNL     1      48.437   7.338  14.246  0.00  0.00    +0.000 OA
ATOM     12  C   UNL     1      49.681   7.532  13.591  0.00  0.00    +0.000 C 
ENDBRANCH   6  11
BRANCH   3  13
ATOM     13  C   UNL     1      43.940   6.118  10.958  0.00  0.00    +0.000 C 
BRANCH  13  14
ATOM     14  N   UNL     1      43.858   4.694  10.643  0.00  0.00    +0.000 N 
ATOM     15  C   UNL     1      43.356   3.743  11.501  0.00  0.00    +0.000 A 
ATOM     16  C   UNL     1      43.561   2.505  10.940  0.00  0.00    +0.000 A 
ATOM     17  C   UNL     1      44.459   2.692   9.859  0.00  0.00    +0.000 A 
ATOM     18  C   UNL     1      45.255   1.815   9.098  0.00  0.00    +0.000 A 
ATOM     19  C   UNL     1      46.055   2.331   8.076  0.00  0.00    +0.000 A 
ATOM     20  C   UNL     1      45.984   3.678   7.737  0.00  0.00    +0.000 A 
ATOM     21  C   UNL     1      45.201   4.570   8.480  0.00  0.00    +0.000 A 
ATOM     22  C   UNL     1      44.514   4.064   9.596  0.00  0.00    +0.000 A 
ENDBRANCH  13  14
ENDBRANCH   3  13
TORSDOF 5
ENDMDL
MODEL 4
REMARK VINA RESULT:    -5.332      2.873      6.525
REMARK INTER + INTRA:          -7.684
REMARK INTER:                  -7.057
REMARK INTRA:                  -0.628
REMARK UNBOUND:                -0.794
REMARK  Name = 
REMARK  8 active torsions:
REMARK  status: ('A' for Active; 'I' for Inactive)
REMARK    1  A    between atoms: C_1  and  O_2
REMARK    2  A    between atoms: O_2  and  C_3
REMARK    3  A    between atoms: C_5  and  C_6
REMARK    4  A    between atoms: C_6  and  N_7
REMARK    5  A    between atoms: C_17  and  O_18
REMARK    6  A    between atoms: O_18  and  C_19
REMARK    7  A    between atoms: C_20  and  O_21
REMARK    8  A    between atoms: O_21  and  C_22
REMARK                            x       y       z     vdW  Elec       q    Type
REMARK                         _______ _______ _______ _____ _____    ______ ____
ROOT
ATOM      1  C   UNL     1      45.341   5.227  11.226  0.00  0.00    +0.000 A 
ATOM      2  C   UNL     1      45.900   6.511  11.286  0.00  0.00    +0.000 A 
ATOM      3  C   UNL     1      46.633   6.944  12.405  0.00  0.00    +0.000 A 
ATOM      4  C   UNL     1      46.799   6.068  13.473  0.00  0.00    +0.000 A 
ATOM      5  C   UNL     1      46.238   4.786  13.448  0.00  0.00    +0.000 A 
ATOM      6  C   UNL     1      45.535   4.346  12.306  0.00  0.00    +0.000 A 
ENDROOT
BRANCH   1   8
ATOM      7  C   UNL     1      45.190   4.282   9.032  0.00  0.00    +0.000 C 
ATOM      8  O   UNL     1      44.547   4.812  10.183  0.00  0.00    +0.000 OA
ENDBRANCH   1   8
BRANCH   5   9
ATOM      9  O   UNL     1      46.416   3.864  14.457  0.00  0.00    +0.000 OA
ATOM     10  C   UNL     1      47.183   4.317  15.563  0.00  0.00    +0.000 C 
ENDBRANCH   5   9
BRANCH   6  11
ATOM     11  O   UNL     1      45.024   3.069  12.404  0.00  0.00    +0.000 OA
ATOM     12  C   UNL     1      43.614   2.929  12.487  0.00  0.00    +0.000 C 
ENDBRANCH   6  11
BRANCH   3  13
ATOM     13  C   UNL     1      47.234   8.326  12.437  0.00  0.00    +0.000 C 
BRANCH  13  14
ATOM     14  N   UNL     1      48.512   8.382  13.142  0.00  0.00    +0.000 N 
ATOM     15  C   UNL     1      48.676   8.914  14.400  0.00  0.00    +0.000 A 
ATOM     16  C   UNL     1      50.019   8.929  14.690  0.00  0.00    +0.000 A 
ATOM     17  C   UNL     1      50.701   8.669  13.475  0.00  0.00    +0.000 A 
ATOM     18  C   UNL     1      52.036   8.830  13.059  0.00  0.00    +0.000 A 
ATOM     19  C   UNL     1      52.395   8.472  11.758  0.00  0.00    +0.000 A 
ATOM     20  C   UNL     1      51.473   7.859  10.916  0.00  0.00    +0.000 A 
ATOM     21  C   UNL     1      50.139   7.689  11.306  0.00  0.00    +0.000 A 
ATOM     22  C   UNL     1      49.757   8.186  12.563  0.00  0.00    +0.000 A 
ENDBRANCH  13  14
ENDBRANCH   3  13
TORSDOF 5
ENDMDL
MODEL 5
REMARK VINA RESULT:    -5.294      2.830      6.166
REMARK INTER + INTRA:          -7.636
REMARK INTER:                  -6.952
REMARK INTRA:                  -0.684
REMARK UNBOUND:                -0.794
REMARK  Name = 
REMARK  8 active torsions:
REMARK  status: ('A' for Active; 'I' for Inactive)
REMARK    1  A    between atoms: C_1  and  O_2
REMARK    2  A    between atoms: O_2  and  C_3
REMARK    3  A    between atoms: C_5  and  C_6
REMARK    4  A    between atoms: C_6  and  N_7
REMARK    5  A    between atoms: C_17  and  O_18
REMARK    6  A    between atoms: O_18  and  C_19
REMARK    7  A    between atoms: C_20  and  O_21
REMARK    8  A    between atoms: O_21  and  C_22
REMARK                            x       y       z     vdW  Elec       q    Type
REMARK                         _______ _______ _______ _____ _____    ______ ____
ROOT
ATOM      1  C   UNL     1      45.946   4.800  13.298  0.00  0.00    +0.000 A 
ATOM      2  C   UNL     1      46.436   6.113  13.304  0.00  0.00    +0.000 A 
ATOM      3  C   UNL     1      46.315   6.951  12.182  0.00  0.00    +0.000 A 
ATOM      4  C   UNL     1      45.692   6.453  11.042  0.00  0.00    +0.000 A 
ATOM      5  C   UNL     1      45.207   5.141  11.000  0.00  0.00    +0.000 A 
ATOM      6  C   UNL     1      45.300   4.318  12.143  0.00  0.00    +0.000 A 
ENDROOT
BRANCH   1   8
ATOM      7  C   UNL     1      47.149   4.244  15.290  0.00  0.00    +0.000 C 
ATOM      8  O   UNL     1      46.130   3.935  14.349  0.00  0.00    +0.000 OA
ENDBRANCH   1   8
BRANCH   5   9
ATOM      9  O   UNL     1      44.539   4.617   9.915  0.00  0.00    +0.000 OA
ATOM     10  C   UNL     1      45.337   4.396   8.761  0.00  0.00    +0.000 C 
ENDBRANCH   5   9
BRANCH   6  11
ATOM     11  O   UNL     1      44.795   3.045  11.977  0.00  0.00    +0.000 OA
ATOM     12  C   UNL     1      43.434   2.829  12.316  0.00  0.00    +0.000 C 
ENDBRANCH   6  11
BRANCH   3  13
ATOM     13  C   UNL     1      46.840   8.364  12.221  0.00  0.00    +0.000 C 
BRANCH  13  14
ATOM     14  N   UNL     1      48.075   8.498  12.990  0.00  0.00    +0.000 N 
ATOM     15  C   UNL     1      48.158   9.130  14.209  0.00  0.00    +0.000 A 
ATOM     16  C   UNL     1      49.482   9.193  14.573  0.00  0.00    +0.000 A 
ATOM     17  C   UNL     1      50.236   8.853  13.421  0.00  0.00    +0.000 A 
ATOM     18  C   UNL     1      51.591   9.007  13.070  0.00  0.00    +0.000 A 
ATOM     19  C   UNL     1      52.029   8.556  11.823  0.00  0.00    +0.000 A 
ATOM     20  C   UNL     1      51.166   7.862  10.981  0.00  0.00    +0.000 A 
ATOM     21  C   UNL     1      49.814   7.697  11.308  0.00  0.00    +0.000 A 
ATOM     22  C   UNL     1      49.354   8.282  12.499  0.00  0.00    +0.000 A 
ENDBRANCH  13  14
ENDBRANCH   3  13
TORSDOF 5
ENDMDL
MODEL 6
REMARK VINA RESULT:    -5.260      2.480      6.791
REMARK INTER + INTRA:          -7.591
REMARK INTER:                  -6.921
REMARK INTRA:                  -0.670
REMARK UNBOUND:                -0.794
REMARK  Name = 
REMARK  8 active torsions:
REMARK  status: ('A' for Active; 'I' for Inactive)
REMARK    1  A    between atoms: C_1  and  O_2
REMARK    2  A    between atoms: O_2  and  C_3
REMARK    3  A    between atoms: C_5  and  C_6
REMARK    4  A    between atoms: C_6  and  N_7
REMARK    5  A    between atoms: C_17  and  O_18
REMARK    6  A    between atoms: O_18  and  C_19
REMARK    7  A    between atoms: C_20  and  O_21
REMARK    8  A    between atoms: O_21  and  C_22
REMARK                            x       y       z     vdW  Elec       q    Type
REMARK                         _______ _______ _______ _____ _____    ______ ____
ROOT
ATOM      1  C   UNL     1      45.087   5.138  11.029  0.00  0.00    +0.000 A 
ATOM      2  C   UNL     1      45.590   6.446  11.058  0.00  0.00    +0.000 A 
ATOM      3  C   UNL     1      46.271   6.948  12.181  0.00  0.00    +0.000 A 
ATOM      4  C   UNL     1      46.442   6.118  13.285  0.00  0.00    +0.000 A 
ATOM      5  C   UNL     1      45.936   4.813  13.290  0.00  0.00    +0.000 A 
ATOM      6  C   UNL     1      45.286   4.304  12.145  0.00  0.00    +0.000 A 
ENDROOT
BRANCH   1   8
ATOM      7  C   UNL     1      45.040   4.097   8.874  0.00  0.00    +0.000 C 
ATOM      8  O   UNL     1      44.342   4.654   9.980  0.00  0.00    +0.000 OA
ENDBRANCH   1   8
BRANCH   5   9
ATOM      9  O   UNL     1      46.122   3.935  14.335  0.00  0.00    +0.000 OA
ATOM     10  C   UNL     1      47.175   4.271  15.228  0.00  0.00    +0.000 C 
ENDBRANCH   5   9
BRANCH   6  11
ATOM     11  O   UNL     1      44.825   3.011  12.275  0.00  0.00    +0.000 OA
ATOM     12  C   UNL     1      43.420   2.813  12.309  0.00  0.00    +0.000 C 
ENDBRANCH   6  11
BRANCH   3  13
ATOM     13  C   UNL     1      46.813   8.356  12.181  0.00  0.00    +0.000 C 
BRANCH  13  14
ATOM     14  N   UNL     1      48.251   8.419  12.430  0.00  0.00    +0.000 N 
ATOM     15  C   UNL     1      49.207   8.022  11.523  0.00  0.00    +0.000 A 
ATOM     16  C   UNL     1      50.435   8.087  12.137  0.00  0.00    +0.000 A 
ATOM     17  C   UNL     1      50.189   8.247  13.524  0.00  0.00    +0.000 A 
ATOM     18  C   UNL     1      50.987   8.095  14.673  0.00  0.00    +0.000 A 
ATOM     19  C   UNL     1      50.427   8.333  15.931  0.00  0.00    +0.000 A 
ATOM     20  C   UNL     1      49.130   8.823  16.043  0.00  0.00    +0.000 A 
ATOM     21  C   UNL     1      48.317   8.982  14.915  0.00  0.00    +0.000 A 
ATOM     22  C   UNL     1      48.844   8.601  13.669  0.00  0.00    +0.000 A 
ENDBRANCH  13  14
ENDBRANCH   3  13
TORSDOF 5
ENDMDL
MODEL 7
REMARK VINA RESULT:    -5.152      2.834      6.780
REMARK INTER + INTRA:          -7.452
REMARK INTER:                  -6.920
REMARK INTRA:                  -0.532
REMARK UNBOUND:                -0.794
REMARK  Name = 
REMARK  8 active torsions:
REMARK  status: ('A' for Active; 'I' for Inactive)
REMARK    1  A    between atoms: C_1  and  O_2
REMARK    2  A    between atoms: O_2  and  C_3
REMARK    3  A    between atoms: C_5  and  C_6
REMARK    4  A    between atoms: C_6  and  N_7
REMARK    5  A    between atoms: C_17  and  O_18
REMARK    6  A    between atoms: O_18  and  C_19
REMARK    7  A    between atoms: C_20  and  O_21
REMARK    8  A    between atoms: O_21  and  C_22
REMARK                            x       y       z     vdW  Elec       q    Type
REMARK                         _______ _______ _______ _____ _____    ______ ____
ROOT
ATOM      1  C   UNL     1      45.246   4.759  12.218  0.00  0.00    +0.000 A 
ATOM      2  C   UNL     1      46.492   4.814  12.858  0.00  0.00    +0.000 A 
ATOM      3  C   UNL     1      47.140   6.036  13.106  0.00  0.00    +0.000 A 
ATOM      4  C   UNL     1      46.521   7.214  12.701  0.00  0.00    +0.000 A 
ATOM      5  C   UNL     1      45.285   7.190  12.045  0.00  0.00    +0.000 A 
ATOM      6  C   UNL     1      44.623   5.961  11.832  0.00  0.00    +0.000 A 
ENDROOT
BRANCH   1   8
ATOM      7  C   UNL     1      44.826   3.077  10.568  0.00  0.00    +0.000 C 
ATOM      8  O   UNL     1      44.635   3.574  11.886  0.00  0.00    +0.000 OA
ENDBRANCH   1   8
BRANCH   5   9
ATOM      9  O   UNL     1      44.606   8.329  11.670  0.00  0.00    +0.000 OA
ATOM     10  C   UNL     1      45.063   9.532  12.272  0.00  0.00    +0.000 C 
ENDBRANCH   5   9
BRANCH   6  11
ATOM     11  O   UNL     1      43.418   6.066  11.171  0.00  0.00    +0.000 OA
ATOM     12  C   UNL     1      42.255   5.611  11.845  0.00  0.00    +0.000 C 
ENDBRANCH   6  11
BRANCH   3  13
ATOM     13  C   UNL     1      48.475   6.066  13.808  0.00  0.00    +0.000 C 
BRANCH  13  14
ATOM     14  N   UNL     1      48.362   6.257  15.251  0.00  0.00    +0.000 N 
ATOM     15  C   UNL     1      48.800   7.379  15.916  0.00  0.00    +0.000 A 
ATOM     16  C   UNL     1      48.665   7.160  17.266  0.00  0.00    +0.000 A 
ATOM     17  C   UNL     1      48.414   5.775  17.430  0.00  0.00    +0.000 A 
ATOM     18  C   UNL     1      48.469   4.905  18.535  0.00  0.00    +0.000 A 
ATOM     19  C   UNL     1      48.156   3.554  18.359  0.00  0.00    +0.000 A 
ATOM     20  C   UNL     1      47.688   3.094  17.132  0.00  0.00    +0.000 A 
ATOM     21  C   UNL     1      47.626   3.940  16.018  0.00  0.00    +0.000 A 
ATOM     22  C   UNL     1      48.081   5.260  16.173  0.00  0.00    +0.000 A 
ENDBRANCH  13  14
ENDBRANCH   3  13
TORSDOF 5
ENDMDL
MODEL 8
REMARK VINA RESULT:    -5.111      2.865      6.751
REMARK INTER + INTRA:          -7.398
REMARK INTER:                  -6.958
REMARK INTRA:                  -0.440
REMARK UNBOUND:                -0.794
REMARK  Name = 
REMARK  8 active torsions:
REMARK  status: ('A' for Active; 'I' for Inactive)
REMARK    1  A    between atoms: C_1  and  O_2
REMARK    2  A    between atoms: O_2  and  C_3
REMARK    3  A    between atoms: C_5  and  C_6
REMARK    4  A    between atoms: C_6  and  N_7
REMARK    5  A    between atoms: C_17  and  O_18
REMARK    6  A    between atoms: O_18  and  C_19
REMARK    7  A    between atoms: C_20  and  O_21
REMARK    8  A    between atoms: O_21  and  C_22
REMARK                            x       y       z     vdW  Elec       q    Type
REMARK                         _______ _______ _______ _____ _____    ______ ____
ROOT
ATOM      1  C   UNL     1      45.700   5.167   9.486  0.00  0.00    +0.000 A 
ATOM      2  C   UNL     1      46.225   6.015  10.471  0.00  0.00    +0.000 A 
ATOM      3  C   UNL     1      45.713   6.029  11.780  0.00  0.00    +0.000 A 
ATOM      4  C   UNL     1      44.659   5.176  12.095  0.00  0.00    +0.000 A 
ATOM      5  C   UNL     1      44.104   4.330  11.128  0.00  0.00    +0.000 A 
ATOM      6  C   UNL     1      44.647   4.296   9.825  0.00  0.00    +0.000 A 
ENDROOT
BRANCH   1   8
ATOM      7  C   UNL     1      46.901   4.106   7.708  0.00  0.00    +0.000 C 
ATOM      8  O   UNL     1      46.123   5.198   8.179  0.00  0.00    +0.000 OA
ENDBRANCH   1   8
BRANCH   5   9
ATOM      9  O   UNL     1      43.096   3.432  11.399  0.00  0.00    +0.000 OA
ATOM     10  C   UNL     1      43.425   2.417  12.337  0.00  0.00    +0.000 C 
ENDBRANCH   5   9
BRANCH   6  11
ATOM     11  O   UNL     1      44.011   3.429   8.961  0.00  0.00    +0.000 OA
ATOM     12  C   UNL     1      44.519   2.107   8.863  0.00  0.00    +0.000 C 
ENDBRANCH   6  11
BRANCH   3  13
ATOM     13  C   UNL     1      46.305   6.943  12.824  0.00  0.00    +0.000 C 
BRANCH  13  14
ATOM     14  N   UNL     1      46.098   8.359  12.534  0.00  0.00    +0.000 N 
ATOM     15  C   UNL     1      44.866   8.925  12.301  0.00  0.00    +0.000 A 
ATOM     16  C   UNL     1      45.057  10.233  11.926  0.00  0.00    +0.000 A 
ATOM     17  C   UNL     1      46.439  10.379  11.647  0.00  0.00    +0.000 A 
ATOM     18  C   UNL     1      47.193  11.355  10.969  0.00  0.00    +0.000 A 
ATOM     19  C   UNL     1      48.578  11.198  10.863  0.00  0.00    +0.000 A 
ATOM     20  C   UNL     1      49.220  10.151  11.515  0.00  0.00    +0.000 A 
ATOM     21  C   UNL     1      48.492   9.167  12.195  0.00  0.00    +0.000 A 
ATOM     22  C   UNL     1      47.090   9.257  12.171  0.00  0.00    +0.000 A 
ENDBRANCH  13  14
ENDBRANCH   3  13
TORSDOF 5
ENDMDL
MODEL 9
REMARK VINA RESULT:    -4.902      1.733      3.195
REMARK INTER + INTRA:          -7.129
REMARK INTER:                  -6.476
REMARK INTRA:                  -0.653
REMARK UNBOUND:                -0.794
REMARK  Name = 
REMARK  8 active torsions:
REMARK  status: ('A' for Active; 'I' for Inactive)
REMARK    1  A    between atoms: C_1  and  O_2
REMARK    2  A    between atoms: O_2  and  C_3
REMARK    3  A    between atoms: C_5  and  C_6
REMARK    4  A    between atoms: C_6  and  N_7
REMARK    5  A    between atoms: C_17  and  O_18
REMARK    6  A    between atoms: O_18  and  C_19
REMARK    7  A    between atoms: C_20  and  O_21
REMARK    8  A    between atoms: O_21  and  C_22
REMARK                            x       y       z     vdW  Elec       q    Type
REMARK                         _______ _______ _______ _____ _____    ______ ____
ROOT
ATOM      1  C   UNL     1      48.602   6.652  14.202  0.00  0.00    +0.000 A 
ATOM      2  C   UNL     1      47.387   6.524  13.515  0.00  0.00    +0.000 A 
ATOM      3  C   UNL     1      47.005   7.437  12.517  0.00  0.00    +0.000 A 
ATOM      4  C   UNL     1      47.863   8.490  12.212  0.00  0.00    +0.000 A 
ATOM      5  C   UNL     1      49.075   8.652  12.892  0.00  0.00    +0.000 A 
ATOM      6  C   UNL     1      49.468   7.711  13.868  0.00  0.00    +0.000 A 
ENDROOT
BRANCH   1   8
ATOM      7  C   UNL     1      47.913   5.260  16.023  0.00  0.00    +0.000 C 
ATOM      8  O   UNL     1      48.957   5.826  15.241  0.00  0.00    +0.000 OA
ENDBRANCH   1   8
BRANCH   5   9
ATOM      9  O   UNL     1      49.981   9.646  12.594  0.00  0.00    +0.000 OA
ATOM     10  C   UNL     1      50.607   9.533  11.323  0.00  0.00    +0.000 C 
ENDBRANCH   5   9
BRANCH   6  11
ATOM     11  O   UNL     1      50.677   7.983  14.473  0.00  0.00    +0.000 OA
ATOM     12  C   UNL     1      50.650   8.648  15.726  0.00  0.00    +0.000 C 
ENDBRANCH   6  11
BRANCH   3  13
ATOM     13  C   UNL     1      45.697   7.268  11.785  0.00  0.00    +0.000 C 
BRANCH  13  14
ATOM     14  N   UNL     1      45.608   6.011  11.047  0.00  0.00    +0.000 N 
ATOM     15  C   UNL     1      45.908   5.879   9.711  0.00  0.00    +0.000 A 
ATOM     16  C   UNL     1      45.580   4.603   9.319  0.00  0.00    +0.000 A 
ATOM     17  C   UNL     1      44.801   4.045  10.364  0.00  0.00    +0.000 A 
ATOM     18  C   UNL     1      43.953   2.924  10.448  0.00  0.00    +0.000 A 
ATOM     19  C   UNL     1      43.312   2.641  11.656  0.00  0.00    +0.000 A 
ATOM     20  C   UNL     1      43.592   3.389  12.795  0.00  0.00    +0.000 A 
ATOM     21  C   UNL     1      44.430   4.509  12.737  0.00  0.00    +0.000 A 
ATOM     22  C   UNL     1      44.954   4.869  11.484  0.00  0.00    +0.000 A 
ENDBRANCH  13  14
ENDBRANCH   3  13
TORSDOF 5
ENDMDL
