MODEL 1
REMARK VINA RESULT:    -8.283      0.000      0.000
REMARK INTER + INTRA:         -11.493
REMARK INTER:                 -10.704
REMARK INTRA:                  -0.789
REMARK UNBOUND:                -0.789
REMARK  Name = 
REMARK  5 active torsions:
REMARK  status: ('A' for Active; 'I' for Inactive)
REMARK    1  A    between atoms: C_2  and  C_3
REMARK    2  A    between atoms: C_7  and  C_8
REMARK    3  A    between atoms: C_12  and  C_13
REMARK    4  A    between atoms: C_13  and  N_14
REMARK    5  A    between atoms: C_18  and  C_19
REMARK                            x       y       z     vdW  Elec       q    Type
REMARK                         _______ _______ _______ _____ _____    ______ ____
ROOT
ATOM      1  C   UNL     1      47.141   6.573  12.541  0.00  0.00    +0.000 A 
ATOM      2  C   UNL     1      47.474   5.820  13.678  0.00  0.00    +0.000 A 
ATOM      3  C   UNL     1      46.725   4.700  14.052  0.00  0.00    +0.000 A 
ATOM      4  C   UNL     1      45.619   4.302  13.296  0.00  0.00    +0.000 A 
ATOM      5  C   UNL     1      45.242   5.016  12.154  0.00  0.00    +0.000 A 
ATOM      6  C   UNL     1      46.032   6.133  11.797  0.00  0.00    +0.000 A 
ENDROOT
BRANCH   1  11
ATOM      7  C   UNL     1      49.963   8.894  11.456  0.00  0.00    +0.000 A 
ATOM      8  C   UNL     1      49.329  10.136  11.464  0.00  0.00    +0.000 A 
ATOM      9  C   UNL     1      47.986  10.221  11.812  0.00  0.00    +0.000 A 
ATOM     10  C   UNL     1      47.275   9.063  12.144  0.00  0.00    +0.000 A 
ATOM     11  C   UNL     1      47.886   7.794  12.150  0.00  0.00    +0.000 A 
ATOM     12  C   UNL     1      49.248   7.737  11.801  0.00  0.00    +0.000 A 
BRANCH   7  14
ATOM     13  N   UNL     1      52.470   8.717  10.818  0.00  0.00    +0.000 NA
ATOM     14  C   UNL     1      51.351   8.797  11.106  0.00  0.00    +0.000 C 
ENDBRANCH   7  14
ENDBRANCH   1  11
BRANCH   5  15
ATOM     15  C   UNL     1      44.030   4.645  11.302  0.00  0.00    +0.000 C 
ATOM     16  C   UNL     1      42.698   5.086  11.916  0.00  0.00    +0.000 C 
ATOM     17  C   UNL     1      43.005   3.635  11.778  0.00  0.00    +0.000 C 
BRANCH  15  18
ATOM     18  N   UNL     1      44.231   4.879   9.859  0.00  0.00    +0.000 N 
ATOM     19  C   UNL     1      45.101   4.119   9.069  0.00  0.00    +0.000 A 
ATOM     20  C   UNL     1      45.321   2.748   9.224  0.00  0.00    +0.000 A 
ATOM     21  N   UNL     1      46.128   2.007   8.416  0.00  0.00    +0.000 NA
ATOM     22  C   UNL     1      46.718   2.692   7.410  0.00  0.00    +0.000 A 
ATOM     23  C   UNL     1      46.502   4.046   7.232  0.00  0.00    +0.000 A 
ATOM     24  N   UNL     1      45.697   4.778   8.049  0.00  0.00    +0.000 NA
ATOM     25  H   UNL     1      44.377   5.848   9.578  0.00  0.00    +0.000 HD
BRANCH  22  26
ATOM     26  C   UNL     1      47.584   1.959   6.535  0.00  0.00    +0.000 C 
ATOM     27  N   UNL     1      48.310   1.404   5.817  0.00  0.00    +0.000 NA
ENDBRANCH  22  26
ENDBRANCH  15  18
ENDBRANCH   5  15
TORSDOF 5
ENDMDL
MODEL 2
REMARK VINA RESULT:    -7.784      2.919      4.745
REMARK INTER + INTRA:         -10.848
REMARK INTER:                 -10.208
REMARK INTRA:                  -0.640
REMARK UNBOUND:                -0.789
REMARK  Name = 
REMARK  5 active torsions:
REMARK  status: ('A' for Active; 'I' for Inactive)
REMARK    1  A    between atoms: C_2  and  C_3
REMARK    2  A    between atoms: C_7  and  C_8
REMARK    3  A    between atoms: C_12  and  C_13
REMARK    4  A    between atoms: C_13  and  N_14
REMARK    5  A    between atoms: C_18  and  C_19
REMARK                            x       y       z     vdW  Elec       q    Type
REMARK                         _______ _______ _______ _____ _____    ______ ____
ROOT
ATOM      1  C   UNL     1      47.056   5.131  14.397  0.00  0.00    +0.000 A 
ATOM      2  C   UNL     1      47.799   6.176  13.826  0.00  0.00    +0.000 A 
ATOM      3  C   UNL     1      47.404   6.775  12.625  0.00  0.00    +0.000 A 
ATOM      4  C   UNL     1      46.252   6.344  11.963  0.00  0.00    +0.000 A 
ATOM      5  C   UNL     1      45.474   5.306  12.487  0.00  0.00    +0.000 A 
ATOM      6  C   UNL     1      45.895   4.735  13.710  0.00  0.00    +0.000 A 
ENDROOT
BRANCH   1  11
ATOM      7  C   UNL     1      48.003   4.496  18.034  0.00  0.00    +0.000 A 
ATOM      8  C   UNL     1      48.349   3.145  18.006  0.00  0.00    +0.000 A 
ATOM      9  C   UNL     1      48.267   2.438  16.812  0.00  0.00    +0.000 A 
ATOM     10  C   UNL     1      47.832   3.079  15.648  0.00  0.00    +0.000 A 
ATOM     11  C   UNL     1      47.478   4.443  15.641  0.00  0.00    +0.000 A 
ATOM     12  C   UNL     1      47.578   5.137  16.861  0.00  0.00    +0.000 A 
BRANCH   7  14
ATOM     13  N   UNL     1      48.164   5.830  20.251  0.00  0.00    +0.000 NA
ATOM     14  C   UNL     1      48.091   5.236  19.259  0.00  0.00    +0.000 C 
ENDBRANCH   7  14
ENDBRANCH   1  11
BRANCH   5  15
ATOM     15  C   UNL     1      44.220   4.774  11.798  0.00  0.00    +0.000 C 
ATOM     16  C   UNL     1      42.925   5.128  12.534  0.00  0.00    +0.000 C 
ATOM     17  C   UNL     1      43.356   3.706  12.438  0.00  0.00    +0.000 C 
BRANCH  15  18
ATOM     18  N   UNL     1      44.241   4.935  10.331  0.00  0.00    +0.000 N 
ATOM     19  C   UNL     1      45.012   4.137   9.479  0.00  0.00    +0.000 A 
ATOM     20  C   UNL     1      45.258   2.775   9.673  0.00  0.00    +0.000 A 
ATOM     21  N   UNL     1      45.965   1.995   8.811  0.00  0.00    +0.000 NA
ATOM     22  C   UNL     1      46.423   2.629   7.706  0.00  0.00    +0.000 A 
ATOM     23  C   UNL     1      46.177   3.972   7.489  0.00  0.00    +0.000 A 
ATOM     24  N   UNL     1      45.474   4.744   8.362  0.00  0.00    +0.000 NA
ATOM     25  H   UNL     1      44.344   5.889   9.986  0.00  0.00    +0.000 HD
BRANCH  22  26
ATOM     26  C   UNL     1      47.179   1.852   6.769  0.00  0.00    +0.000 C 
ATOM     27  N   UNL     1      47.832   1.242   6.027  0.00  0.00    +0.000 NA
ENDBRANCH  22  26
ENDBRANCH  15  18
ENDBRANCH   5  15
TORSDOF 5
ENDMDL
MODEL 3
REMARK VINA RESULT:    -7.265      2.954      7.200
REMARK INTER + INTRA:         -10.177
REMARK INTER:                 -10.320
REMARK INTRA:                   0.143
REMARK UNBOUND:                -0.789
REMARK  Name = 
REMARK  5 active torsions:
REMARK  status: ('A' for Active; 'I' for Inactive)
REMARK    1  A    between atoms: C_2  and  C_3
REMARK    2  A    between atoms: C_7  and  C_8
REMARK    3  A    between atoms: C_12  and  C_13
REMARK    4  A    between atoms: C_13  and  N_14
REMARK    5  A    between atoms: C_18  and  C_19
REMARK                            x       y       z     vdW  Elec       q    Type
REMARK                         _______ _______ _______ _____ _____    ______ ____
ROOT
ATOM      1  C   UNL     1      45.100   4.498   9.539  0.00  0.00    +0.000 A 
ATOM      2  C   UNL     1      43.803   4.178   9.969  0.00  0.00    +0.000 A 
ATOM      3  C   UNL     1      43.193   4.875  11.018  0.00  0.00    +0.000 A 
ATOM      4  C   UNL     1      43.868   5.912  11.666  0.00  0.00    +0.000 A 
ATOM      5  C   UNL     1      45.163   6.272  11.280  0.00  0.00    +0.000 A 
ATOM      6  C   UNL     1      45.741   5.557  10.205  0.00  0.00    +0.000 A 
ENDROOT
BRANCH   1  11
ATOM      7  C   UNL     1      46.580   1.628   7.513  0.00  0.00    +0.000 A 
ATOM      8  C   UNL     1      47.165   2.307   6.444  0.00  0.00    +0.000 A 
ATOM      9  C   UNL     1      47.073   3.692   6.375  0.00  0.00    +0.000 A 
ATOM     10  C   UNL     1      46.389   4.398   7.370  0.00  0.00    +0.000 A 
ATOM     11  C   UNL     1      45.790   3.744   8.465  0.00  0.00    +0.000 A 
ATOM     12  C   UNL     1      45.905   2.343   8.515  0.00  0.00    +0.000 A 
BRANCH   7  14
ATOM     13  N   UNL     1      46.749  -0.954   7.670  0.00  0.00    +0.000 NA
ATOM     14  C   UNL     1      46.675   0.199   7.598  0.00  0.00    +0.000 C 
ENDBRANCH   7  14
ENDBRANCH   1  11
BRANCH   5  15
ATOM     15  C   UNL     1      45.960   7.378  11.966  0.00  0.00    +0.000 C 
ATOM     16  C   UNL     1      45.088   8.353  12.763  0.00  0.00    +0.000 C 
ATOM     17  C   UNL     1      45.817   8.831  11.555  0.00  0.00    +0.000 C 
BRANCH  15  18
ATOM     18  N   UNL     1      47.207   6.902  12.595  0.00  0.00    +0.000 N 
ATOM     19  C   UNL     1      47.234   6.039  13.697  0.00  0.00    +0.000 A 
ATOM     20  C   UNL     1      46.327   4.998  13.912  0.00  0.00    +0.000 A 
ATOM     21  N   UNL     1      46.393   4.131  14.959  0.00  0.00    +0.000 NA
ATOM     22  C   UNL     1      47.430   4.330  15.805  0.00  0.00    +0.000 A 
ATOM     23  C   UNL     1      48.346   5.345  15.600  0.00  0.00    +0.000 A 
ATOM     24  N   UNL     1      48.266   6.211  14.554  0.00  0.00    +0.000 NA
ATOM     25  H   UNL     1      47.915   7.612  12.782  0.00  0.00    +0.000 HD
BRANCH  22  26
ATOM     26  C   UNL     1      47.540   3.446  16.928  0.00  0.00    +0.000 C 
ATOM     27  N   UNL     1      47.584   2.737  17.847  0.00  0.00    +0.000 NA
ENDBRANCH  22  26
ENDBRANCH  15  18
ENDBRANCH   5  15
TORSDOF 5
ENDMDL
MODEL 4
REMARK VINA RESULT:    -6.867      2.472      3.407
REMARK INTER + INTRA:          -9.663
REMARK INTER:                  -9.375
REMARK INTRA:                  -0.288
REMARK UNBOUND:                -0.789
REMARK  Name = 
REMARK  5 active torsions:
REMARK  status: ('A' for Active; 'I' for Inactive)
REMARK    1  A    between atoms: C_2  and  C_3
REMARK    2  A    between atoms: C_7  and  C_8
REMARK    3  A    between atoms: C_12  and  C_13
REMARK    4  A    between atoms: C_13  and  N_14
REMARK    5  A    between atoms: C_18  and  C_19
REMARK                            x       y       z     vdW  Elec       q    Type
REMARK                         _______ _______ _______ _____ _____    ______ ____
ROOT
ATOM      1  C   UNL     1      46.753   7.694  13.100  0.00  0.00    +0.000 A 
ATOM      2  C   UNL     1      46.395   8.975  12.653  0.00  0.00    +0.000 A 
ATOM      3  C   UNL     1      45.278   9.172  11.833  0.00  0.00    +0.000 A 
ATOM      4  C   UNL     1      44.489   8.089  11.439  0.00  0.00    +0.000 A 
ATOM      5  C   UNL     1      44.800   6.791  11.855  0.00  0.00    +0.000 A 
ATOM      6  C   UNL     1      45.926   6.632  12.696  0.00  0.00    +0.000 A 
ENDROOT
BRANCH   1  11
ATOM      7  C   UNL     1      49.076   6.304  15.784  0.00  0.00    +0.000 A 
ATOM      8  C   UNL     1      50.245   7.029  15.552  0.00  0.00    +0.000 A 
ATOM      9  C   UNL     1      50.284   7.961  14.521  0.00  0.00    +0.000 A 
ATOM     10  C   UNL     1      49.157   8.162  13.718  0.00  0.00    +0.000 A 
ATOM     11  C   UNL     1      47.959   7.450  13.927  0.00  0.00    +0.000 A 
ATOM     12  C   UNL     1      47.945   6.519  14.982  0.00  0.00    +0.000 A 
BRANCH   7  14
ATOM     13  N   UNL     1      48.984   4.574  17.713  0.00  0.00    +0.000 NA
ATOM     14  C   UNL     1      49.023   5.346  16.850  0.00  0.00    +0.000 C 
ENDBRANCH   7  14
ENDBRANCH   1  11
BRANCH   5  15
ATOM     15  C   UNL     1      43.991   5.565  11.438  0.00  0.00    +0.000 C 
ATOM     16  C   UNL     1      42.633   5.465  12.138  0.00  0.00    +0.000 C 
ATOM     17  C   UNL     1      43.684   4.447  12.415  0.00  0.00    +0.000 C 
BRANCH  15  18
ATOM     18  N   UNL     1      44.037   5.295   9.988  0.00  0.00    +0.000 N 
ATOM     19  C   UNL     1      44.721   4.211   9.426  0.00  0.00    +0.000 A 
ATOM     20  C   UNL     1      44.818   2.945  10.009  0.00  0.00    +0.000 A 
ATOM     21  N   UNL     1      45.440   1.882   9.430  0.00  0.00    +0.000 NA
ATOM     22  C   UNL     1      45.969   2.123   8.208  0.00  0.00    +0.000 A 
ATOM     23  C   UNL     1      45.871   3.365   7.609  0.00  0.00    +0.000 A 
ATOM     24  N   UNL     1      45.252   4.422   8.200  0.00  0.00    +0.000 NA
ATOM     25  H   UNL     1      44.244   6.094   9.389  0.00  0.00    +0.000 HD
BRANCH  22  26
ATOM     26  C   UNL     1      46.642   1.037   7.558  0.00  0.00    +0.000 C 
ATOM     27  N   UNL     1      47.153   0.129   7.044  0.00  0.00    +0.000 NA
ENDBRANCH  22  26
ENDBRANCH  15  18
ENDBRANCH   5  15
TORSDOF 5
ENDMDL
MODEL 5
REMARK VINA RESULT:    -6.548      3.459      7.926
REMARK INTER + INTRA:          -9.251
REMARK INTER:                  -8.388
REMARK INTRA:                  -0.863
REMARK UNBOUND:                -0.789
REMARK  Name = 
REMARK  5 active torsions:
REMARK  status: ('A' for Active; 'I' for Inactive)
REMARK    1  A    between atoms: C_2  and  C_3
REMARK    2  A    between atoms: C_7  and  C_8
REMARK    3  A    between atoms: C_12  and  C_13
REMARK    4  A    between atoms: C_13  and  N_14
REMARK    5  A    between atoms: C_18  and  C_19
REMARK                            x       y       z     vdW  Elec       q    Type
REMARK                         _______ _______ _______ _____ _____    ______ ____
ROOT
ATOM      1  C   UNL     1      45.755   6.824  11.422  0.00  0.00    +0.000 A 
ATOM      2  C   UNL     1      44.843   7.824  11.790  0.00  0.00    +0.000 A 
ATOM      3  C   UNL     1      45.272   9.017  12.382  0.00  0.00    +0.000 A 
ATOM      4  C   UNL     1      46.630   9.239  12.622  0.00  0.00    +0.000 A 
ATOM      5  C   UNL     1      47.583   8.277  12.276  0.00  0.00    +0.000 A 
ATOM      6  C   UNL     1      47.114   7.091  11.664  0.00  0.00    +0.000 A 
ENDROOT
BRANCH   1  11
ATOM      7  C   UNL     1      45.302   3.927   8.986  0.00  0.00    +0.000 A 
ATOM      8  C   UNL     1      44.448   3.086   9.700  0.00  0.00    +0.000 A 
ATOM      9  C   UNL     1      44.027   3.452  10.973  0.00  0.00    +0.000 A 
ATOM     10  C   UNL     1      44.465   4.655  11.535  0.00  0.00    +0.000 A 
ATOM     11  C   UNL     1      45.324   5.530  10.840  0.00  0.00    +0.000 A 
ATOM     12  C   UNL     1      45.729   5.138   9.551  0.00  0.00    +0.000 A 
BRANCH   7  14
ATOM     13  N   UNL     1      46.091   3.268   6.607  0.00  0.00    +0.000 NA
ATOM     14  C   UNL     1      45.736   3.562   7.669  0.00  0.00    +0.000 C 
ENDBRANCH   7  14
ENDBRANCH   1  11
BRANCH   5  15
ATOM     15  C   UNL     1      49.077   8.452  12.535  0.00  0.00    +0.000 C 
ATOM     16  C   UNL     1      49.809   9.183  11.406  0.00  0.00    +0.000 C 
ATOM     17  C   UNL     1      50.118   7.752  11.682  0.00  0.00    +0.000 C 
BRANCH  15  18
ATOM     18  N   UNL     1      49.393   8.843  13.923  0.00  0.00    +0.000 N 
ATOM     19  C   UNL     1      49.121   8.034  15.032  0.00  0.00    +0.000 A 
ATOM     20  C   UNL     1      49.221   6.640  15.042  0.00  0.00    +0.000 A 
ATOM     21  N   UNL     1      49.007   5.866  16.141  0.00  0.00    +0.000 NA
ATOM     22  C   UNL     1      48.692   6.545  17.269  0.00  0.00    +0.000 A 
ATOM     23  C   UNL     1      48.603   7.924  17.282  0.00  0.00    +0.000 A 
ATOM     24  N   UNL     1      48.814   8.688  16.175  0.00  0.00    +0.000 NA
ATOM     25  H   UNL     1      49.121   9.787  14.195  0.00  0.00    +0.000 HD
BRANCH  22  26
ATOM     26  C   UNL     1      48.450   5.774  18.453  0.00  0.00    +0.000 C 
ATOM     27  N   UNL     1      48.229   5.120  19.387  0.00  0.00    +0.000 NA
ENDBRANCH  22  26
ENDBRANCH  15  18
ENDBRANCH   5  15
TORSDOF 5
ENDMDL
MODEL 6
REMARK VINA RESULT:    -6.484      4.255      7.746
REMARK INTER + INTRA:          -9.169
REMARK INTER:                  -8.376
REMARK INTRA:                  -0.793
REMARK UNBOUND:                -0.789
REMARK  Name = 
REMARK  5 active torsions:
REMARK  status: ('A' for Active; 'I' for Inactive)
REMARK    1  A    between atoms: C_2  and  C_3
REMARK    2  A    between atoms: C_7  and  C_8
REMARK    3  A    between atoms: C_12  and  C_13
REMARK    4  A    between atoms: C_13  and  N_14
REMARK    5  A    between atoms: C_18  and  C_19
REMARK                            x       y       z     vdW  Elec       q    Type
REMARK                         _______ _______ _______ _____ _____    ______ ____
ROOT
ATOM      1  C   UNL     1      47.307   6.920  12.567  0.00  0.00    +0.000 A 
ATOM      2  C   UNL     1      48.311   7.392  11.707  0.00  0.00    +0.000 A 
ATOM      3  C   UNL     1      49.437   8.058  12.202  0.00  0.00    +0.000 A 
ATOM      4  C   UNL     1      49.587   8.271  13.575  0.00  0.00    +0.000 A 
ATOM      5  C   UNL     1      48.618   7.822  14.477  0.00  0.00    +0.000 A 
ATOM      6  C   UNL     1      47.502   7.138  13.942  0.00  0.00    +0.000 A 
ENDROOT
BRANCH   1  11
ATOM      7  C   UNL     1      44.873   5.052  10.305  0.00  0.00    +0.000 A 
ATOM      8  C   UNL     1      43.714   5.043  11.080  0.00  0.00    +0.000 A 
ATOM      9  C   UNL     1      43.723   5.634  12.339  0.00  0.00    +0.000 A 
ATOM     10  C   UNL     1      44.892   6.226  12.824  0.00  0.00    +0.000 A 
ATOM     11  C   UNL     1      46.080   6.256  12.066  0.00  0.00    +0.000 A 
ATOM     12  C   UNL     1      46.041   5.658  10.793  0.00  0.00    +0.000 A 
BRANCH   7  14
ATOM     13  N   UNL     1      44.867   3.965   7.952  0.00  0.00    +0.000 NA
ATOM     14  C   UNL     1      44.872   4.452   9.002  0.00  0.00    +0.000 C 
ENDBRANCH   7  14
ENDBRANCH   1  11
BRANCH   5  15
ATOM     15  C   UNL     1      48.714   8.046  15.984  0.00  0.00    +0.000 C 
ATOM     16  C   UNL     1      48.303   9.456  16.417  0.00  0.00    +0.000 C 
ATOM     17  C   UNL     1      49.716   9.015  16.580  0.00  0.00    +0.000 C 
BRANCH  15  18
ATOM     18  N   UNL     1      48.212   6.910  16.781  0.00  0.00    +0.000 N 
ATOM     19  C   UNL     1      48.886   5.688  16.891  0.00  0.00    +0.000 A 
ATOM     20  C   UNL     1      50.275   5.549  16.941  0.00  0.00    +0.000 A 
ATOM     21  N   UNL     1      50.920   4.361  17.102  0.00  0.00    +0.000 NA
ATOM     22  C   UNL     1      50.112   3.282  17.228  0.00  0.00    +0.000 A 
ATOM     23  C   UNL     1      48.735   3.402  17.196  0.00  0.00    +0.000 A 
ATOM     24  N   UNL     1      48.102   4.594  17.029  0.00  0.00    +0.000 NA
ATOM     25  H   UNL     1      47.229   6.674  16.656  0.00  0.00    +0.000 HD
BRANCH  22  26
ATOM     26  C   UNL     1      50.742   2.006  17.393  0.00  0.00    +0.000 C 
ATOM     27  N   UNL     1      51.293   0.991  17.516  0.00  0.00    +0.000 NA
ENDBRANCH  22  26
ENDBRANCH  15  18
ENDBRANCH   5  15
TORSDOF 5
ENDMDL
MODEL 7
REMARK VINA RESULT:    -6.136      3.052      7.568
REMARK INTER + INTRA:          -8.718
REMARK INTER:                  -8.555
REMARK INTRA:                  -0.162
REMARK UNBOUND:                -0.789
REMARK  Name = 
REMARK  5 active torsions:
REMARK  status: ('A' for Active; 'I' for Inactive)
REMARK    1  A    between atoms: C_2  and  C_3
REMARK    2  A    between atoms: C_7  and  C_8
REMARK    3  A    between atoms: C_12  and  C_13
REMARK    4  A    between atoms: C_13  and  N_14
REMARK    5  A    between atoms: C_18  and  C_19
REMARK                            x       y       z     vdW  Elec       q    Type
REMARK                         _______ _______ _______ _____ _____    ______ ____
ROOT
ATOM      1  C   UNL     1      45.833   6.863  11.371  0.00  0.00    +0.000 A 
ATOM      2  C   UNL     1      44.915   7.812  11.847  0.00  0.00    +0.000 A 
ATOM      3  C   UNL     1      45.338   8.923  12.585  0.00  0.00    +0.000 A 
ATOM      4  C   UNL     1      46.693   9.114  12.865  0.00  0.00    +0.000 A 
ATOM      5  C   UNL     1      47.650   8.200  12.416  0.00  0.00    +0.000 A 
ATOM      6  C   UNL     1      47.189   7.097  11.659  0.00  0.00    +0.000 A 
ENDROOT
BRANCH   1  11
ATOM      7  C   UNL     1      44.284   3.474  10.569  0.00  0.00    +0.000 A 
ATOM      8  C   UNL     1      44.655   3.299   9.236  0.00  0.00    +0.000 A 
ATOM      9  C   UNL     1      45.399   4.283   8.594  0.00  0.00    +0.000 A 
ATOM     10  C   UNL     1      45.765   5.443   9.283  0.00  0.00    +0.000 A 
ATOM     11  C   UNL     1      45.410   5.650  10.631  0.00  0.00    +0.000 A 
ATOM     12  C   UNL     1      44.664   4.635  11.259  0.00  0.00    +0.000 A 
BRANCH   7  14
ATOM     13  N   UNL     1      42.910   1.645  11.791  0.00  0.00    +0.000 NA
ATOM     14  C   UNL     1      43.523   2.461  11.243  0.00  0.00    +0.000 C 
ENDBRANCH   7  14
ENDBRANCH   1  11
BRANCH   5  15
ATOM     15  C   UNL     1      49.141   8.341  12.711  0.00  0.00    +0.000 C 
ATOM     16  C   UNL     1      49.750   9.637  12.166  0.00  0.00    +0.000 C 
ATOM     17  C   UNL     1      50.175   8.325  11.602  0.00  0.00    +0.000 C 
BRANCH  15  18
ATOM     18  N   UNL     1      49.511   7.932  14.080  0.00  0.00    +0.000 N 
ATOM     19  C   UNL     1      48.881   6.890  14.770  0.00  0.00    +0.000 A 
ATOM     20  C   UNL     1      48.417   5.712  14.179  0.00  0.00    +0.000 A 
ATOM     21  N   UNL     1      47.854   4.682  14.867  0.00  0.00    +0.000 NA
ATOM     22  C   UNL     1      47.776   4.860  16.206  0.00  0.00    +0.000 A 
ATOM     23  C   UNL     1      48.243   6.013  16.811  0.00  0.00    +0.000 A 
ATOM     24  N   UNL     1      48.799   7.039  16.112  0.00  0.00    +0.000 NA
ATOM     25  H   UNL     1      49.625   8.685  14.758  0.00  0.00    +0.000 HD
BRANCH  22  26
ATOM     26  C   UNL     1      47.184   3.806  16.976  0.00  0.00    +0.000 C 
ATOM     27  N   UNL     1      46.662   2.968  17.587  0.00  0.00    +0.000 NA
ENDBRANCH  22  26
ENDBRANCH  15  18
ENDBRANCH   5  15
TORSDOF 5
ENDMDL
MODEL 8
REMARK VINA RESULT:    -5.915      5.186      8.296
REMARK INTER + INTRA:          -8.433
REMARK INTER:                  -7.720
REMARK INTRA:                  -0.713
REMARK UNBOUND:                -0.789
REMARK  Name = 
REMARK  5 active torsions:
REMARK  status: ('A' for Active; 'I' for Inactive)
REMARK    1  A    between atoms: C_2  and  C_3
REMARK    2  A    between atoms: C_7  and  C_8
REMARK    3  A    between atoms: C_12  and  C_13
REMARK    4  A    between atoms: C_13  and  N_14
REMARK    5  A    between atoms: C_18  and  C_19
REMARK                            x       y       z     vdW  Elec       q    Type
REMARK                         _______ _______ _______ _____ _____    ______ ____
ROOT
ATOM      1  C   UNL     1      48.156   6.746  13.777  0.00  0.00    +0.000 A 
ATOM      2  C   UNL     1      49.271   7.429  13.267  0.00  0.00    +0.000 A 
ATOM      3  C   UNL     1      50.362   7.746  14.083  0.00  0.00    +0.000 A 
ATOM      4  C   UNL     1      50.366   7.388  15.433  0.00  0.00    +0.000 A 
ATOM      5  C   UNL     1      49.281   6.707  15.993  0.00  0.00    +0.000 A 
ATOM      6  C   UNL     1      48.203   6.388  15.135  0.00  0.00    +0.000 A 
ENDROOT
BRANCH   1  11
ATOM      7  C   UNL     1      45.138   4.936  12.313  0.00  0.00    +0.000 A 
ATOM      8  C   UNL     1      44.725   5.826  11.321  0.00  0.00    +0.000 A 
ATOM      9  C   UNL     1      45.419   7.016  11.133  0.00  0.00    +0.000 A 
ATOM     10  C   UNL     1      46.519   7.319  11.941  0.00  0.00    +0.000 A 
ATOM     11  C   UNL     1      46.964   6.441  12.948  0.00  0.00    +0.000 A 
ATOM     12  C   UNL     1      46.249   5.240  13.112  0.00  0.00    +0.000 A 
BRANCH   7  14
ATOM     13  N   UNL     1      43.861   2.708  12.671  0.00  0.00    +0.000 NA
ATOM     14  C   UNL     1      44.433   3.702  12.510  0.00  0.00    +0.000 C 
ENDBRANCH   7  14
ENDBRANCH   1  11
BRANCH   5  15
ATOM     15  C   UNL     1      49.215   6.311  17.466  0.00  0.00    +0.000 C 
ATOM     16  C   UNL     1      48.374   7.269  18.317  0.00  0.00    +0.000 C 
ATOM     17  C   UNL     1      49.842   7.170  18.547  0.00  0.00    +0.000 C 
BRANCH  15  18
ATOM     18  N   UNL     1      49.031   4.863  17.679  0.00  0.00    +0.000 N 
ATOM     19  C   UNL     1      50.078   3.935  17.619  0.00  0.00    +0.000 A 
ATOM     20  C   UNL     1      51.381   4.179  18.060  0.00  0.00    +0.000 A 
ATOM     21  N   UNL     1      52.379   3.254  18.046  0.00  0.00    +0.000 NA
ATOM     22  C   UNL     1      52.024   2.035  17.578  0.00  0.00    +0.000 A 
ATOM     23  C   UNL     1      50.736   1.770  17.151  0.00  0.00    +0.000 A 
ATOM     24  N   UNL     1      49.748   2.705  17.163  0.00  0.00    +0.000 NA
ATOM     25  H   UNL     1      48.251   4.432  17.184  0.00  0.00    +0.000 HD
BRANCH  22  26
ATOM     26  C   UNL     1      53.041   1.026  17.536  0.00  0.00    +0.000 C 
ATOM     27  N   UNL     1      53.866   0.208  17.550  0.00  0.00    +0.000 NA
ENDBRANCH  22  26
ENDBRANCH  15  18
ENDBRANCH   5  15
TORSDOF 5
ENDMDL
MODEL 9
REMARK VINA RESULT:    -5.541      3.208      5.706
REMARK INTER + INTRA:          -7.949
REMARK INTER:                  -7.700
REMARK INTRA:                  -0.250
REMARK UNBOUND:                -0.789
REMARK  Name = 
REMARK  5 active torsions:
REMARK  status: ('A' for Active; 'I' for Inactive)
REMARK    1  A    between atoms: C_2  and  C_3
REMARK    2  A    between atoms: C_7  and  C_8
REMARK    3  A    between atoms: C_12  and  C_13
REMARK    4  A    between atoms: C_13  and  N_14
REMARK    5  A    between atoms: C_18  and  C_19
REMARK                            x       y       z     vdW  Elec       q    Type
REMARK                         _______ _______ _______ _____ _____    ______ ____
ROOT
ATOM      1  C   UNL     1      50.874   8.506  11.317  0.00  0.00    +0.000 A 
ATOM      2  C   UNL     1      50.411   9.755  10.875  0.00  0.00    +0.000 A 
ATOM      3  C   UNL     1      49.233  10.313  11.382  0.00  0.00    +0.000 A 
ATOM      4  C   UNL     1      48.484   9.634  12.346  0.00  0.00    +0.000 A 
ATOM      5  C   UNL     1      48.898   8.386  12.821  0.00  0.00    +0.000 A 
ATOM      6  C   UNL     1      50.103   7.860  12.299  0.00  0.00    +0.000 A 
ENDROOT
BRANCH   1  11
ATOM      7  C   UNL     1      53.208   6.572   9.006  0.00  0.00    +0.000 A 
ATOM      8  C   UNL     1      54.402   6.590   9.728  0.00  0.00    +0.000 A 
ATOM      9  C   UNL     1      54.453   7.236  10.958  0.00  0.00    +0.000 A 
ATOM     10  C   UNL     1      53.313   7.870  11.462  0.00  0.00    +0.000 A 
ATOM     11  C   UNL     1      52.091   7.868  10.761  0.00  0.00    +0.000 A 
ATOM     12  C   UNL     1      52.065   7.200   9.523  0.00  0.00    +0.000 A 
BRANCH   7  14
ATOM     13  N   UNL     1      53.094   5.365   6.715  0.00  0.00    +0.000 NA
ATOM     14  C   UNL     1      53.143   5.902   7.740  0.00  0.00    +0.000 C 
ENDBRANCH   7  14
ENDBRANCH   1  11
BRANCH   5  15
ATOM     15  C   UNL     1      48.110   7.584  13.854  0.00  0.00    +0.000 C 
ATOM     16  C   UNL     1      48.572   7.828  15.294  0.00  0.00    +0.000 C 
ATOM     17  C   UNL     1      48.763   6.487  14.673  0.00  0.00    +0.000 C 
BRANCH  15  18
ATOM     18  N   UNL     1      46.658   7.556  13.595  0.00  0.00    +0.000 N 
ATOM     19  C   UNL     1      45.972   6.410  13.174  0.00  0.00    +0.000 A 
ATOM     20  C   UNL     1      46.267   5.110  13.592  0.00  0.00    +0.000 A 
ATOM     21  N   UNL     1      45.560   4.008  13.219  0.00  0.00    +0.000 NA
ATOM     22  C   UNL     1      44.509   4.250  12.401  0.00  0.00    +0.000 A 
ATOM     23  C   UNL     1      44.193   5.532  11.989  0.00  0.00    +0.000 A 
ATOM     24  N   UNL     1      44.911   6.625  12.364  0.00  0.00    +0.000 NA
ATOM     25  H   UNL     1      46.287   8.322  13.035  0.00  0.00    +0.000 HD
BRANCH  22  26
ATOM     26  C   UNL     1      43.736   3.122  11.973  0.00  0.00    +0.000 C 
ATOM     27  N   UNL     1      43.072   2.227  11.645  0.00  0.00    +0.000 NA
ENDBRANCH  22  26
ENDBRANCH  15  18
ENDBRANCH   5  15
TORSDOF 5
ENDMDL
