MODEL 1
REMARK VINA RESULT:    -7.205      0.000      0.000
REMARK INTER + INTRA:          -9.684
REMARK INTER:                  -9.101
REMARK INTRA:                  -0.583
REMARK UNBOUND:                -0.583
REMARK  Name = 
REMARK  5 active torsions:
REMARK  status: ('A' for Active; 'I' for Inactive)
REMARK    1  A    between atoms: N_1  and  C_2
REMARK    2  A    between atoms: C_2  and  C_3
REMARK    3  A    between atoms: C_6  and  N_7
REMARK    4  A    between atoms: N_7  and  C_8
REMARK    5  A    between atoms: C_8  and  C_9
REMARK                            x       y       z     vdW  Elec       q    Type
REMARK                         _______ _______ _______ _____ _____    ______ ____
ROOT
ATOM      1  C   UNL     1      46.271   2.064   7.868  0.00  0.00    +0.000 A 
ATOM      2  C   UNL     1      45.307   1.664   8.803  0.00  0.00    +0.000 A 
ATOM      3  C   UNL     1      44.513   2.610   9.463  0.00  0.00    +0.000 A 
ATOM      4  C   UNL     1      44.686   3.975   9.226  0.00  0.00    +0.000 A 
ATOM      5  C   UNL     1      45.579   4.364   8.222  0.00  0.00    +0.000 A 
ATOM      6  C   UNL     1      46.379   3.425   7.564  0.00  0.00    +0.000 A 
ENDROOT
BRANCH   4   7
ATOM      7  N   UNL     1      43.969   4.979   9.886  0.00  0.00    +0.000 N 
ATOM      8  H   UNL     1      43.098   5.177   9.398  0.00  0.00    +0.000 HD
BRANCH   7   9
ATOM      9  C   UNL     1      43.771   4.841  11.322  0.00  0.00    +0.000 C 
BRANCH   9  10
ATOM     10  C   UNL     1      45.105   4.945  12.021  0.00  0.00    +0.000 A 
ATOM     11  C   UNL     1      45.900   6.088  11.912  0.00  0.00    +0.000 A 
ATOM     12  C   UNL     1      47.091   6.138  12.619  0.00  0.00    +0.000 A 
ATOM     13  N   UNL     1      47.535   5.144  13.420  0.00  0.00    +0.000 NA
ATOM     14  C   UNL     1      46.755   4.047  13.512  0.00  0.00    +0.000 A 
ATOM     15  C   UNL     1      45.551   3.903  12.844  0.00  0.00    +0.000 A 
ENDBRANCH   9  10
ENDBRANCH   7   9
ENDBRANCH   4   7
BRANCH   1  16
ATOM     16  C   UNL     1      47.208   1.059   7.249  0.00  0.00    +0.000 C 
BRANCH  16  17
ATOM     17  N   UNL     1      46.920  -0.303   7.681  0.00  0.00    +0.000 NA
ATOM     18  H   UNL     1      46.913  -0.911   6.865  0.00  0.00    +0.000 HD
ATOM     19  H   UNL     1      45.978  -0.328   8.067  0.00  0.00    +0.000 HD
ENDBRANCH  16  17
ENDBRANCH   1  16
TORSDOF 5
ENDMDL
MODEL 2
REMARK VINA RESULT:    -7.089      1.277      5.475
REMARK INTER + INTRA:          -9.538
REMARK INTER:                  -9.051
REMARK INTRA:                  -0.487
REMARK UNBOUND:                -0.583
REMARK  Name = 
REMARK  5 active torsions:
REMARK  status: ('A' for Active; 'I' for Inactive)
REMARK    1  A    between atoms: N_1  and  C_2
REMARK    2  A    between atoms: C_2  and  C_3
REMARK    3  A    between atoms: C_6  and  N_7
REMARK    4  A    between atoms: N_7  and  C_8
REMARK    5  A    between atoms: C_8  and  C_9
REMARK                            x       y       z     vdW  Elec       q    Type
REMARK                         _______ _______ _______ _____ _____    ______ ____
ROOT
ATOM      1  C   UNL     1      46.080   4.714  12.931  0.00  0.00    +0.000 A 
ATOM      2  C   UNL     1      46.290   5.856  12.147  0.00  0.00    +0.000 A 
ATOM      3  C   UNL     1      45.853   5.902  10.818  0.00  0.00    +0.000 A 
ATOM      4  C   UNL     1      45.226   4.799  10.234  0.00  0.00    +0.000 A 
ATOM      5  C   UNL     1      44.931   3.700  11.047  0.00  0.00    +0.000 A 
ATOM      6  C   UNL     1      45.370   3.645  12.374  0.00  0.00    +0.000 A 
ENDROOT
BRANCH   4   7
ATOM      7  N   UNL     1      44.811   4.752   8.899  0.00  0.00    +0.000 N 
ATOM      8  H   UNL     1      45.466   5.253   8.302  0.00  0.00    +0.000 HD
BRANCH   7   9
ATOM      9  C   UNL     1      44.452   3.454   8.344  0.00  0.00    +0.000 C 
BRANCH   9  10
ATOM     10  C   UNL     1      45.690   2.784   7.799  0.00  0.00    +0.000 A 
ATOM     11  C   UNL     1      46.616   3.484   7.021  0.00  0.00    +0.000 A 
ATOM     12  C   UNL     1      47.757   2.822   6.593  0.00  0.00    +0.000 A 
ATOM     13  N   UNL     1      48.036   1.533   6.886  0.00  0.00    +0.000 NA
ATOM     14  C   UNL     1      47.129   0.873   7.636  0.00  0.00    +0.000 A 
ATOM     15  C   UNL     1      45.961   1.446   8.109  0.00  0.00    +0.000 A 
ENDBRANCH   9  10
ENDBRANCH   7   9
ENDBRANCH   4   7
BRANCH   1  16
ATOM     16  C   UNL     1      46.656   4.615  14.320  0.00  0.00    +0.000 C 
BRANCH  16  17
ATOM     17  N   UNL     1      47.313   3.336  14.555  0.00  0.00    +0.000 NA
ATOM     18  H   UNL     1      46.612   2.655  14.843  0.00  0.00    +0.000 HD
ATOM     19  H   UNL     1      47.953   3.439  15.340  0.00  0.00    +0.000 HD
ENDBRANCH  16  17
ENDBRANCH   1  16
TORSDOF 5
ENDMDL
MODEL 3
REMARK VINA RESULT:    -5.255      3.636      7.763
REMARK INTER + INTRA:          -7.221
REMARK INTER:                  -6.907
REMARK INTRA:                  -0.315
REMARK UNBOUND:                -0.583
REMARK  Name = 
REMARK  5 active torsions:
REMARK  status: ('A' for Active; 'I' for Inactive)
REMARK    1  A    between atoms: N_1  and  C_2
REMARK    2  A    between atoms: C_2  and  C_3
REMARK    3  A    between atoms: C_6  and  N_7
REMARK    4  A    between atoms: N_7  and  C_8
REMARK    5  A    between atoms: C_8  and  C_9
REMARK                            x       y       z     vdW  Elec       q    Type
REMARK                         _______ _______ _______ _____ _____    ______ ____
ROOT
ATOM      1  C   UNL     1      48.735   4.280  18.260  0.00  0.00    +0.000 A 
ATOM      2  C   UNL     1      48.662   2.977  17.747  0.00  0.00    +0.000 A 
ATOM      3  C   UNL     1      48.092   2.733  16.492  0.00  0.00    +0.000 A 
ATOM      4  C   UNL     1      47.555   3.778  15.736  0.00  0.00    +0.000 A 
ATOM      5  C   UNL     1      47.718   5.085  16.207  0.00  0.00    +0.000 A 
ATOM      6  C   UNL     1      48.281   5.336  17.462  0.00  0.00    +0.000 A 
ENDROOT
BRANCH   4   7
ATOM      7  N   UNL     1      46.923   3.604  14.500  0.00  0.00    +0.000 N 
ATOM      8  H   UNL     1      46.160   2.936  14.579  0.00  0.00    +0.000 HD
BRANCH   7   9
ATOM      9  C   UNL     1      46.529   4.799  13.765  0.00  0.00    +0.000 C 
BRANCH   9  10
ATOM     10  C   UNL     1      45.287   4.502  12.961  0.00  0.00    +0.000 A 
ATOM     11  C   UNL     1      44.189   5.366  12.967  0.00  0.00    +0.000 A 
ATOM     12  C   UNL     1      43.099   5.059  12.168  0.00  0.00    +0.000 A 
ATOM     13  N   UNL     1      43.030   3.970  11.372  0.00  0.00    +0.000 NA
ATOM     14  C   UNL     1      44.098   3.145  11.381  0.00  0.00    +0.000 A 
ATOM     15  C   UNL     1      45.231   3.365  12.145  0.00  0.00    +0.000 A 
ENDBRANCH   9  10
ENDBRANCH   7   9
ENDBRANCH   4   7
BRANCH   1  16
ATOM     16  C   UNL     1      49.234   4.530  19.659  0.00  0.00    +0.000 C 
BRANCH  16  17
ATOM     17  N   UNL     1      48.478   3.784  20.657  0.00  0.00    +0.000 NA
ATOM     18  H   UNL     1      48.026   4.443  21.287  0.00  0.00    +0.000 HD
ATOM     19  H   UNL     1      49.132   3.246  21.223  0.00  0.00    +0.000 HD
ENDBRANCH  16  17
ENDBRANCH   1  16
TORSDOF 5
ENDMDL
MODEL 4
REMARK VINA RESULT:    -5.247      1.652      5.993
REMARK INTER + INTRA:          -7.211
REMARK INTER:                  -6.871
REMARK INTRA:                  -0.339
REMARK UNBOUND:                -0.583
REMARK  Name = 
REMARK  5 active torsions:
REMARK  status: ('A' for Active; 'I' for Inactive)
REMARK    1  A    between atoms: N_1  and  C_2
REMARK    2  A    between atoms: C_2  and  C_3
REMARK    3  A    between atoms: C_6  and  N_7
REMARK    4  A    between atoms: N_7  and  C_8
REMARK    5  A    between atoms: C_8  and  C_9
REMARK                            x       y       z     vdW  Elec       q    Type
REMARK                         _______ _______ _______ _____ _____    ______ ____
ROOT
ATOM      1  C   UNL     1      46.138   6.886  12.653  0.00  0.00    +0.000 A 
ATOM      2  C   UNL     1      46.304   5.507  12.835  0.00  0.00    +0.000 A 
ATOM      3  C   UNL     1      45.644   4.591  12.007  0.00  0.00    +0.000 A 
ATOM      4  C   UNL     1      44.781   5.031  11.001  0.00  0.00    +0.000 A 
ATOM      5  C   UNL     1      44.694   6.407  10.761  0.00  0.00    +0.000 A 
ATOM      6  C   UNL     1      45.346   7.327  11.587  0.00  0.00    +0.000 A 
ENDROOT
BRANCH   4   7
ATOM      7  N   UNL     1      44.047   4.176  10.172  0.00  0.00    +0.000 N 
ATOM      8  H   UNL     1      43.885   4.609   9.265  0.00  0.00    +0.000 HD
BRANCH   7   9
ATOM      9  C   UNL     1      44.501   2.798  10.045  0.00  0.00    +0.000 C 
BRANCH   9  10
ATOM     10  C   UNL     1      45.407   2.680   8.844  0.00  0.00    +0.000 A 
ATOM     11  C   UNL     1      45.965   1.456   8.467  0.00  0.00    +0.000 A 
ATOM     12  C   UNL     1      46.749   1.408   7.325  0.00  0.00    +0.000 A 
ATOM     13  N   UNL     1      47.008   2.478   6.542  0.00  0.00    +0.000 NA
ATOM     14  C   UNL     1      46.463   3.653   6.923  0.00  0.00    +0.000 A 
ATOM     15  C   UNL     1      45.669   3.802   8.047  0.00  0.00    +0.000 A 
ENDBRANCH   9  10
ENDBRANCH   7   9
ENDBRANCH   4   7
BRANCH   1  16
ATOM     16  C   UNL     1      46.748   7.870  13.617  0.00  0.00    +0.000 C 
BRANCH  16  17
ATOM     17  N   UNL     1      46.553   9.251  13.194  0.00  0.00    +0.000 NA
ATOM     18  H   UNL     1      47.142   9.432  12.383  0.00  0.00    +0.000 HD
ATOM     19  H   UNL     1      46.884   9.868  13.934  0.00  0.00    +0.000 HD
ENDBRANCH  16  17
ENDBRANCH   1  16
TORSDOF 5
ENDMDL
MODEL 5
REMARK VINA RESULT:    -5.068      2.702      4.222
REMARK INTER + INTRA:          -6.984
REMARK INTER:                  -6.640
REMARK INTRA:                  -0.344
REMARK UNBOUND:                -0.583
REMARK  Name = 
REMARK  5 active torsions:
REMARK  status: ('A' for Active; 'I' for Inactive)
REMARK    1  A    between atoms: N_1  and  C_2
REMARK    2  A    between atoms: C_2  and  C_3
REMARK    3  A    between atoms: C_6  and  N_7
REMARK    4  A    between atoms: N_7  and  C_8
REMARK    5  A    between atoms: C_8  and  C_9
REMARK                            x       y       z     vdW  Elec       q    Type
REMARK                         _______ _______ _______ _____ _____    ______ ____
ROOT
ATOM      1  C   UNL     1      45.064   4.322   9.960  0.00  0.00    +0.000 A 
ATOM      2  C   UNL     1      44.768   3.368  10.942  0.00  0.00    +0.000 A 
ATOM      3  C   UNL     1      45.036   3.623  12.292  0.00  0.00    +0.000 A 
ATOM      4  C   UNL     1      45.634   4.822  12.687  0.00  0.00    +0.000 A 
ATOM      5  C   UNL     1      45.838   5.809  11.717  0.00  0.00    +0.000 A 
ATOM      6  C   UNL     1      45.577   5.559  10.366  0.00  0.00    +0.000 A 
ENDROOT
BRANCH   4   7
ATOM      7  N   UNL     1      45.980   5.124  14.008  0.00  0.00    +0.000 N 
ATOM      8  H   UNL     1      45.621   4.415  14.644  0.00  0.00    +0.000 HD
BRANCH   7   9
ATOM      9  C   UNL     1      47.371   5.454  14.287  0.00  0.00    +0.000 C 
BRANCH   9  10
ATOM     10  C   UNL     1      47.743   4.932  15.653  0.00  0.00    +0.000 A 
ATOM     11  C   UNL     1      48.600   5.641  16.498  0.00  0.00    +0.000 A 
ATOM     12  C   UNL     1      48.861   5.129  17.760  0.00  0.00    +0.000 A 
ATOM     13  N   UNL     1      48.333   3.978  18.231  0.00  0.00    +0.000 NA
ATOM     14  C   UNL     1      47.510   3.305  17.399  0.00  0.00    +0.000 A 
ATOM     15  C   UNL     1      47.190   3.734  16.123  0.00  0.00    +0.000 A 
ENDBRANCH   9  10
ENDBRANCH   7   9
ENDBRANCH   4   7
BRANCH   1  16
ATOM     16  C   UNL     1      44.891   4.003   8.497  0.00  0.00    +0.000 C 
BRANCH  16  17
ATOM     17  N   UNL     1      46.026   4.447   7.698  0.00  0.00    +0.000 NA
ATOM     18  H   UNL     1      46.875   4.349   8.250  0.00  0.00    +0.000 HD
ATOM     19  H   UNL     1      45.919   5.441   7.507  0.00  0.00    +0.000 HD
ENDBRANCH  16  17
ENDBRANCH   1  16
TORSDOF 5
ENDMDL
MODEL 6
REMARK VINA RESULT:    -5.018      1.990      2.533
REMARK INTER + INTRA:          -6.922
REMARK INTER:                  -6.695
REMARK INTRA:                  -0.227
REMARK UNBOUND:                -0.583
REMARK  Name = 
REMARK  5 active torsions:
REMARK  status: ('A' for Active; 'I' for Inactive)
REMARK    1  A    between atoms: N_1  and  C_2
REMARK    2  A    between atoms: C_2  and  C_3
REMARK    3  A    between atoms: C_6  and  N_7
REMARK    4  A    between atoms: N_7  and  C_8
REMARK    5  A    between atoms: C_8  and  C_9
REMARK                            x       y       z     vdW  Elec       q    Type
REMARK                         _______ _______ _______ _____ _____    ______ ____
ROOT
ATOM      1  C   UNL     1      45.413   3.689   8.457  0.00  0.00    +0.000 A 
ATOM      2  C   UNL     1      44.764   2.828   9.353  0.00  0.00    +0.000 A 
ATOM      3  C   UNL     1      44.527   3.220  10.676  0.00  0.00    +0.000 A 
ATOM      4  C   UNL     1      44.959   4.464  11.141  0.00  0.00    +0.000 A 
ATOM      5  C   UNL     1      45.517   5.356  10.219  0.00  0.00    +0.000 A 
ATOM      6  C   UNL     1      45.762   4.969   8.898  0.00  0.00    +0.000 A 
ENDROOT
BRANCH   4   7
ATOM      7  N   UNL     1      44.806   4.901  12.461  0.00  0.00    +0.000 N 
ATOM      8  H   UNL     1      45.471   4.432  13.073  0.00  0.00    +0.000 HD
BRANCH   7   9
ATOM      9  C   UNL     1      44.763   6.337  12.700  0.00  0.00    +0.000 C 
BRANCH   9  10
ATOM     10  C   UNL     1      46.162   6.841  12.962  0.00  0.00    +0.000 A 
ATOM     11  C   UNL     1      46.558   8.127  12.585  0.00  0.00    +0.000 A 
ATOM     12  C   UNL     1      47.842   8.545  12.899  0.00  0.00    +0.000 A 
ATOM     13  N   UNL     1      48.743   7.783  13.557  0.00  0.00    +0.000 NA
ATOM     14  C   UNL     1      48.344   6.543  13.911  0.00  0.00    +0.000 A 
ATOM     15  C   UNL     1      47.085   6.036  13.641  0.00  0.00    +0.000 A 
ENDBRANCH   9  10
ENDBRANCH   7   9
ENDBRANCH   4   7
BRANCH   1  16
ATOM     16  C   UNL     1      45.778   3.224   7.071  0.00  0.00    +0.000 C 
BRANCH  16  17
ATOM     17  N   UNL     1      46.819   4.049   6.470  0.00  0.00    +0.000 NA
ATOM     18  H   UNL     1      46.878   4.927   6.981  0.00  0.00    +0.000 HD
ATOM     19  H   UNL     1      46.537   4.286   5.520  0.00  0.00    +0.000 HD
ENDBRANCH  16  17
ENDBRANCH   1  16
TORSDOF 5
ENDMDL
MODEL 7
REMARK VINA RESULT:    -4.968      3.526      7.550
REMARK INTER + INTRA:          -6.859
REMARK INTER:                  -6.571
REMARK INTRA:                  -0.288
REMARK UNBOUND:                -0.583
REMARK  Name = 
REMARK  5 active torsions:
REMARK  status: ('A' for Active; 'I' for Inactive)
REMARK    1  A    between atoms: N_1  and  C_2
REMARK    2  A    between atoms: C_2  and  C_3
REMARK    3  A    between atoms: C_6  and  N_7
REMARK    4  A    between atoms: N_7  and  C_8
REMARK    5  A    between atoms: C_8  and  C_9
REMARK                            x       y       z     vdW  Elec       q    Type
REMARK                         _______ _______ _______ _____ _____    ______ ____
ROOT
ATOM      1  C   UNL     1      49.773   4.117  17.559  0.00  0.00    +0.000 A 
ATOM      2  C   UNL     1      49.413   5.380  17.072  0.00  0.00    +0.000 A 
ATOM      3  C   UNL     1      48.299   5.535  16.240  0.00  0.00    +0.000 A 
ATOM      4  C   UNL     1      47.539   4.429  15.851  0.00  0.00    +0.000 A 
ATOM      5  C   UNL     1      47.843   3.187  16.417  0.00  0.00    +0.000 A 
ATOM      6  C   UNL     1      48.958   3.024  17.245  0.00  0.00    +0.000 A 
ENDROOT
BRANCH   4   7
ATOM      7  N   UNL     1      46.447   4.499  14.980  0.00  0.00    +0.000 N 
ATOM      8  H   UNL     1      45.991   5.406  15.048  0.00  0.00    +0.000 HD
BRANCH   7   9
ATOM      9  C   UNL     1      46.655   4.096  13.595  0.00  0.00    +0.000 C 
BRANCH   9  10
ATOM     10  C   UNL     1      45.347   4.187  12.848  0.00  0.00    +0.000 A 
ATOM     11  C   UNL     1      45.013   3.273  11.845  0.00  0.00    +0.000 A 
ATOM     12  C   UNL     1      43.775   3.384  11.232  0.00  0.00    +0.000 A 
ATOM     13  N   UNL     1      42.859   4.325  11.547  0.00  0.00    +0.000 NA
ATOM     14  C   UNL     1      43.199   5.201  12.516  0.00  0.00    +0.000 A 
ATOM     15  C   UNL     1      44.411   5.173  13.184  0.00  0.00    +0.000 A 
ENDBRANCH   9  10
ENDBRANCH   7   9
ENDBRANCH   4   7
BRANCH   1  16
ATOM     16  C   UNL     1      51.040   3.929  18.354  0.00  0.00    +0.000 C 
BRANCH  16  17
ATOM     17  N   UNL     1      51.640   2.619  18.134  0.00  0.00    +0.000 NA
ATOM     18  H   UNL     1      50.913   1.970  17.841  0.00  0.00    +0.000 HD
ATOM     19  H   UNL     1      51.995   2.272  19.023  0.00  0.00    +0.000 HD
ENDBRANCH  16  17
ENDBRANCH   1  16
TORSDOF 5
ENDMDL
MODEL 8
REMARK VINA RESULT:    -4.875      4.402      6.410
REMARK INTER + INTRA:          -6.741
REMARK INTER:                  -6.403
REMARK INTRA:                  -0.338
REMARK UNBOUND:                -0.583
REMARK  Name = 
REMARK  5 active torsions:
REMARK  status: ('A' for Active; 'I' for Inactive)
REMARK    1  A    between atoms: N_1  and  C_2
REMARK    2  A    between atoms: C_2  and  C_3
REMARK    3  A    between atoms: C_6  and  N_7
REMARK    4  A    between atoms: N_7  and  C_8
REMARK    5  A    between atoms: C_8  and  C_9
REMARK                            x       y       z     vdW  Elec       q    Type
REMARK                         _______ _______ _______ _____ _____    ______ ____
ROOT
ATOM      1  C   UNL     1      45.395   6.697  12.385  0.00  0.00    +0.000 A 
ATOM      2  C   UNL     1      44.617   5.613  12.813  0.00  0.00    +0.000 A 
ATOM      3  C   UNL     1      45.160   4.628  13.646  0.00  0.00    +0.000 A 
ATOM      4  C   UNL     1      46.497   4.686  14.044  0.00  0.00    +0.000 A 
ATOM      5  C   UNL     1      47.241   5.819  13.695  0.00  0.00    +0.000 A 
ATOM      6  C   UNL     1      46.707   6.804  12.859  0.00  0.00    +0.000 A 
ENDROOT
BRANCH   4   7
ATOM      7  N   UNL     1      47.123   3.712  14.829  0.00  0.00    +0.000 N 
ATOM      8  H   UNL     1      48.040   3.483  14.452  0.00  0.00    +0.000 HD
BRANCH   7   9
ATOM      9  C   UNL     1      47.163   3.923  16.270  0.00  0.00    +0.000 C 
BRANCH   9  10
ATOM     10  C   UNL     1      48.532   3.560  16.789  0.00  0.00    +0.000 A 
ATOM     11  C   UNL     1      49.049   2.270  16.647  0.00  0.00    +0.000 A 
ATOM     12  C   UNL     1      50.333   2.016  17.103  0.00  0.00    +0.000 A 
ATOM     13  N   UNL     1      51.127   2.945  17.678  0.00  0.00    +0.000 NA
ATOM     14  C   UNL     1      50.610   4.185  17.810  0.00  0.00    +0.000 A 
ATOM     15  C   UNL     1      49.339   4.535  17.388  0.00  0.00    +0.000 A 
ENDBRANCH   9  10
ENDBRANCH   7   9
ENDBRANCH   4   7
BRANCH   1  16
ATOM     16  C   UNL     1      44.850   7.692  11.392  0.00  0.00    +0.000 C 
BRANCH  16  17
ATOM     17  N   UNL     1      43.440   7.466  11.102  0.00  0.00    +0.000 NA
ATOM     18  H   UNL     1      42.995   7.067  11.926  0.00  0.00    +0.000 HD
ATOM     19  H   UNL     1      43.368   6.765  10.367  0.00  0.00    +0.000 HD
ENDBRANCH  16  17
ENDBRANCH   1  16
TORSDOF 5
ENDMDL
MODEL 9
REMARK VINA RESULT:    -4.774      2.639      5.859
REMARK INTER + INTRA:          -6.613
REMARK INTER:                  -6.117
REMARK INTRA:                  -0.497
REMARK UNBOUND:                -0.583
REMARK  Name = 
REMARK  5 active torsions:
REMARK  status: ('A' for Active; 'I' for Inactive)
REMARK    1  A    between atoms: N_1  and  C_2
REMARK    2  A    between atoms: C_2  and  C_3
REMARK    3  A    between atoms: C_6  and  N_7
REMARK    4  A    between atoms: N_7  and  C_8
REMARK    5  A    between atoms: C_8  and  C_9
REMARK                            x       y       z     vdW  Elec       q    Type
REMARK                         _______ _______ _______ _____ _____    ______ ____
ROOT
ATOM      1  C   UNL     1      48.921   8.081  12.214  0.00  0.00    +0.000 A 
ATOM      2  C   UNL     1      47.910   9.040  12.070  0.00  0.00    +0.000 A 
ATOM      3  C   UNL     1      46.568   8.701  12.281  0.00  0.00    +0.000 A 
ATOM      4  C   UNL     1      46.204   7.393  12.609  0.00  0.00    +0.000 A 
ATOM      5  C   UNL     1      47.223   6.465  12.847  0.00  0.00    +0.000 A 
ATOM      6  C   UNL     1      48.565   6.794  12.633  0.00  0.00    +0.000 A 
ENDROOT
BRANCH   4   7
ATOM      7  N   UNL     1      44.882   6.969  12.782  0.00  0.00    +0.000 N 
ATOM      8  H   UNL     1      44.416   7.530  13.491  0.00  0.00    +0.000 HD
BRANCH   7   9
ATOM      9  C   UNL     1      44.061   6.804  11.590  0.00  0.00    +0.000 C 
BRANCH   9  10
ATOM     10  C   UNL     1      43.958   5.336  11.256  0.00  0.00    +0.000 A 
ATOM     11  C   UNL     1      44.523   4.811  10.090  0.00  0.00    +0.000 A 
ATOM     12  C   UNL     1      44.435   3.445   9.868  0.00  0.00    +0.000 A 
ATOM     13  N   UNL     1      43.837   2.580  10.715  0.00  0.00    +0.000 NA
ATOM     14  C   UNL     1      43.295   3.105  11.834  0.00  0.00    +0.000 A 
ATOM     15  C   UNL     1      43.330   4.453  12.144  0.00  0.00    +0.000 A 
ENDBRANCH   9  10
ENDBRANCH   7   9
ENDBRANCH   4   7
BRANCH   1  16
ATOM     16  C   UNL     1      50.351   8.410  11.869  0.00  0.00    +0.000 C 
BRANCH  16  17
ATOM     17  N   UNL     1      51.080   7.250  11.374  0.00  0.00    +0.000 NA
ATOM     18  H   UNL     1      51.155   6.565  12.123  0.00  0.00    +0.000 HD
ATOM     19  H   UNL     1      52.031   7.536  11.148  0.00  0.00    +0.000 HD
ENDBRANCH  16  17
ENDBRANCH   1  16
TORSDOF 5
ENDMDL
