MODEL 1
REMARK VINA RESULT:    -9.261      0.000      0.000
REMARK INTER + INTRA:         -12.102
REMARK INTER:                 -11.427
REMARK INTRA:                  -0.675
REMARK UNBOUND:                -0.675
REMARK  Name = 
REMARK  4 active torsions:
REMARK  status: ('A' for Active; 'I' for Inactive)
REMARK    1  A    between atoms: C_2  and  C_4
REMARK    2  A    between atoms: N_8  and  C_9
REMARK    3  A    between atoms: C_9  and  C_10
REMARK    4  A    between atoms: C_14  and  C_15
REMARK                            x       y       z     vdW  Elec       q    Type
REMARK                         _______ _______ _______ _____ _____    ______ ____
ROOT
ATOM      1  C   UNL     1      43.469   4.835  11.029  0.00  0.00    +0.000 C 
ENDROOT
BRANCH   1   6
ATOM      2  C   UNL     1      46.364   2.269   7.663  0.00  0.00    +0.000 A 
ATOM      3  C   UNL     1      45.639   1.784   8.747  0.00  0.00    +0.000 A 
ATOM      4  C   UNL     1      44.783   2.640   9.431  0.00  0.00    +0.000 A 
ATOM      5  C   UNL     1      44.670   3.969   9.038  0.00  0.00    +0.000 A 
ATOM      6  N   UNL     1      43.774   4.848   9.607  0.00  0.00    +0.000 N 
ATOM      7  N   UNL     1      45.380   4.458   8.003  0.00  0.00    +0.000 NA
ATOM      8  C   UNL     1      46.218   3.609   7.342  0.00  0.00    +0.000 A 
ATOM      9  H   UNL     1      43.908   5.761   9.186  0.00  0.00    +0.000 HD
BRANCH   2  11
ATOM     10  N   UNL     1      48.326   2.029   6.253  0.00  0.00    +0.000 N 
ATOM     11  C   UNL     1      47.269   1.414   6.868  0.00  0.00    +0.000 C 
ATOM     12  O   UNL     1      47.101   0.205   6.788  0.00  0.00    +0.000 OA
ATOM     13  H   UNL     1      48.990   1.428   5.782  0.00  0.00    +0.000 HD
ATOM     14  H   UNL     1      48.632   2.961   6.494  0.00  0.00    +0.000 HD
ENDBRANCH   2  11
ENDBRANCH   1   6
BRANCH   1  15
ATOM     15  C   UNL     1      44.670   4.998  11.923  0.00  0.00    +0.000 A 
ATOM     16  C   UNL     1      44.790   4.223  13.070  0.00  0.00    +0.000 A 
ATOM     17  N   UNL     1      45.775   4.362  13.982  0.00  0.00    +0.000 NA
ATOM     18  C   UNL     1      46.694   5.329  13.742  0.00  0.00    +0.000 A 
ATOM     19  C   UNL     1      46.691   6.185  12.638  0.00  0.00    +0.000 A 
ATOM     20  C   UNL     1      45.636   5.996  11.731  0.00  0.00    +0.000 A 
BRANCH  19  21
ATOM     21  C   UNL     1      47.720   7.229  12.434  0.00  0.00    +0.000 A 
ATOM     22  C   UNL     1      49.096   6.923  12.494  0.00  0.00    +0.000 A 
ATOM     23  C   UNL     1      50.078   7.900  12.293  0.00  0.00    +0.000 A 
ATOM     24  C   UNL     1      49.705   9.215  12.042  0.00  0.00    +0.000 A 
ATOM     25  C   UNL     1      48.357   9.536  11.985  0.00  0.00    +0.000 A 
ATOM     26  F   UNL     1      47.991  10.802  11.745  0.00  0.00    +0.000 F 
ATOM     27  C   UNL     1      47.373   8.566  12.170  0.00  0.00    +0.000 A 
ENDBRANCH  19  21
ENDBRANCH   1  15
TORSDOF 4
ENDMDL
MODEL 2
REMARK VINA RESULT:    -8.740      2.876      3.888
REMARK INTER + INTRA:         -11.459
REMARK INTER:                 -10.838
REMARK INTRA:                  -0.620
REMARK UNBOUND:                -0.675
REMARK  Name = 
REMARK  4 active torsions:
REMARK  status: ('A' for Active; 'I' for Inactive)
REMARK    1  A    between atoms: C_2  and  C_4
REMARK    2  A    between atoms: N_8  and  C_9
REMARK    3  A    between atoms: C_9  and  C_10
REMARK    4  A    between atoms: C_14  and  C_15
REMARK                            x       y       z     vdW  Elec       q    Type
REMARK                         _______ _______ _______ _____ _____    ______ ____
ROOT
ATOM      1  C   UNL     1      44.329   5.049  11.355  0.00  0.00    +0.000 C 
ENDROOT
BRANCH   1   6
ATOM      2  C   UNL     1      46.512   2.397   7.548  0.00  0.00    +0.000 A 
ATOM      3  C   UNL     1      45.895   1.927   8.704  0.00  0.00    +0.000 A 
ATOM      4  C   UNL     1      45.218   2.823   9.524  0.00  0.00    +0.000 A 
ATOM      5  C   UNL     1      45.174   4.172   9.193  0.00  0.00    +0.000 A 
ATOM      6  N   UNL     1      44.444   5.099   9.906  0.00  0.00    +0.000 N 
ATOM      7  N   UNL     1      45.783   4.644   8.088  0.00  0.00    +0.000 NA
ATOM      8  C   UNL     1      46.447   3.757   7.293  0.00  0.00    +0.000 A 
ATOM      9  H   UNL     1      44.604   6.015   9.500  0.00  0.00    +0.000 HD
BRANCH   2  11
ATOM     10  N   UNL     1      48.201   2.066   5.835  0.00  0.00    +0.000 N 
ATOM     11  C   UNL     1      47.223   1.503   6.611  0.00  0.00    +0.000 C 
ATOM     12  O   UNL     1      46.974   0.307   6.552  0.00  0.00    +0.000 OA
ATOM     13  H   UNL     1      48.743   1.436   5.258  0.00  0.00    +0.000 HD
ATOM     14  H   UNL     1      48.597   2.975   6.028  0.00  0.00    +0.000 HD
ENDBRANCH   2  11
ENDBRANCH   1   6
BRANCH   1  15
ATOM     15  C   UNL     1      45.520   5.602  12.092  0.00  0.00    +0.000 A 
ATOM     16  C   UNL     1      46.344   6.537  11.476  0.00  0.00    +0.000 A 
ATOM     17  N   UNL     1      47.484   7.017  12.015  0.00  0.00    +0.000 NA
ATOM     18  C   UNL     1      47.828   6.539  13.236  0.00  0.00    +0.000 A 
ATOM     19  C   UNL     1      47.102   5.594  13.964  0.00  0.00    +0.000 A 
ATOM     20  C   UNL     1      45.931   5.127  13.346  0.00  0.00    +0.000 A 
BRANCH  19  21
ATOM     21  C   UNL     1      47.534   5.104  15.292  0.00  0.00    +0.000 A 
ATOM     22  C   UNL     1      48.536   5.771  16.028  0.00  0.00    +0.000 A 
ATOM     23  C   UNL     1      48.945   5.323  17.289  0.00  0.00    +0.000 A 
ATOM     24  C   UNL     1      48.371   4.183  17.839  0.00  0.00    +0.000 A 
ATOM     25  C   UNL     1      47.389   3.510  17.127  0.00  0.00    +0.000 A 
ATOM     26  F   UNL     1      46.833   2.410  17.651  0.00  0.00    +0.000 F 
ATOM     27  C   UNL     1      46.966   3.959  15.877  0.00  0.00    +0.000 A 
ENDBRANCH  19  21
ENDBRANCH   1  15
TORSDOF 4
ENDMDL
MODEL 3
REMARK VINA RESULT:    -8.562      4.040      7.028
REMARK INTER + INTRA:         -11.240
REMARK INTER:                 -10.776
REMARK INTRA:                  -0.463
REMARK UNBOUND:                -0.675
REMARK  Name = 
REMARK  4 active torsions:
REMARK  status: ('A' for Active; 'I' for Inactive)
REMARK    1  A    between atoms: C_2  and  C_4
REMARK    2  A    between atoms: N_8  and  C_9
REMARK    3  A    between atoms: C_9  and  C_10
REMARK    4  A    between atoms: C_14  and  C_15
REMARK                            x       y       z     vdW  Elec       q    Type
REMARK                         _______ _______ _______ _____ _____    ______ ____
ROOT
ATOM      1  C   UNL     1      43.607   6.461  11.405  0.00  0.00    +0.000 C 
ENDROOT
BRANCH   1   6
ATOM      2  C   UNL     1      48.236   7.050  13.531  0.00  0.00    +0.000 A 
ATOM      3  C   UNL     1      47.483   5.890  13.373  0.00  0.00    +0.000 A 
ATOM      4  C   UNL     1      46.320   5.932  12.612  0.00  0.00    +0.000 A 
ATOM      5  C   UNL     1      45.913   7.129  12.032  0.00  0.00    +0.000 A 
ATOM      6  N   UNL     1      44.825   7.225  11.191  0.00  0.00    +0.000 N 
ATOM      7  N   UNL     1      46.620   8.264  12.193  0.00  0.00    +0.000 NA
ATOM      8  C   UNL     1      47.757   8.210  12.943  0.00  0.00    +0.000 A 
ATOM      9  H   UNL     1      44.705   8.198  10.932  0.00  0.00    +0.000 HD
BRANCH   2  11
ATOM     10  N   UNL     1      50.554   7.742  13.735  0.00  0.00    +0.000 N 
ATOM     11  C   UNL     1      49.498   7.076  14.297  0.00  0.00    +0.000 C 
ATOM     12  O   UNL     1      49.589   6.555  15.400  0.00  0.00    +0.000 OA
ATOM     13  H   UNL     1      51.389   7.831  14.299  0.00  0.00    +0.000 HD
ATOM     14  H   UNL     1      50.447   8.381  12.959  0.00  0.00    +0.000 HD
ENDBRANCH   2  11
ENDBRANCH   1   6
BRANCH   1  15
ATOM     15  C   UNL     1      43.696   5.019  10.981  0.00  0.00    +0.000 A 
ATOM     16  C   UNL     1      43.044   4.038  11.719  0.00  0.00    +0.000 A 
ATOM     17  N   UNL     1      43.143   2.714  11.478  0.00  0.00    +0.000 NA
ATOM     18  C   UNL     1      43.937   2.342  10.444  0.00  0.00    +0.000 A 
ATOM     19  C   UNL     1      44.655   3.216   9.626  0.00  0.00    +0.000 A 
ATOM     20  C   UNL     1      44.519   4.579   9.934  0.00  0.00    +0.000 A 
BRANCH  19  21
ATOM     21  C   UNL     1      45.513   2.748   8.515  0.00  0.00    +0.000 A 
ATOM     22  C   UNL     1      45.927   3.625   7.490  0.00  0.00    +0.000 A 
ATOM     23  C   UNL     1      46.746   3.196   6.439  0.00  0.00    +0.000 A 
ATOM     24  C   UNL     1      47.159   1.870   6.379  0.00  0.00    +0.000 A 
ATOM     25  C   UNL     1      46.757   0.992   7.375  0.00  0.00    +0.000 A 
ATOM     26  F   UNL     1      47.150  -0.288   7.322  0.00  0.00    +0.000 F 
ATOM     27  C   UNL     1      45.953   1.415   8.432  0.00  0.00    +0.000 A 
ENDBRANCH  19  21
ENDBRANCH   1  15
TORSDOF 4
ENDMDL
MODEL 4
REMARK VINA RESULT:    -8.328      4.057      7.212
REMARK INTER + INTRA:         -10.951
REMARK INTER:                 -10.262
REMARK INTRA:                  -0.690
REMARK UNBOUND:                -0.675
REMARK  Name = 
REMARK  4 active torsions:
REMARK  status: ('A' for Active; 'I' for Inactive)
REMARK    1  A    between atoms: C_2  and  C_4
REMARK    2  A    between atoms: N_8  and  C_9
REMARK    3  A    between atoms: C_9  and  C_10
REMARK    4  A    between atoms: C_14  and  C_15
REMARK                            x       y       z     vdW  Elec       q    Type
REMARK                         _______ _______ _______ _____ _____    ______ ____
ROOT
ATOM      1  C   UNL     1      44.333   6.605  11.762  0.00  0.00    +0.000 C 
ENDROOT
BRANCH   1   6
ATOM      2  C   UNL     1      49.153   7.879  12.961  0.00  0.00    +0.000 A 
ATOM      3  C   UNL     1      48.281   8.488  12.064  0.00  0.00    +0.000 A 
ATOM      4  C   UNL     1      46.954   8.076  12.018  0.00  0.00    +0.000 A 
ATOM      5  C   UNL     1      46.516   7.054  12.854  0.00  0.00    +0.000 A 
ATOM      6  N   UNL     1      45.197   6.659  12.930  0.00  0.00    +0.000 N 
ATOM      7  N   UNL     1      47.352   6.441  13.713  0.00  0.00    +0.000 NA
ATOM      8  C   UNL     1      48.652   6.853  13.747  0.00  0.00    +0.000 A 
ATOM      9  H   UNL     1      45.133   5.875  13.571  0.00  0.00    +0.000 HD
BRANCH   2  11
ATOM     10  N   UNL     1      51.447   7.771  12.173  0.00  0.00    +0.000 N 
ATOM     11  C   UNL     1      50.568   8.283  13.090  0.00  0.00    +0.000 C 
ATOM     12  O   UNL     1      50.934   9.065  13.956  0.00  0.00    +0.000 OA
ATOM     13  H   UNL     1      52.397   8.117  12.212  0.00  0.00    +0.000 HD
ATOM     14  H   UNL     1      51.148   7.331  11.315  0.00  0.00    +0.000 HD
ENDBRANCH   2  11
ENDBRANCH   1   6
BRANCH   1  15
ATOM     15  C   UNL     1      44.167   5.229  11.175  0.00  0.00    +0.000 A 
ATOM     16  C   UNL     1      43.304   4.318  11.775  0.00  0.00    +0.000 A 
ATOM     17  N   UNL     1      43.161   3.035  11.383  0.00  0.00    +0.000 NA
ATOM     18  C   UNL     1      43.920   2.631  10.336  0.00  0.00    +0.000 A 
ATOM     19  C   UNL     1      44.831   3.433   9.645  0.00  0.00    +0.000 A 
ATOM     20  C   UNL     1      44.942   4.754  10.107  0.00  0.00    +0.000 A 
BRANCH  19  21
ATOM     21  C   UNL     1      45.638   2.931   8.511  0.00  0.00    +0.000 A 
ATOM     22  C   UNL     1      46.067   3.793   7.480  0.00  0.00    +0.000 A 
ATOM     23  C   UNL     1      46.839   3.332   6.407  0.00  0.00    +0.000 A 
ATOM     24  C   UNL     1      47.188   1.989   6.331  0.00  0.00    +0.000 A 
ATOM     25  C   UNL     1      46.770   1.125   7.333  0.00  0.00    +0.000 A 
ATOM     26  F   UNL     1      47.102  -0.171   7.266  0.00  0.00    +0.000 F 
ATOM     27  C   UNL     1      46.014   1.580   8.412  0.00  0.00    +0.000 A 
ENDBRANCH  19  21
ENDBRANCH   1  15
TORSDOF 4
ENDMDL
MODEL 5
REMARK VINA RESULT:    -8.315      3.882      7.041
REMARK INTER + INTRA:         -10.934
REMARK INTER:                 -10.269
REMARK INTRA:                  -0.665
REMARK UNBOUND:                -0.675
REMARK  Name = 
REMARK  4 active torsions:
REMARK  status: ('A' for Active; 'I' for Inactive)
REMARK    1  A    between atoms: C_2  and  C_4
REMARK    2  A    between atoms: N_8  and  C_9
REMARK    3  A    between atoms: C_9  and  C_10
REMARK    4  A    between atoms: C_14  and  C_15
REMARK                            x       y       z     vdW  Elec       q    Type
REMARK                         _______ _______ _______ _____ _____    ______ ____
ROOT
ATOM      1  C   UNL     1      43.841   6.302  11.433  0.00  0.00    +0.000 C 
ENDROOT
BRANCH   1   6
ATOM      2  C   UNL     1      48.268   7.379  13.785  0.00  0.00    +0.000 A 
ATOM      3  C   UNL     1      47.550   6.187  13.769  0.00  0.00    +0.000 A 
ATOM      4  C   UNL     1      46.452   6.065  12.923  0.00  0.00    +0.000 A 
ATOM      5  C   UNL     1      46.076   7.134  12.117  0.00  0.00    +0.000 A 
ATOM      6  N   UNL     1      45.061   7.054  11.188  0.00  0.00    +0.000 N 
ATOM      7  N   UNL     1      46.749   8.300  12.136  0.00  0.00    +0.000 NA
ATOM      8  C   UNL     1      47.822   8.408  12.972  0.00  0.00    +0.000 A 
ATOM      9  H   UNL     1      44.946   7.965  10.758  0.00  0.00    +0.000 HD
BRANCH   2  11
ATOM     10  N   UNL     1      50.683   7.458  14.023  0.00  0.00    +0.000 N 
ATOM     11  C   UNL     1      49.462   7.572  14.633  0.00  0.00    +0.000 C 
ATOM     12  O   UNL     1      49.366   7.852  15.819  0.00  0.00    +0.000 OA
ATOM     13  H   UNL     1      51.495   7.675  14.587  0.00  0.00    +0.000 HD
ATOM     14  H   UNL     1      50.797   7.473  13.020  0.00  0.00    +0.000 HD
ENDBRANCH   2  11
ENDBRANCH   1   6
BRANCH   1  15
ATOM     15  C   UNL     1      43.881   4.878  10.944  0.00  0.00    +0.000 A 
ATOM     16  C   UNL     1      43.200   3.886  11.641  0.00  0.00    +0.000 A 
ATOM     17  N   UNL     1      43.255   2.572  11.339  0.00  0.00    +0.000 NA
ATOM     18  C   UNL     1      44.033   2.221  10.286  0.00  0.00    +0.000 A 
ATOM     19  C   UNL     1      44.776   3.108   9.505  0.00  0.00    +0.000 A 
ATOM     20  C   UNL     1      44.686   4.459   9.874  0.00  0.00    +0.000 A 
BRANCH  19  21
ATOM     21  C   UNL     1      45.615   2.662   8.369  0.00  0.00    +0.000 A 
ATOM     22  C   UNL     1      46.188   1.374   8.344  0.00  0.00    +0.000 A 
ATOM     23  C   UNL     1      46.975   0.938   7.271  0.00  0.00    +0.000 A 
ATOM     24  C   UNL     1      47.220   1.790   6.201  0.00  0.00    +0.000 A 
ATOM     25  C   UNL     1      46.670   3.064   6.212  0.00  0.00    +0.000 A 
ATOM     26  F   UNL     1      46.904   3.890   5.184  0.00  0.00    +0.000 F 
ATOM     27  C   UNL     1      45.873   3.499   7.270  0.00  0.00    +0.000 A 
ENDBRANCH  19  21
ENDBRANCH   1  15
TORSDOF 4
ENDMDL
MODEL 6
REMARK VINA RESULT:    -8.196      4.112      7.383
REMARK INTER + INTRA:         -10.788
REMARK INTER:                 -10.360
REMARK INTRA:                  -0.429
REMARK UNBOUND:                -0.675
REMARK  Name = 
REMARK  4 active torsions:
REMARK  status: ('A' for Active; 'I' for Inactive)
REMARK    1  A    between atoms: C_2  and  C_4
REMARK    2  A    between atoms: N_8  and  C_9
REMARK    3  A    between atoms: C_9  and  C_10
REMARK    4  A    between atoms: C_14  and  C_15
REMARK                            x       y       z     vdW  Elec       q    Type
REMARK                         _______ _______ _______ _____ _____    ______ ____
ROOT
ATOM      1  C   UNL     1      45.240   6.961  11.417  0.00  0.00    +0.000 C 
ENDROOT
BRANCH   1   6
ATOM      2  C   UNL     1      47.802   5.169  15.482  0.00  0.00    +0.000 A 
ATOM      3  C   UNL     1      46.766   4.576  14.766  0.00  0.00    +0.000 A 
ATOM      4  C   UNL     1      46.328   5.170  13.587  0.00  0.00    +0.000 A 
ATOM      5  C   UNL     1      46.915   6.350  13.144  0.00  0.00    +0.000 A 
ATOM      6  N   UNL     1      46.597   6.942  11.941  0.00  0.00    +0.000 N 
ATOM      7  N   UNL     1      47.905   6.945  13.836  0.00  0.00    +0.000 NA
ATOM      8  C   UNL     1      48.324   6.355  14.992  0.00  0.00    +0.000 A 
ATOM      9  H   UNL     1      47.120   7.807  11.860  0.00  0.00    +0.000 HD
BRANCH   2  11
ATOM     10  N   UNL     1      48.695   5.451  17.722  0.00  0.00    +0.000 N 
ATOM     11  C   UNL     1      48.343   4.582  16.725  0.00  0.00    +0.000 C 
ATOM     12  O   UNL     1      48.443   3.372  16.871  0.00  0.00    +0.000 OA
ATOM     13  H   UNL     1      48.984   5.043  18.601  0.00  0.00    +0.000 HD
ATOM     14  H   UNL     1      48.402   6.418  17.733  0.00  0.00    +0.000 HD
ENDBRANCH   2  11
ENDBRANCH   1   6
BRANCH   1  15
ATOM     15  C   UNL     1      44.784   5.652  10.828  0.00  0.00    +0.000 A 
ATOM     16  C   UNL     1      43.662   5.013  11.342  0.00  0.00    +0.000 A 
ATOM     17  N   UNL     1      43.233   3.796  10.948  0.00  0.00    +0.000 NA
ATOM     18  C   UNL     1      43.962   3.175   9.989  0.00  0.00    +0.000 A 
ATOM     19  C   UNL     1      45.113   3.693   9.391  0.00  0.00    +0.000 A 
ATOM     20  C   UNL     1      45.513   4.958   9.851  0.00  0.00    +0.000 A 
BRANCH  19  21
ATOM     21  C   UNL     1      45.872   2.963   8.352  0.00  0.00    +0.000 A 
ATOM     22  C   UNL     1      46.471   3.642   7.270  0.00  0.00    +0.000 A 
ATOM     23  C   UNL     1      47.199   2.963   6.286  0.00  0.00    +0.000 A 
ATOM     24  C   UNL     1      47.333   1.581   6.353  0.00  0.00    +0.000 A 
ATOM     25  C   UNL     1      46.745   0.896   7.407  0.00  0.00    +0.000 A 
ATOM     26  F   UNL     1      46.869  -0.436   7.476  0.00  0.00    +0.000 F 
ATOM     27  C   UNL     1      46.031   1.567   8.398  0.00  0.00    +0.000 A 
ENDBRANCH  19  21
ENDBRANCH   1  15
TORSDOF 4
ENDMDL
MODEL 7
REMARK VINA RESULT:    -8.017      2.009      2.543
REMARK INTER + INTRA:         -10.566
REMARK INTER:                 -10.313
REMARK INTRA:                  -0.253
REMARK UNBOUND:                -0.675
REMARK  Name = 
REMARK  4 active torsions:
REMARK  status: ('A' for Active; 'I' for Inactive)
REMARK    1  A    between atoms: C_2  and  C_4
REMARK    2  A    between atoms: N_8  and  C_9
REMARK    3  A    between atoms: C_9  and  C_10
REMARK    4  A    between atoms: C_14  and  C_15
REMARK                            x       y       z     vdW  Elec       q    Type
REMARK                         _______ _______ _______ _____ _____    ______ ____
ROOT
ATOM      1  C   UNL     1      43.460   3.460  10.987  0.00  0.00    +0.000 C 
ENDROOT
BRANCH   1   6
ATOM      2  C   UNL     1      46.711   2.496   7.140  0.00  0.00    +0.000 A 
ATOM      3  C   UNL     1      46.262   3.721   7.624  0.00  0.00    +0.000 A 
ATOM      4  C   UNL     1      45.508   3.756   8.792  0.00  0.00    +0.000 A 
ATOM      5  C   UNL     1      45.199   2.573   9.454  0.00  0.00    +0.000 A 
ATOM      6  N   UNL     1      44.538   2.539  10.663  0.00  0.00    +0.000 N 
ATOM      7  N   UNL     1      45.609   1.379   8.987  0.00  0.00    +0.000 NA
ATOM      8  C   UNL     1      46.346   1.357   7.840  0.00  0.00    +0.000 A 
ATOM      9  H   UNL     1      44.391   1.569  10.922  0.00  0.00    +0.000 HD
BRANCH   2  11
ATOM     10  N   UNL     1      47.383   3.349   4.968  0.00  0.00    +0.000 N 
ATOM     11  C   UNL     1      47.542   2.381   5.924  0.00  0.00    +0.000 C 
ATOM     12  O   UNL     1      48.359   1.481   5.790  0.00  0.00    +0.000 OA
ATOM     13  H   UNL     1      48.014   3.315   4.178  0.00  0.00    +0.000 HD
ATOM     14  H   UNL     1      46.911   4.223   5.148  0.00  0.00    +0.000 HD
ENDBRANCH   2  11
ENDBRANCH   1   6
BRANCH   1  15
ATOM     15  C   UNL     1      43.917   4.855  11.324  0.00  0.00    +0.000 A 
ATOM     16  C   UNL     1      43.081   5.937  11.076  0.00  0.00    +0.000 A 
ATOM     17  N   UNL     1      43.435   7.228  11.252  0.00  0.00    +0.000 NA
ATOM     18  C   UNL     1      44.694   7.457  11.700  0.00  0.00    +0.000 A 
ATOM     19  C   UNL     1      45.640   6.470  11.981  0.00  0.00    +0.000 A 
ATOM     20  C   UNL     1      45.214   5.148  11.769  0.00  0.00    +0.000 A 
BRANCH  19  21
ATOM     21  C   UNL     1      47.004   6.784  12.461  0.00  0.00    +0.000 A 
ATOM     22  C   UNL     1      47.945   7.422  11.626  0.00  0.00    +0.000 A 
ATOM     23  C   UNL     1      49.235   7.732  12.072  0.00  0.00    +0.000 A 
ATOM     24  C   UNL     1      49.621   7.396  13.365  0.00  0.00    +0.000 A 
ATOM     25  C   UNL     1      48.711   6.763  14.198  0.00  0.00    +0.000 A 
ATOM     26  F   UNL     1      49.077   6.436  15.444  0.00  0.00    +0.000 F 
ATOM     27  C   UNL     1      47.420   6.464  13.766  0.00  0.00    +0.000 A 
ENDBRANCH  19  21
ENDBRANCH   1  15
TORSDOF 4
ENDMDL
MODEL 8
REMARK VINA RESULT:    -7.370      1.776      2.240
REMARK INTER + INTRA:          -9.769
REMARK INTER:                  -9.140
REMARK INTRA:                  -0.629
REMARK UNBOUND:                -0.675
REMARK  Name = 
REMARK  4 active torsions:
REMARK  status: ('A' for Active; 'I' for Inactive)
REMARK    1  A    between atoms: C_2  and  C_4
REMARK    2  A    between atoms: N_8  and  C_9
REMARK    3  A    between atoms: C_9  and  C_10
REMARK    4  A    between atoms: C_14  and  C_15
REMARK                            x       y       z     vdW  Elec       q    Type
REMARK                         _______ _______ _______ _____ _____    ______ ____
ROOT
ATOM      1  C   UNL     1      44.665   5.473  11.197  0.00  0.00    +0.000 C 
ENDROOT
BRANCH   1   6
ATOM      2  C   UNL     1      46.607   2.414   7.568  0.00  0.00    +0.000 A 
ATOM      3  C   UNL     1      45.913   2.073   8.726  0.00  0.00    +0.000 A 
ATOM      4  C   UNL     1      45.327   3.077   9.489  0.00  0.00    +0.000 A 
ATOM      5  C   UNL     1      45.450   4.406   9.099  0.00  0.00    +0.000 A 
ATOM      6  N   UNL     1      44.819   5.443   9.751  0.00  0.00    +0.000 N 
ATOM      7  N   UNL     1      46.135   4.753   7.992  0.00  0.00    +0.000 NA
ATOM      8  C   UNL     1      46.707   3.760   7.254  0.00  0.00    +0.000 A 
ATOM      9  H   UNL     1      45.093   6.314   9.312  0.00  0.00    +0.000 HD
BRANCH   2  11
ATOM     10  N   UNL     1      48.148   1.849   5.779  0.00  0.00    +0.000 N 
ATOM     11  C   UNL     1      47.229   1.402   6.691  0.00  0.00    +0.000 C 
ATOM     12  O   UNL     1      46.960   0.213   6.793  0.00  0.00    +0.000 OA
ATOM     13  H   UNL     1      48.634   1.144   5.240  0.00  0.00    +0.000 HD
ATOM     14  H   UNL     1      48.569   2.766   5.832  0.00  0.00    +0.000 HD
ENDBRANCH   2  11
ENDBRANCH   1   6
BRANCH   1  15
ATOM     15  C   UNL     1      45.364   6.624  11.871  0.00  0.00    +0.000 A 
ATOM     16  C   UNL     1      44.622   7.680  12.387  0.00  0.00    +0.000 A 
ATOM     17  N   UNL     1      45.159   8.797  12.920  0.00  0.00    +0.000 NA
ATOM     18  C   UNL     1      46.511   8.872  12.941  0.00  0.00    +0.000 A 
ATOM     19  C   UNL     1      47.379   7.893  12.452  0.00  0.00    +0.000 A 
ATOM     20  C   UNL     1      46.760   6.760  11.901  0.00  0.00    +0.000 A 
BRANCH  19  21
ATOM     21  C   UNL     1      48.851   8.036  12.496  0.00  0.00    +0.000 A 
ATOM     22  C   UNL     1      49.619   8.066  11.313  0.00  0.00    +0.000 A 
ATOM     23  C   UNL     1      51.012   8.210  11.342  0.00  0.00    +0.000 A 
ATOM     24  C   UNL     1      51.672   8.312  12.560  0.00  0.00    +0.000 A 
ATOM     25  C   UNL     1      50.934   8.278  13.734  0.00  0.00    +0.000 A 
ATOM     26  F   UNL     1      51.565   8.374  14.911  0.00  0.00    +0.000 F 
ATOM     27  C   UNL     1      49.546   8.150  13.713  0.00  0.00    +0.000 A 
ENDBRANCH  19  21
ENDBRANCH   1  15
TORSDOF 4
ENDMDL
MODEL 9
REMARK VINA RESULT:    -6.917      4.840      8.233
REMARK INTER + INTRA:          -9.209
REMARK INTER:                  -8.721
REMARK INTRA:                  -0.488
REMARK UNBOUND:                -0.675
REMARK  Name = 
REMARK  4 active torsions:
REMARK  status: ('A' for Active; 'I' for Inactive)
REMARK    1  A    between atoms: C_2  and  C_4
REMARK    2  A    between atoms: N_8  and  C_9
REMARK    3  A    between atoms: C_9  and  C_10
REMARK    4  A    between atoms: C_14  and  C_15
REMARK                            x       y       z     vdW  Elec       q    Type
REMARK                         _______ _______ _______ _____ _____    ______ ____
ROOT
ATOM      1  C   UNL     1      48.193   7.338  14.071  0.00  0.00    +0.000 C 
ENDROOT
BRANCH   1   6
ATOM      2  C   UNL     1      50.767   4.733  17.660  0.00  0.00    +0.000 A 
ATOM      3  C   UNL     1      51.084   5.949  17.061  0.00  0.00    +0.000 A 
ATOM      4  C   UNL     1      50.153   6.559  16.227  0.00  0.00    +0.000 A 
ATOM      5  C   UNL     1      48.927   5.947  15.990  0.00  0.00    +0.000 A 
ATOM      6  N   UNL     1      47.922   6.536  15.254  0.00  0.00    +0.000 N 
ATOM      7  N   UNL     1      48.615   4.761  16.547  0.00  0.00    +0.000 NA
ATOM      8  C   UNL     1      49.537   4.171  17.360  0.00  0.00    +0.000 A 
ATOM      9  H   UNL     1      47.149   5.883  15.185  0.00  0.00    +0.000 HD
BRANCH   2  11
ATOM     10  N   UNL     1      51.973   2.728  18.310  0.00  0.00    +0.000 N 
ATOM     11  C   UNL     1      51.691   4.040  18.581  0.00  0.00    +0.000 C 
ATOM     12  O   UNL     1      52.208   4.620  19.526  0.00  0.00    +0.000 OA
ATOM     13  H   UNL     1      52.670   2.282  18.892  0.00  0.00    +0.000 HD
ATOM     14  H   UNL     1      51.766   2.297  17.420  0.00  0.00    +0.000 HD
ENDBRANCH   2  11
ENDBRANCH   1   6
BRANCH   1  15
ATOM     15  C   UNL     1      47.077   7.350  13.060  0.00  0.00    +0.000 A 
ATOM     16  C   UNL     1      46.244   8.458  12.960  0.00  0.00    +0.000 A 
ATOM     17  N   UNL     1      45.162   8.525  12.156  0.00  0.00    +0.000 NA
ATOM     18  C   UNL     1      44.889   7.427  11.411  0.00  0.00    +0.000 A 
ATOM     19  C   UNL     1      45.632   6.244  11.418  0.00  0.00    +0.000 A 
ATOM     20  C   UNL     1      46.739   6.233  12.281  0.00  0.00    +0.000 A 
BRANCH  19  21
ATOM     21  C   UNL     1      45.278   5.073  10.585  0.00  0.00    +0.000 A 
ATOM     22  C   UNL     1      44.565   3.981  11.122  0.00  0.00    +0.000 A 
ATOM     23  C   UNL     1      44.217   2.872  10.342  0.00  0.00    +0.000 A 
ATOM     24  C   UNL     1      44.590   2.823   9.004  0.00  0.00    +0.000 A 
ATOM     25  C   UNL     1      45.296   3.885   8.459  0.00  0.00    +0.000 A 
ATOM     26  F   UNL     1      45.659   3.843   7.171  0.00  0.00    +0.000 F 
ATOM     27  C   UNL     1      45.634   4.999   9.227  0.00  0.00    +0.000 A 
ENDBRANCH  19  21
ENDBRANCH   1  15
TORSDOF 4
ENDMDL
