MODEL 1
REMARK VINA RESULT:    -6.145      0.000      0.000
REMARK INTER + INTRA:          -9.260
REMARK INTER:                  -8.301
REMARK INTRA:                  -0.959
REMARK UNBOUND:                -0.959
REMARK  Name = 
REMARK  9 active torsions:
REMARK  status: ('A' for Active; 'I' for Inactive)
REMARK    1  A    between atoms: C_1  and  C_2
REMARK    2  A    between atoms: C_2  and  N_3
REMARK    3  A    between atoms: C_4  and  C_6
REMARK    4  A    between atoms: C_9  and  O_10
REMARK    5  A    between atoms: O_10  and  C_11
REMARK    6  A    between atoms: C_11  and  C_12
REMARK    7  A    between atoms: C_12  and  C_13
REMARK    8  A    between atoms: C_12  and  C_14
REMARK    9  A    between atoms: C_12  and  C_15
REMARK                            x       y       z     vdW  Elec       q    Type
REMARK                         _______ _______ _______ _____ _____    ______ ____
ROOT
ATOM      1  C   UNL     1      47.971   8.724  12.096  0.00  0.00    +0.000 A 
ATOM      2  C   UNL     1      46.788   9.295  12.578  0.00  0.00    +0.000 A 
ATOM      3  C   UNL     1      45.674   8.491  12.841  0.00  0.00    +0.000 A 
ATOM      4  C   UNL     1      45.733   7.113  12.626  0.00  0.00    +0.000 A 
ATOM      5  C   UNL     1      46.911   6.549  12.125  0.00  0.00    +0.000 A 
ATOM      6  C   UNL     1      48.026   7.348  11.855  0.00  0.00    +0.000 A 
ENDROOT
BRANCH   1   8
ATOM      7  N   UNL     1      50.337   8.871  11.525  0.00  0.00    +0.000 N 
ATOM      8  C   UNL     1      49.166   9.552  11.788  0.00  0.00    +0.000 C 
ATOM      9  O   UNL     1      49.074  10.775  11.761  0.00  0.00    +0.000 OA
ATOM     10  H   UNL     1      50.308   7.868  11.385  0.00  0.00    +0.000 HD
BRANCH   7  12
ATOM     11  C   UNL     1      52.387   8.813  10.177  0.00  0.00    +0.000 C 
ATOM     12  C   UNL     1      51.557   9.571  11.197  0.00  0.00    +0.000 C 
ENDBRANCH   7  12
ENDBRANCH   1   8
BRANCH   4  13
ATOM     13  O   UNL     1      44.721   6.224  12.856  0.00  0.00    +0.000 OA
BRANCH  13  14
ATOM     14  C   UNL     1      45.014   4.828  12.695  0.00  0.00    +0.000 C 
BRANCH  14  15
ATOM     15  C   UNL     1      43.956   4.164  11.773  0.00  0.00    +0.000 C 
ATOM     16  C   UNL     1      43.459   2.850  12.420  0.00  0.00    +0.000 C 
ATOM     17  C   UNL     1      42.731   5.098  11.648  0.00  0.00    +0.000 C 
BRANCH  15  18
ATOM     18  C   UNL     1      44.613   3.836  10.426  0.00  0.00    +0.000 A 
ATOM     19  C   UNL     1      45.228   4.801   9.624  0.00  0.00    +0.000 A 
ATOM     20  C   UNL     1      45.732   4.442   8.375  0.00  0.00    +0.000 A 
ATOM     21  C   UNL     1      45.626   3.128   7.948  0.00  0.00    +0.000 A 
ATOM     22  C   UNL     1      45.034   2.219   8.803  0.00  0.00    +0.000 A 
ATOM     23  N   UNL     1      44.538   2.541  10.021  0.00  0.00    +0.000 NA
ENDBRANCH  15  18
ENDBRANCH  14  15
ENDBRANCH  13  14
ENDBRANCH   4  13
TORSDOF 6
ENDMDL
MODEL 2
REMARK VINA RESULT:    -5.972      4.158      4.949
REMARK INTER + INTRA:          -9.026
REMARK INTER:                  -8.221
REMARK INTRA:                  -0.805
REMARK UNBOUND:                -0.959
REMARK  Name = 
REMARK  9 active torsions:
REMARK  status: ('A' for Active; 'I' for Inactive)
REMARK    1  A    between atoms: C_1  and  C_2
REMARK    2  A    between atoms: C_2  and  N_3
REMARK    3  A    between atoms: C_4  and  C_6
REMARK    4  A    between atoms: C_9  and  O_10
REMARK    5  A    between atoms: O_10  and  C_11
REMARK    6  A    between atoms: C_11  and  C_12
REMARK    7  A    between atoms: C_12  and  C_13
REMARK    8  A    between atoms: C_12  and  C_14
REMARK    9  A    between atoms: C_12  and  C_15
REMARK                            x       y       z     vdW  Elec       q    Type
REMARK                         _______ _______ _______ _____ _____    ______ ____
ROOT
ATOM      1  C   UNL     1      48.318   5.542  16.292  0.00  0.00    +0.000 A 
ATOM      2  C   UNL     1      48.449   6.425  15.214  0.00  0.00    +0.000 A 
ATOM      3  C   UNL     1      47.786   6.168  14.009  0.00  0.00    +0.000 A 
ATOM      4  C   UNL     1      46.990   5.030  13.871  0.00  0.00    +0.000 A 
ATOM      5  C   UNL     1      46.879   4.140  14.944  0.00  0.00    +0.000 A 
ATOM      6  C   UNL     1      47.542   4.388  16.149  0.00  0.00    +0.000 A 
ENDROOT
BRANCH   1   8
ATOM      7  N   UNL     1      48.237   5.836  18.711  0.00  0.00    +0.000 N 
ATOM      8  C   UNL     1      49.024   5.775  17.578  0.00  0.00    +0.000 C 
ATOM      9  O   UNL     1      50.246   5.885  17.597  0.00  0.00    +0.000 OA
ATOM     10  H   UNL     1      47.264   5.560  18.656  0.00  0.00    +0.000 HD
BRANCH   7  12
ATOM     11  C   UNL     1      48.982   4.736  20.775  0.00  0.00    +0.000 C 
ATOM     12  C   UNL     1      48.815   6.042  20.018  0.00  0.00    +0.000 C 
ENDBRANCH   7  12
ENDBRANCH   1   8
BRANCH   4  13
ATOM     13  O   UNL     1      46.286   4.678  12.754  0.00  0.00    +0.000 OA
BRANCH  13  14
ATOM     14  C   UNL     1      44.853   4.712  12.835  0.00  0.00    +0.000 C 
BRANCH  14  15
ATOM     15  C   UNL     1      44.260   5.304  11.528  0.00  0.00    +0.000 C 
ATOM     16  C   UNL     1      42.716   5.298  11.613  0.00  0.00    +0.000 C 
ATOM     17  C   UNL     1      44.700   6.778  11.389  0.00  0.00    +0.000 C 
BRANCH  15  18
ATOM     18  C   UNL     1      44.695   4.424  10.347  0.00  0.00    +0.000 A 
ATOM     19  C   UNL     1      45.423   4.914   9.261  0.00  0.00    +0.000 A 
ATOM     20  C   UNL     1      45.712   4.074   8.188  0.00  0.00    +0.000 A 
ATOM     21  C   UNL     1      45.281   2.757   8.216  0.00  0.00    +0.000 A 
ATOM     22  C   UNL     1      44.592   2.330   9.334  0.00  0.00    +0.000 A 
ATOM     23  N   UNL     1      44.300   3.124  10.390  0.00  0.00    +0.000 NA
ENDBRANCH  15  18
ENDBRANCH  14  15
ENDBRANCH  13  14
ENDBRANCH   4  13
TORSDOF 6
ENDMDL
MODEL 3
REMARK VINA RESULT:    -5.688      4.269      7.234
REMARK INTER + INTRA:          -8.642
REMARK INTER:                  -7.787
REMARK INTRA:                  -0.855
REMARK UNBOUND:                -0.959
REMARK  Name = 
REMARK  9 active torsions:
REMARK  status: ('A' for Active; 'I' for Inactive)
REMARK    1  A    between atoms: C_1  and  C_2
REMARK    2  A    between atoms: C_2  and  N_3
REMARK    3  A    between atoms: C_4  and  C_6
REMARK    4  A    between atoms: C_9  and  O_10
REMARK    5  A    between atoms: O_10  and  C_11
REMARK    6  A    between atoms: C_11  and  C_12
REMARK    7  A    between atoms: C_12  and  C_13
REMARK    8  A    between atoms: C_12  and  C_14
REMARK    9  A    between atoms: C_12  and  C_15
REMARK                            x       y       z     vdW  Elec       q    Type
REMARK                         _______ _______ _______ _____ _____    ______ ____
ROOT
ATOM      1  C   UNL     1      46.183   5.909  11.991  0.00  0.00    +0.000 A 
ATOM      2  C   UNL     1      47.081   6.924  11.644  0.00  0.00    +0.000 A 
ATOM      3  C   UNL     1      48.150   7.237  12.491  0.00  0.00    +0.000 A 
ATOM      4  C   UNL     1      48.330   6.541  13.687  0.00  0.00    +0.000 A 
ATOM      5  C   UNL     1      47.417   5.541  14.039  0.00  0.00    +0.000 A 
ATOM      6  C   UNL     1      46.345   5.226  13.200  0.00  0.00    +0.000 A 
ENDROOT
BRANCH   1   8
ATOM      7  N   UNL     1      45.274   4.692  10.083  0.00  0.00    +0.000 N 
ATOM      8  C   UNL     1      45.027   5.564  11.125  0.00  0.00    +0.000 C 
ATOM      9  O   UNL     1      43.919   6.036  11.363  0.00  0.00    +0.000 OA
ATOM     10  H   UNL     1      46.158   4.200  10.046  0.00  0.00    +0.000 HD
BRANCH   7  12
ATOM     11  C   UNL     1      44.757   3.437   8.039  0.00  0.00    +0.000 C 
ATOM     12  C   UNL     1      44.222   4.274   9.187  0.00  0.00    +0.000 C 
ENDBRANCH   7  12
ENDBRANCH   1   8
BRANCH   4  13
ATOM     13  O   UNL     1      49.338   6.744  14.587  0.00  0.00    +0.000 OA
BRANCH  13  14
ATOM     14  C   UNL     1      48.985   7.288  15.868  0.00  0.00    +0.000 C 
BRANCH  14  15
ATOM     15  C   UNL     1      49.714   6.511  16.996  0.00  0.00    +0.000 C 
ATOM     16  C   UNL     1      51.205   6.338  16.624  0.00  0.00    +0.000 C 
ATOM     17  C   UNL     1      49.666   7.339  18.299  0.00  0.00    +0.000 C 
BRANCH  15  18
ATOM     18  C   UNL     1      49.072   5.123  17.132  0.00  0.00    +0.000 A 
ATOM     19  C   UNL     1      47.718   4.936  17.417  0.00  0.00    +0.000 A 
ATOM     20  C   UNL     1      47.223   3.646  17.606  0.00  0.00    +0.000 A 
ATOM     21  C   UNL     1      48.082   2.563  17.498  0.00  0.00    +0.000 A 
ATOM     22  C   UNL     1      49.402   2.818  17.184  0.00  0.00    +0.000 A 
ATOM     23  N   UNL     1      49.907   4.059  16.994  0.00  0.00    +0.000 NA
ENDBRANCH  15  18
ENDBRANCH  14  15
ENDBRANCH  13  14
ENDBRANCH   4  13
TORSDOF 6
ENDMDL
MODEL 4
REMARK VINA RESULT:    -5.655      5.466      8.151
REMARK INTER + INTRA:          -8.598
REMARK INTER:                  -7.746
REMARK INTRA:                  -0.852
REMARK UNBOUND:                -0.959
REMARK  Name = 
REMARK  9 active torsions:
REMARK  status: ('A' for Active; 'I' for Inactive)
REMARK    1  A    between atoms: C_1  and  C_2
REMARK    2  A    between atoms: C_2  and  N_3
REMARK    3  A    between atoms: C_4  and  C_6
REMARK    4  A    between atoms: C_9  and  O_10
REMARK    5  A    between atoms: O_10  and  C_11
REMARK    6  A    between atoms: C_11  and  C_12
REMARK    7  A    between atoms: C_12  and  C_13
REMARK    8  A    between atoms: C_12  and  C_14
REMARK    9  A    between atoms: C_12  and  C_15
REMARK                            x       y       z     vdW  Elec       q    Type
REMARK                         _______ _______ _______ _____ _____    ______ ____
ROOT
ATOM      1  C   UNL     1      46.267   4.832  13.222  0.00  0.00    +0.000 A 
ATOM      2  C   UNL     1      46.990   5.956  12.808  0.00  0.00    +0.000 A 
ATOM      3  C   UNL     1      47.989   6.492  13.629  0.00  0.00    +0.000 A 
ATOM      4  C   UNL     1      48.272   5.911  14.866  0.00  0.00    +0.000 A 
ATOM      5  C   UNL     1      47.533   4.800  15.284  0.00  0.00    +0.000 A 
ATOM      6  C   UNL     1      46.530   4.263  14.472  0.00  0.00    +0.000 A 
ENDROOT
BRANCH   1   8
ATOM      7  N   UNL     1      45.031   4.784  11.121  0.00  0.00    +0.000 N 
ATOM      8  C   UNL     1      45.187   4.250  12.384  0.00  0.00    +0.000 C 
ATOM      9  O   UNL     1      44.501   3.330  12.820  0.00  0.00    +0.000 OA
ATOM     10  H   UNL     1      45.738   5.411  10.755  0.00  0.00    +0.000 HD
BRANCH   7  12
ATOM     11  C   UNL     1      44.582   4.059   8.819  0.00  0.00    +0.000 C 
ATOM     12  C   UNL     1      44.025   4.286  10.213  0.00  0.00    +0.000 C 
ENDBRANCH   7  12
ENDBRANCH   1   8
BRANCH   4  13
ATOM     13  O   UNL     1      49.228   6.332  15.747  0.00  0.00    +0.000 OA
BRANCH  13  14
ATOM     14  C   UNL     1      49.278   5.690  17.029  0.00  0.00    +0.000 C 
BRANCH  14  15
ATOM     15  C   UNL     1      50.749   5.572  17.510  0.00  0.00    +0.000 C 
ATOM     16  C   UNL     1      51.680   6.286  16.502  0.00  0.00    +0.000 C 
ATOM     17  C   UNL     1      50.904   6.302  18.863  0.00  0.00    +0.000 C 
BRANCH  15  18
ATOM     18  C   UNL     1      51.130   4.087  17.571  0.00  0.00    +0.000 A 
ATOM     19  C   UNL     1      52.358   3.636  18.060  0.00  0.00    +0.000 A 
ATOM     20  C   UNL     1      52.665   2.277  18.009  0.00  0.00    +0.000 A 
ATOM     21  C   UNL     1      51.742   1.388  17.481  0.00  0.00    +0.000 A 
ATOM     22  C   UNL     1      50.536   1.897  17.044  0.00  0.00    +0.000 A 
ATOM     23  N   UNL     1      50.212   3.211  17.084  0.00  0.00    +0.000 NA
ENDBRANCH  15  18
ENDBRANCH  14  15
ENDBRANCH  13  14
ENDBRANCH   4  13
TORSDOF 6
ENDMDL
MODEL 5
REMARK VINA RESULT:    -5.568      3.751      4.279
REMARK INTER + INTRA:          -8.480
REMARK INTER:                  -7.822
REMARK INTRA:                  -0.658
REMARK UNBOUND:                -0.959
REMARK  Name = 
REMARK  9 active torsions:
REMARK  status: ('A' for Active; 'I' for Inactive)
REMARK    1  A    between atoms: C_1  and  C_2
REMARK    2  A    between atoms: C_2  and  N_3
REMARK    3  A    between atoms: C_4  and  C_6
REMARK    4  A    between atoms: C_9  and  O_10
REMARK    5  A    between atoms: O_10  and  C_11
REMARK    6  A    between atoms: C_11  and  C_12
REMARK    7  A    between atoms: C_12  and  C_13
REMARK    8  A    between atoms: C_12  and  C_14
REMARK    9  A    between atoms: C_12  and  C_15
REMARK                            x       y       z     vdW  Elec       q    Type
REMARK                         _______ _______ _______ _____ _____    ______ ____
ROOT
ATOM      1  C   UNL     1      48.427   5.629  16.130  0.00  0.00    +0.000 A 
ATOM      2  C   UNL     1      48.347   6.364  14.942  0.00  0.00    +0.000 A 
ATOM      3  C   UNL     1      47.547   5.911  13.886  0.00  0.00    +0.000 A 
ATOM      4  C   UNL     1      46.824   4.724  14.009  0.00  0.00    +0.000 A 
ATOM      5  C   UNL     1      46.924   3.982  15.192  0.00  0.00    +0.000 A 
ATOM      6  C   UNL     1      47.724   4.427  16.247  0.00  0.00    +0.000 A 
ENDROOT
BRANCH   1   8
ATOM      7  N   UNL     1      50.618   6.277  16.982  0.00  0.00    +0.000 N 
ATOM      8  C   UNL     1      49.282   6.072  17.262  0.00  0.00    +0.000 C 
ATOM      9  O   UNL     1      48.787   6.252  18.370  0.00  0.00    +0.000 OA
ATOM     10  H   UNL     1      50.928   6.287  16.018  0.00  0.00    +0.000 HD
BRANCH   7  12
ATOM     11  C   UNL     1      52.908   6.086  17.844  0.00  0.00    +0.000 C 
ATOM     12  C   UNL     1      51.539   6.724  18.001  0.00  0.00    +0.000 C 
ENDBRANCH   7  12
ENDBRANCH   1   8
BRANCH   4  13
ATOM     13  O   UNL     1      46.002   4.186  13.059  0.00  0.00    +0.000 OA
BRANCH  13  14
ATOM     14  C   UNL     1      45.480   5.069  12.056  0.00  0.00    +0.000 C 
BRANCH  14  15
ATOM     15  C   UNL     1      44.330   4.374  11.280  0.00  0.00    +0.000 C 
ATOM     16  C   UNL     1      43.741   3.232  12.142  0.00  0.00    +0.000 C 
ATOM     17  C   UNL     1      43.191   5.389  11.036  0.00  0.00    +0.000 C 
BRANCH  15  18
ATOM     18  C   UNL     1      44.900   3.775   9.986  0.00  0.00    +0.000 A 
ATOM     19  C   UNL     1      44.934   2.401   9.734  0.00  0.00    +0.000 A 
ATOM     20  C   UNL     1      45.540   1.927   8.573  0.00  0.00    +0.000 A 
ATOM     21  C   UNL     1      46.095   2.827   7.675  0.00  0.00    +0.000 A 
ATOM     22  C   UNL     1      45.999   4.172   7.972  0.00  0.00    +0.000 A 
ATOM     23  N   UNL     1      45.414   4.659   9.091  0.00  0.00    +0.000 NA
ENDBRANCH  15  18
ENDBRANCH  14  15
ENDBRANCH  13  14
ENDBRANCH   4  13
TORSDOF 6
ENDMDL
MODEL 6
REMARK VINA RESULT:    -5.470      1.938      2.417
REMARK INTER + INTRA:          -8.347
REMARK INTER:                  -7.588
REMARK INTRA:                  -0.759
REMARK UNBOUND:                -0.959
REMARK  Name = 
REMARK  9 active torsions:
REMARK  status: ('A' for Active; 'I' for Inactive)
REMARK    1  A    between atoms: C_1  and  C_2
REMARK    2  A    between atoms: C_2  and  N_3
REMARK    3  A    between atoms: C_4  and  C_6
REMARK    4  A    between atoms: C_9  and  O_10
REMARK    5  A    between atoms: O_10  and  C_11
REMARK    6  A    between atoms: C_11  and  C_12
REMARK    7  A    between atoms: C_12  and  C_13
REMARK    8  A    between atoms: C_12  and  C_14
REMARK    9  A    between atoms: C_12  and  C_15
REMARK                            x       y       z     vdW  Elec       q    Type
REMARK                         _______ _______ _______ _____ _____    ______ ____
ROOT
ATOM      1  C   UNL     1      50.142   8.038  12.655  0.00  0.00    +0.000 A 
ATOM      2  C   UNL     1      49.624   7.487  13.832  0.00  0.00    +0.000 A 
ATOM      3  C   UNL     1      48.358   6.892  13.833  0.00  0.00    +0.000 A 
ATOM      4  C   UNL     1      47.601   6.843  12.662  0.00  0.00    +0.000 A 
ATOM      5  C   UNL     1      48.115   7.413  11.492  0.00  0.00    +0.000 A 
ATOM      6  C   UNL     1      49.377   8.014  11.486  0.00  0.00    +0.000 A 
ENDROOT
BRANCH   1   8
ATOM      7  N   UNL     1      52.573   7.869  12.758  0.00  0.00    +0.000 N 
ATOM      8  C   UNL     1      51.475   8.694  12.624  0.00  0.00    +0.000 C 
ATOM      9  O   UNL     1      51.557   9.909  12.469  0.00  0.00    +0.000 OA
ATOM     10  H   UNL     1      52.449   6.865  12.702  0.00  0.00    +0.000 HD
BRANCH   7  12
ATOM     11  C   UNL     1      54.467   8.626  14.122  0.00  0.00    +0.000 C 
ATOM     12  C   UNL     1      53.917   8.394  12.726  0.00  0.00    +0.000 C 
ENDBRANCH   7  12
ENDBRANCH   1   8
BRANCH   4  13
ATOM     13  O   UNL     1      46.363   6.280  12.532  0.00  0.00    +0.000 OA
BRANCH  13  14
ATOM     14  C   UNL     1      45.792   6.225  11.217  0.00  0.00    +0.000 C 
BRANCH  14  15
ATOM     15  C   UNL     1      44.829   5.014  11.103  0.00  0.00    +0.000 C 
ATOM     16  C   UNL     1      44.976   4.117  12.355  0.00  0.00    +0.000 C 
ATOM     17  C   UNL     1      43.370   5.522  11.081  0.00  0.00    +0.000 C 
BRANCH  15  18
ATOM     18  C   UNL     1      45.209   4.197   9.861  0.00  0.00    +0.000 A 
ATOM     19  C   UNL     1      45.006   2.818   9.766  0.00  0.00    +0.000 A 
ATOM     20  C   UNL     1      45.451   2.131   8.638  0.00  0.00    +0.000 A 
ATOM     21  C   UNL     1      46.081   2.827   7.618  0.00  0.00    +0.000 A 
ATOM     22  C   UNL     1      46.221   4.193   7.763  0.00  0.00    +0.000 A 
ATOM     23  N   UNL     1      45.797   4.885   8.847  0.00  0.00    +0.000 NA
ENDBRANCH  15  18
ENDBRANCH  14  15
ENDBRANCH  13  14
ENDBRANCH   4  13
TORSDOF 6
ENDMDL
MODEL 7
REMARK VINA RESULT:    -5.301      4.704      7.791
REMARK INTER + INTRA:          -8.119
REMARK INTER:                  -7.481
REMARK INTRA:                  -0.638
REMARK UNBOUND:                -0.959
REMARK  Name = 
REMARK  9 active torsions:
REMARK  status: ('A' for Active; 'I' for Inactive)
REMARK    1  A    between atoms: C_1  and  C_2
REMARK    2  A    between atoms: C_2  and  N_3
REMARK    3  A    between atoms: C_4  and  C_6
REMARK    4  A    between atoms: C_9  and  O_10
REMARK    5  A    between atoms: O_10  and  C_11
REMARK    6  A    between atoms: C_11  and  C_12
REMARK    7  A    between atoms: C_12  and  C_13
REMARK    8  A    between atoms: C_12  and  C_14
REMARK    9  A    between atoms: C_12  and  C_15
REMARK                            x       y       z     vdW  Elec       q    Type
REMARK                         _______ _______ _______ _____ _____    ______ ____
ROOT
ATOM      1  C   UNL     1      45.556   4.473  12.050  0.00  0.00    +0.000 A 
ATOM      2  C   UNL     1      45.926   5.770  12.422  0.00  0.00    +0.000 A 
ATOM      3  C   UNL     1      46.736   5.976  13.545  0.00  0.00    +0.000 A 
ATOM      4  C   UNL     1      47.181   4.891  14.301  0.00  0.00    +0.000 A 
ATOM      5  C   UNL     1      46.791   3.598  13.937  0.00  0.00    +0.000 A 
ATOM      6  C   UNL     1      45.978   3.386  12.820  0.00  0.00    +0.000 A 
ENDROOT
BRANCH   1   8
ATOM      7  N   UNL     1      45.277   4.305   9.633  0.00  0.00    +0.000 N 
ATOM      8  C   UNL     1      44.681   4.221  10.876  0.00  0.00    +0.000 C 
ATOM      9  O   UNL     1      43.498   3.939  11.041  0.00  0.00    +0.000 OA
ATOM     10  H   UNL     1      46.286   4.362   9.569  0.00  0.00    +0.000 HD
BRANCH   7  12
ATOM     11  C   UNL     1      45.344   3.299   7.395  0.00  0.00    +0.000 C 
ATOM     12  C   UNL     1      44.528   4.063   8.422  0.00  0.00    +0.000 C 
ENDBRANCH   7  12
ENDBRANCH   1   8
BRANCH   4  13
ATOM     13  O   UNL     1      47.983   4.961  15.406  0.00  0.00    +0.000 OA
BRANCH  13  14
ATOM     14  C   UNL     1      47.497   4.367  16.618  0.00  0.00    +0.000 C 
BRANCH  14  15
ATOM     15  C   UNL     1      48.658   3.664  17.370  0.00  0.00    +0.000 C 
ATOM     16  C   UNL     1      48.169   3.205  18.764  0.00  0.00    +0.000 C 
ATOM     17  C   UNL     1      49.073   2.393  16.596  0.00  0.00    +0.000 C 
BRANCH  15  18
ATOM     18  C   UNL     1      49.805   4.668  17.553  0.00  0.00    +0.000 A 
ATOM     19  C   UNL     1      49.607   5.975  18.004  0.00  0.00    +0.000 A 
ATOM     20  C   UNL     1      50.687   6.854  18.068  0.00  0.00    +0.000 A 
ATOM     21  C   UNL     1      51.947   6.417  17.692  0.00  0.00    +0.000 A 
ATOM     22  C   UNL     1      52.077   5.104  17.284  0.00  0.00    +0.000 A 
ATOM     23  N   UNL     1      51.047   4.229  17.215  0.00  0.00    +0.000 NA
ENDBRANCH  15  18
ENDBRANCH  14  15
ENDBRANCH  13  14
ENDBRANCH   4  13
TORSDOF 6
ENDMDL
MODEL 8
REMARK VINA RESULT:    -5.212      5.141      7.234
REMARK INTER + INTRA:          -8.000
REMARK INTER:                  -7.427
REMARK INTRA:                  -0.572
REMARK UNBOUND:                -0.959
REMARK  Name = 
REMARK  9 active torsions:
REMARK  status: ('A' for Active; 'I' for Inactive)
REMARK    1  A    between atoms: C_1  and  C_2
REMARK    2  A    between atoms: C_2  and  N_3
REMARK    3  A    between atoms: C_4  and  C_6
REMARK    4  A    between atoms: C_9  and  O_10
REMARK    5  A    between atoms: O_10  and  C_11
REMARK    6  A    between atoms: C_11  and  C_12
REMARK    7  A    between atoms: C_12  and  C_13
REMARK    8  A    between atoms: C_12  and  C_14
REMARK    9  A    between atoms: C_12  and  C_15
REMARK                            x       y       z     vdW  Elec       q    Type
REMARK                         _______ _______ _______ _____ _____    ______ ____
ROOT
ATOM      1  C   UNL     1      45.204   6.670  12.462  0.00  0.00    +0.000 A 
ATOM      2  C   UNL     1      46.416   7.304  12.754  0.00  0.00    +0.000 A 
ATOM      3  C   UNL     1      47.368   6.668  13.560  0.00  0.00    +0.000 A 
ATOM      4  C   UNL     1      47.116   5.397  14.077  0.00  0.00    +0.000 A 
ATOM      5  C   UNL     1      45.894   4.775  13.799  0.00  0.00    +0.000 A 
ATOM      6  C   UNL     1      44.937   5.408  13.000  0.00  0.00    +0.000 A 
ENDROOT
BRANCH   1   8
ATOM      7  N   UNL     1      44.288   8.689  11.447  0.00  0.00    +0.000 N 
ATOM      8  C   UNL     1      44.165   7.326  11.627  0.00  0.00    +0.000 C 
ATOM      9  O   UNL     1      43.268   6.655  11.125  0.00  0.00    +0.000 OA
ATOM     10  H   UNL     1      45.141   9.153  11.733  0.00  0.00    +0.000 HD
BRANCH   7  12
ATOM     11  C   UNL     1      43.701  10.903  10.565  0.00  0.00    +0.000 C 
ATOM     12  C   UNL     1      43.345   9.429  10.641  0.00  0.00    +0.000 C 
ENDBRANCH   7  12
ENDBRANCH   1   8
BRANCH   4  13
ATOM     13  O   UNL     1      47.966   4.670  14.862  0.00  0.00    +0.000 OA
BRANCH  13  14
ATOM     14  C   UNL     1      47.523   4.328  16.183  0.00  0.00    +0.000 C 
BRANCH  14  15
ATOM     15  C   UNL     1      48.477   4.943  17.242  0.00  0.00    +0.000 C 
ATOM     16  C   UNL     1      48.998   6.309  16.736  0.00  0.00    +0.000 C 
ATOM     17  C   UNL     1      47.690   5.213  18.543  0.00  0.00    +0.000 C 
BRANCH  15  18
ATOM     18  C   UNL     1      49.671   3.999  17.436  0.00  0.00    +0.000 A 
ATOM     19  C   UNL     1      50.902   4.423  17.943  0.00  0.00    +0.000 A 
ATOM     20  C   UNL     1      51.965   3.525  18.016  0.00  0.00    +0.000 A 
ATOM     21  C   UNL     1      51.786   2.217  17.592  0.00  0.00    +0.000 A 
ATOM     22  C   UNL     1      50.535   1.857  17.130  0.00  0.00    +0.000 A 
ATOM     23  N   UNL     1      49.486   2.708  17.051  0.00  0.00    +0.000 NA
ENDBRANCH  15  18
ENDBRANCH  14  15
ENDBRANCH  13  14
ENDBRANCH   4  13
TORSDOF 6
ENDMDL
MODEL 9
REMARK VINA RESULT:    -5.145      2.569      7.443
REMARK INTER + INTRA:          -7.909
REMARK INTER:                  -7.124
REMARK INTRA:                  -0.785
REMARK UNBOUND:                -0.959
REMARK  Name = 
REMARK  9 active torsions:
REMARK  status: ('A' for Active; 'I' for Inactive)
REMARK    1  A    between atoms: C_1  and  C_2
REMARK    2  A    between atoms: C_2  and  N_3
REMARK    3  A    between atoms: C_4  and  C_6
REMARK    4  A    between atoms: C_9  and  O_10
REMARK    5  A    between atoms: O_10  and  C_11
REMARK    6  A    between atoms: C_11  and  C_12
REMARK    7  A    between atoms: C_12  and  C_13
REMARK    8  A    between atoms: C_12  and  C_14
REMARK    9  A    between atoms: C_12  and  C_15
REMARK                            x       y       z     vdW  Elec       q    Type
REMARK                         _______ _______ _______ _____ _____    ______ ____
ROOT
ATOM      1  C   UNL     1      44.995   4.466  11.251  0.00  0.00    +0.000 A 
ATOM      2  C   UNL     1      45.342   5.607  10.520  0.00  0.00    +0.000 A 
ATOM      3  C   UNL     1      45.777   6.761  11.181  0.00  0.00    +0.000 A 
ATOM      4  C   UNL     1      45.869   6.784  12.573  0.00  0.00    +0.000 A 
ATOM      5  C   UNL     1      45.502   5.647  13.301  0.00  0.00    +0.000 A 
ATOM      6  C   UNL     1      45.061   4.493  12.647  0.00  0.00    +0.000 A 
ENDROOT
BRANCH   1   8
ATOM      7  N   UNL     1      45.242   2.789   9.499  0.00  0.00    +0.000 N 
ATOM      8  C   UNL     1      44.510   3.231  10.582  0.00  0.00    +0.000 C 
ATOM      9  O   UNL     1      43.516   2.652  11.009  0.00  0.00    +0.000 OA
ATOM     10  H   UNL     1      46.146   3.203   9.307  0.00  0.00    +0.000 HD
BRANCH   7  12
ATOM     11  C   UNL     1      46.059   0.977   8.059  0.00  0.00    +0.000 C 
ATOM     12  C   UNL     1      44.873   1.591   8.781  0.00  0.00    +0.000 C 
ENDBRANCH   7  12
ENDBRANCH   1   8
BRANCH   4  13
ATOM     13  O   UNL     1      46.291   7.840  13.330  0.00  0.00    +0.000 OA
BRANCH  13  14
ATOM     14  C   UNL     1      47.102   8.836  12.688  0.00  0.00    +0.000 C 
BRANCH  14  15
ATOM     15  C   UNL     1      48.592   8.639  13.074  0.00  0.00    +0.000 C 
ATOM     16  C   UNL     1      49.200   7.499  12.224  0.00  0.00    +0.000 C 
ATOM     17  C   UNL     1      49.381   9.924  12.735  0.00  0.00    +0.000 C 
BRANCH  15  18
ATOM     18  C   UNL     1      48.670   8.249  14.556  0.00  0.00    +0.000 A 
ATOM     19  C   UNL     1      48.997   6.961  14.987  0.00  0.00    +0.000 A 
ATOM     20  C   UNL     1      48.969   6.660  16.348  0.00  0.00    +0.000 A 
ATOM     21  C   UNL     1      48.625   7.648  17.259  0.00  0.00    +0.000 A 
ATOM     22  C   UNL     1      48.343   8.906  16.766  0.00  0.00    +0.000 A 
ATOM     23  N   UNL     1      48.365   9.225  15.451  0.00  0.00    +0.000 NA
ENDBRANCH  15  18
ENDBRANCH  14  15
ENDBRANCH  13  14
ENDBRANCH   4  13
TORSDOF 6
ENDMDL
