MODEL 1
REMARK VINA RESULT:    -8.219      0.000      0.000
REMARK INTER + INTRA:         -13.665
REMARK INTER:                 -12.544
REMARK INTRA:                  -1.121
REMARK UNBOUND:                -1.121
REMARK  Name = 
REMARK  10 active torsions:
REMARK  status: ('A' for Active; 'I' for Inactive)
REMARK    1  A    between atoms: C_1  and  C_2
REMARK    2  A    between atoms: C_5  and  O_6
REMARK    3  A    between atoms: O_6  and  C_7
REMARK    4  A    between atoms: C_9  and  C_10
REMARK    5  A    between atoms: C_10  and  C_11
REMARK    6  A    between atoms: C_16  and  N_17
REMARK    7  A    between atoms: N_17  and  C_18
REMARK    8  A    between atoms: C_18  and  C_19
REMARK    9  A    between atoms: C_19  and  C_22
REMARK   10  A    between atoms: C_25  and  C_26
REMARK                            x       y       z     vdW  Elec       q    Type
REMARK                         _______ _______ _______ _____ _____    ______ ____
ROOT
ATOM      1  C   UNL     1      47.268   5.536  14.170  0.00  0.00    +0.000 A 
ATOM      2  C   UNL     1      47.764   6.764  13.731  0.00  0.00    +0.000 A 
ATOM      3  C   UNL     1      46.981   7.585  12.917  0.00  0.00    +0.000 A 
ATOM      4  C   UNL     1      45.704   7.146  12.539  0.00  0.00    +0.000 A 
ATOM      5  C   UNL     1      45.223   5.882  12.894  0.00  0.00    +0.000 A 
ATOM      6  C   UNL     1      46.020   5.090  13.733  0.00  0.00    +0.000 A 
ENDROOT
BRANCH   5   7
ATOM      7  N   UNL     1      43.964   5.394  12.530  0.00  0.00    +0.000 N 
ATOM      8  H   UNL     1      43.580   4.794  13.257  0.00  0.00    +0.000 HD
BRANCH   7   9
ATOM      9  C   UNL     1      43.715   4.903  11.163  0.00  0.00    +0.000 C 
BRANCH   9  10
ATOM     10  C   UNL     1      44.146   3.431  10.943  0.00  0.00    +0.000 C 
ATOM     11  F   UNL     1      44.829   2.981  12.039  0.00  0.00    +0.000 F 
ATOM     12  F   UNL     1      43.005   2.673  10.920  0.00  0.00    +0.000 F 
BRANCH  10  13
ATOM     13  C   UNL     1      44.936   3.269   9.682  0.00  0.00    +0.000 A 
ATOM     14  C   UNL     1      45.328   2.034   9.205  0.00  0.00    +0.000 A 
ATOM     15  N   UNL     1      46.062   1.863   8.087  0.00  0.00    +0.000 NA
ATOM     16  C   UNL     1      46.407   3.002   7.435  0.00  0.00    +0.000 A 
ATOM     17  N   UNL     1      46.091   4.253   7.819  0.00  0.00    +0.000 NA
ATOM     18  C   UNL     1      45.354   4.353   8.939  0.00  0.00    +0.000 A 
BRANCH  16  19
ATOM     19  C   UNL     1      47.231   2.840   6.178  0.00  0.00    +0.000 C 
ATOM     20  N   UNL     1      48.558   2.528   6.372  0.00  0.00    +0.000 N 
ATOM     21  O   UNL     1      46.783   2.971   5.045  0.00  0.00    +0.000 OA
ATOM     22  H   UNL     1      48.924   2.410   7.309  0.00  0.00    +0.000 HD
ATOM     23  H   UNL     1      49.152   2.401   5.566  0.00  0.00    +0.000 HD
ENDBRANCH  16  19
ENDBRANCH  10  13
ENDBRANCH   9  10
ENDBRANCH   7   9
ENDBRANCH   5   7
BRANCH   1  24
ATOM     24  O   UNL     1      48.077   4.826  15.020  0.00  0.00    +0.000 OA
BRANCH  24  29
ATOM     25  C   UNL     1      47.231   5.443  18.724  0.00  0.00    +0.000 C 
ATOM     26  C   UNL     1      48.175   5.109  17.581  0.00  0.00    +0.000 C 
ATOM     27  O   UNL     1      48.921   3.901  17.884  0.00  0.00    +0.000 OA
ATOM     28  C   UNL     1      48.151   3.162  16.905  0.00  0.00    +0.000 C 
ATOM     29  C   UNL     1      47.554   4.454  16.322  0.00  0.00    +0.000 C 
ENDBRANCH  24  29
ENDBRANCH   1  24
BRANCH   3  30
ATOM     30  C   UNL     1      47.483   8.917  12.415  0.00  0.00    +0.000 C 
BRANCH  30  31
ATOM     31  C   UNL     1      48.840   8.871  11.713  0.00  0.00    +0.000 C 
ATOM     32  F   UNL     1      49.887   8.882  12.563  0.00  0.00    +0.000 F 
ATOM     33  F   UNL     1      48.946   7.751  10.960  0.00  0.00    +0.000 F 
ATOM     34  F   UNL     1      48.983   9.931  10.880  0.00  0.00    +0.000 F 
ENDBRANCH  30  31
ENDBRANCH   3  30
TORSDOF 9
ENDMDL
MODEL 2
REMARK VINA RESULT:    -8.144      2.782      4.943
REMARK INTER + INTRA:         -13.550
REMARK INTER:                 -12.476
REMARK INTRA:                  -1.074
REMARK UNBOUND:                -1.121
REMARK  Name = 
REMARK  10 active torsions:
REMARK  status: ('A' for Active; 'I' for Inactive)
REMARK    1  A    between atoms: C_1  and  C_2
REMARK    2  A    between atoms: C_5  and  O_6
REMARK    3  A    between atoms: O_6  and  C_7
REMARK    4  A    between atoms: C_9  and  C_10
REMARK    5  A    between atoms: C_10  and  C_11
REMARK    6  A    between atoms: C_16  and  N_17
REMARK    7  A    between atoms: N_17  and  C_18
REMARK    8  A    between atoms: C_18  and  C_19
REMARK    9  A    between atoms: C_19  and  C_22
REMARK   10  A    between atoms: C_25  and  C_26
REMARK                            x       y       z     vdW  Elec       q    Type
REMARK                         _______ _______ _______ _____ _____    ______ ____
ROOT
ATOM      1  C   UNL     1      48.310   6.338  14.032  0.00  0.00    +0.000 A 
ATOM      2  C   UNL     1      48.323   5.942  15.370  0.00  0.00    +0.000 A 
ATOM      3  C   UNL     1      47.484   4.914  15.804  0.00  0.00    +0.000 A 
ATOM      4  C   UNL     1      46.623   4.306  14.880  0.00  0.00    +0.000 A 
ATOM      5  C   UNL     1      46.529   4.747  13.556  0.00  0.00    +0.000 A 
ATOM      6  C   UNL     1      47.402   5.763  13.142  0.00  0.00    +0.000 A 
ENDROOT
BRANCH   5   7
ATOM      7  N   UNL     1      45.676   4.183  12.603  0.00  0.00    +0.000 N 
ATOM      8  H   UNL     1      46.166   3.494  12.035  0.00  0.00    +0.000 HD
BRANCH   7   9
ATOM      9  C   UNL     1      44.742   5.026  11.837  0.00  0.00    +0.000 C 
BRANCH   9  10
ATOM     10  C   UNL     1      43.962   4.254  10.742  0.00  0.00    +0.000 C 
ATOM     11  F   UNL     1      43.256   3.230  11.313  0.00  0.00    +0.000 F 
ATOM     12  F   UNL     1      42.999   5.100  10.258  0.00  0.00    +0.000 F 
BRANCH  10  13
ATOM     13  C   UNL     1      44.867   3.774   9.652  0.00  0.00    +0.000 A 
ATOM     14  C   UNL     1      45.519   4.637   8.793  0.00  0.00    +0.000 A 
ATOM     15  N   UNL     1      46.318   4.229   7.787  0.00  0.00    +0.000 NA
ATOM     16  C   UNL     1      46.453   2.886   7.656  0.00  0.00    +0.000 A 
ATOM     17  N   UNL     1      45.854   1.957   8.427  0.00  0.00    +0.000 NA
ATOM     18  C   UNL     1      45.074   2.431   9.415  0.00  0.00    +0.000 A 
BRANCH  16  19
ATOM     19  C   UNL     1      47.344   2.399   6.536  0.00  0.00    +0.000 C 
ATOM     20  N   UNL     1      47.159   3.016   5.319  0.00  0.00    +0.000 N 
ATOM     21  O   UNL     1      48.184   1.516   6.664  0.00  0.00    +0.000 OA
ATOM     22  H   UNL     1      46.472   3.753   5.218  0.00  0.00    +0.000 HD
ATOM     23  H   UNL     1      47.733   2.735   4.538  0.00  0.00    +0.000 HD
ENDBRANCH  16  19
ENDBRANCH  10  13
ENDBRANCH   9  10
ENDBRANCH   7   9
ENDBRANCH   5   7
BRANCH   1  24
ATOM     24  O   UNL     1      49.214   7.308  13.680  0.00  0.00    +0.000 OA
BRANCH  24  29
ATOM     25  C   UNL     1      51.505   7.669  10.608  0.00  0.00    +0.000 C 
ATOM     26  C   UNL     1      50.830   8.179  11.870  0.00  0.00    +0.000 C 
ATOM     27  O   UNL     1      50.167   9.444  11.607  0.00  0.00    +0.000 OA
ATOM     28  C   UNL     1      48.873   8.798  11.682  0.00  0.00    +0.000 C 
ATOM     29  C   UNL     1      49.488   7.517  12.269  0.00  0.00    +0.000 C 
ENDBRANCH  24  29
ENDBRANCH   1  24
BRANCH   3  30
ATOM     30  C   UNL     1      47.463   4.460  17.244  0.00  0.00    +0.000 C 
BRANCH  30  31
ATOM     31  C   UNL     1      47.811   2.988  17.459  0.00  0.00    +0.000 C 
ATOM     32  F   UNL     1      46.739   2.213  17.721  0.00  0.00    +0.000 F 
ATOM     33  F   UNL     1      48.416   2.478  16.361  0.00  0.00    +0.000 F 
ATOM     34  F   UNL     1      48.674   2.848  18.496  0.00  0.00    +0.000 F 
ENDBRANCH  30  31
ENDBRANCH   3  30
TORSDOF 9
ENDMDL
MODEL 3
REMARK VINA RESULT:    -7.812      1.522      2.005
REMARK INTER + INTRA:         -13.043
REMARK INTER:                 -11.890
REMARK INTRA:                  -1.154
REMARK UNBOUND:                -1.121
REMARK  Name = 
REMARK  10 active torsions:
REMARK  status: ('A' for Active; 'I' for Inactive)
REMARK    1  A    between atoms: C_1  and  C_2
REMARK    2  A    between atoms: C_5  and  O_6
REMARK    3  A    between atoms: O_6  and  C_7
REMARK    4  A    between atoms: C_9  and  C_10
REMARK    5  A    between atoms: C_10  and  C_11
REMARK    6  A    between atoms: C_16  and  N_17
REMARK    7  A    between atoms: N_17  and  C_18
REMARK    8  A    between atoms: C_18  and  C_19
REMARK    9  A    between atoms: C_19  and  C_22
REMARK   10  A    between atoms: C_25  and  C_26
REMARK                            x       y       z     vdW  Elec       q    Type
REMARK                         _______ _______ _______ _____ _____    ______ ____
ROOT
ATOM      1  C   UNL     1      47.897   6.077  14.223  0.00  0.00    +0.000 A 
ATOM      2  C   UNL     1      48.700   7.088  13.694  0.00  0.00    +0.000 A 
ATOM      3  C   UNL     1      48.332   7.726  12.507  0.00  0.00    +0.000 A 
ATOM      4  C   UNL     1      47.159   7.321  11.856  0.00  0.00    +0.000 A 
ATOM      5  C   UNL     1      46.387   6.251  12.319  0.00  0.00    +0.000 A 
ATOM      6  C   UNL     1      46.767   5.647  13.526  0.00  0.00    +0.000 A 
ENDROOT
BRANCH   5   7
ATOM      7  N   UNL     1      45.219   5.801  11.697  0.00  0.00    +0.000 N 
ATOM      8  H   UNL     1      44.486   6.506  11.742  0.00  0.00    +0.000 HD
BRANCH   7   9
ATOM      9  C   UNL     1      44.734   4.427  11.912  0.00  0.00    +0.000 C 
BRANCH   9  10
ATOM     10  C   UNL     1      43.938   3.854  10.712  0.00  0.00    +0.000 C 
ATOM     11  F   UNL     1      43.160   2.809  11.130  0.00  0.00    +0.000 F 
ATOM     12  F   UNL     1      43.039   4.813  10.327  0.00  0.00    +0.000 F 
BRANCH  10  13
ATOM     13  C   UNL     1      44.841   3.466   9.583  0.00  0.00    +0.000 A 
ATOM     14  C   UNL     1      45.305   4.377   8.656  0.00  0.00    +0.000 A 
ATOM     15  N   UNL     1      46.097   4.049   7.616  0.00  0.00    +0.000 NA
ATOM     16  C   UNL     1      46.425   2.735   7.523  0.00  0.00    +0.000 A 
ATOM     17  N   UNL     1      46.018   1.763   8.362  0.00  0.00    +0.000 NA
ATOM     18  C   UNL     1      45.234   2.159   9.380  0.00  0.00    +0.000 A 
BRANCH  16  19
ATOM     19  C   UNL     1      47.313   2.338   6.366  0.00  0.00    +0.000 C 
ATOM     20  N   UNL     1      47.276   3.175   5.274  0.00  0.00    +0.000 N 
ATOM     21  O   UNL     1      48.029   1.344   6.363  0.00  0.00    +0.000 OA
ATOM     22  H   UNL     1      46.690   4.002   5.282  0.00  0.00    +0.000 HD
ATOM     23  H   UNL     1      47.855   2.960   4.475  0.00  0.00    +0.000 HD
ENDBRANCH  16  19
ENDBRANCH  10  13
ENDBRANCH   9  10
ENDBRANCH   7   9
ENDBRANCH   5   7
BRANCH   1  24
ATOM     24  O   UNL     1      48.299   5.552  15.424  0.00  0.00    +0.000 OA
BRANCH  24  29
ATOM     25  C   UNL     1      51.653   5.837  17.291  0.00  0.00    +0.000 C 
ATOM     26  C   UNL     1      50.188   5.449  17.175  0.00  0.00    +0.000 C 
ATOM     27  O   UNL     1      49.440   5.972  18.304  0.00  0.00    +0.000 OA
ATOM     28  C   UNL     1      48.810   6.956  17.448  0.00  0.00    +0.000 C 
ATOM     29  C   UNL     1      49.321   6.256  16.178  0.00  0.00    +0.000 C 
ENDBRANCH  24  29
ENDBRANCH   1  24
BRANCH   3  30
ATOM     30  C   UNL     1      49.176   8.820  11.899  0.00  0.00    +0.000 C 
BRANCH  30  31
ATOM     31  C   UNL     1      50.609   8.413  11.558  0.00  0.00    +0.000 C 
ATOM     32  F   UNL     1      51.422   8.354  12.631  0.00  0.00    +0.000 F 
ATOM     33  F   UNL     1      50.628   7.192  10.973  0.00  0.00    +0.000 F 
ATOM     34  F   UNL     1      51.158   9.288  10.680  0.00  0.00    +0.000 F 
ENDBRANCH  30  31
ENDBRANCH   3  30
TORSDOF 9
ENDMDL
MODEL 4
REMARK VINA RESULT:    -7.566      1.494      1.980
REMARK INTER + INTRA:         -12.668
REMARK INTER:                 -11.333
REMARK INTRA:                  -1.335
REMARK UNBOUND:                -1.121
REMARK  Name = 
REMARK  10 active torsions:
REMARK  status: ('A' for Active; 'I' for Inactive)
REMARK    1  A    between atoms: C_1  and  C_2
REMARK    2  A    between atoms: C_5  and  O_6
REMARK    3  A    between atoms: O_6  and  C_7
REMARK    4  A    between atoms: C_9  and  C_10
REMARK    5  A    between atoms: C_10  and  C_11
REMARK    6  A    between atoms: C_16  and  N_17
REMARK    7  A    between atoms: N_17  and  C_18
REMARK    8  A    between atoms: C_18  and  C_19
REMARK    9  A    between atoms: C_19  and  C_22
REMARK   10  A    between atoms: C_25  and  C_26
REMARK                            x       y       z     vdW  Elec       q    Type
REMARK                         _______ _______ _______ _____ _____    ______ ____
ROOT
ATOM      1  C   UNL     1      47.607   5.318  15.311  0.00  0.00    +0.000 A 
ATOM      2  C   UNL     1      48.211   6.334  14.569  0.00  0.00    +0.000 A 
ATOM      3  C   UNL     1      47.926   6.474  13.209  0.00  0.00    +0.000 A 
ATOM      4  C   UNL     1      47.040   5.569  12.606  0.00  0.00    +0.000 A 
ATOM      5  C   UNL     1      46.493   4.490  13.309  0.00  0.00    +0.000 A 
ATOM      6  C   UNL     1      46.777   4.391  14.678  0.00  0.00    +0.000 A 
ENDROOT
BRANCH   5   7
ATOM      7  N   UNL     1      45.618   3.555  12.748  0.00  0.00    +0.000 N 
ATOM      8  H   UNL     1      46.015   3.141  11.907  0.00  0.00    +0.000 HD
BRANCH   7   9
ATOM      9  C   UNL     1      44.177   3.842  12.644  0.00  0.00    +0.000 C 
BRANCH   9  10
ATOM     10  C   UNL     1      43.780   4.565  11.332  0.00  0.00    +0.000 C 
ATOM     11  F   UNL     1      42.424   4.503  11.162  0.00  0.00    +0.000 F 
ATOM     12  F   UNL     1      44.038   5.898  11.511  0.00  0.00    +0.000 F 
BRANCH  10  13
ATOM     13  C   UNL     1      44.520   4.017  10.153  0.00  0.00    +0.000 A 
ATOM     14  C   UNL     1      44.544   2.669   9.852  0.00  0.00    +0.000 A 
ATOM     15  N   UNL     1      45.225   2.148   8.811  0.00  0.00    +0.000 NA
ATOM     16  C   UNL     1      45.907   3.042   8.052  0.00  0.00    +0.000 A 
ATOM     17  N   UNL     1      45.961   4.371   8.263  0.00  0.00    +0.000 NA
ATOM     18  C   UNL     1      45.257   4.827   9.314  0.00  0.00    +0.000 A 
BRANCH  16  19
ATOM     19  C   UNL     1      46.679   2.485   6.878  0.00  0.00    +0.000 C 
ATOM     20  N   UNL     1      47.488   1.407   7.156  0.00  0.00    +0.000 N 
ATOM     21  O   UNL     1      46.616   2.937   5.741  0.00  0.00    +0.000 OA
ATOM     22  H   UNL     1      47.531   1.028   8.095  0.00  0.00    +0.000 HD
ATOM     23  H   UNL     1      48.021   0.990   6.407  0.00  0.00    +0.000 HD
ENDBRANCH  16  19
ENDBRANCH  10  13
ENDBRANCH   9  10
ENDBRANCH   7   9
ENDBRANCH   5   7
BRANCH   1  24
ATOM     24  O   UNL     1      47.892   5.297  16.652  0.00  0.00    +0.000 OA
BRANCH  24  29
ATOM     25  C   UNL     1      50.060   2.137  17.020  0.00  0.00    +0.000 C 
ATOM     26  C   UNL     1      48.898   3.042  17.395  0.00  0.00    +0.000 C 
ATOM     27  O   UNL     1      48.895   3.287  18.826  0.00  0.00    +0.000 OA
ATOM     28  C   UNL     1      49.336   4.650  18.608  0.00  0.00    +0.000 C 
ATOM     29  C   UNL     1      49.057   4.554  17.098  0.00  0.00    +0.000 C 
ENDBRANCH  24  29
ENDBRANCH   1  24
BRANCH   3  30
ATOM     30  C   UNL     1      48.563   7.554  12.370  0.00  0.00    +0.000 C 
BRANCH  30  31
ATOM     31  C   UNL     1      47.746   8.839  12.247  0.00  0.00    +0.000 C 
ATOM     32  F   UNL     1      48.278   9.737  11.393  0.00  0.00    +0.000 F 
ATOM     33  F   UNL     1      46.494   8.564  11.812  0.00  0.00    +0.000 F 
ATOM     34  F   UNL     1      47.628   9.448  13.453  0.00  0.00    +0.000 F 
ENDBRANCH  30  31
ENDBRANCH   3  30
TORSDOF 9
ENDMDL
MODEL 5
REMARK VINA RESULT:    -7.482      2.929      3.792
REMARK INTER + INTRA:         -12.540
REMARK INTER:                 -11.450
REMARK INTRA:                  -1.089
REMARK UNBOUND:                -1.121
REMARK  Name = 
REMARK  10 active torsions:
REMARK  status: ('A' for Active; 'I' for Inactive)
REMARK    1  A    between atoms: C_1  and  C_2
REMARK    2  A    between atoms: C_5  and  O_6
REMARK    3  A    between atoms: O_6  and  C_7
REMARK    4  A    between atoms: C_9  and  C_10
REMARK    5  A    between atoms: C_10  and  C_11
REMARK    6  A    between atoms: C_16  and  N_17
REMARK    7  A    between atoms: N_17  and  C_18
REMARK    8  A    between atoms: C_18  and  C_19
REMARK    9  A    between atoms: C_19  and  C_22
REMARK   10  A    between atoms: C_25  and  C_26
REMARK                            x       y       z     vdW  Elec       q    Type
REMARK                         _______ _______ _______ _____ _____    ______ ____
ROOT
ATOM      1  C   UNL     1      47.929   8.334  12.090  0.00  0.00    +0.000 A 
ATOM      2  C   UNL     1      46.924   9.300  12.154  0.00  0.00    +0.000 A 
ATOM      3  C   UNL     1      45.582   8.920  12.090  0.00  0.00    +0.000 A 
ATOM      4  C   UNL     1      45.269   7.561  11.943  0.00  0.00    +0.000 A 
ATOM      5  C   UNL     1      46.260   6.587  11.787  0.00  0.00    +0.000 A 
ATOM      6  C   UNL     1      47.598   6.995  11.882  0.00  0.00    +0.000 A 
ENDROOT
BRANCH   5   7
ATOM      7  N   UNL     1      45.997   5.224  11.623  0.00  0.00    +0.000 N 
ATOM      8  H   UNL     1      46.375   4.881  10.742  0.00  0.00    +0.000 HD
BRANCH   7   9
ATOM      9  C   UNL     1      44.674   4.668  11.955  0.00  0.00    +0.000 C 
BRANCH   9  10
ATOM     10  C   UNL     1      43.891   4.146  10.724  0.00  0.00    +0.000 C 
ATOM     11  F   UNL     1      43.022   3.163  11.111  0.00  0.00    +0.000 F 
ATOM     12  F   UNL     1      43.082   5.165  10.296  0.00  0.00    +0.000 F 
BRANCH  10  13
ATOM     13  C   UNL     1      44.812   3.686   9.637  0.00  0.00    +0.000 A 
ATOM     14  C   UNL     1      45.353   4.551   8.707  0.00  0.00    +0.000 A 
ATOM     15  N   UNL     1      46.164   4.158   7.703  0.00  0.00    +0.000 NA
ATOM     16  C   UNL     1      46.427   2.828   7.652  0.00  0.00    +0.000 A 
ATOM     17  N   UNL     1      45.942   1.898   8.498  0.00  0.00    +0.000 NA
ATOM     18  C   UNL     1      45.145   2.357   9.478  0.00  0.00    +0.000 A 
BRANCH  16  19
ATOM     19  C   UNL     1      47.333   2.359   6.536  0.00  0.00    +0.000 C 
ATOM     20  N   UNL     1      47.315   3.125   5.394  0.00  0.00    +0.000 N 
ATOM     21  O   UNL     1      48.048   1.366   6.608  0.00  0.00    +0.000 OA
ATOM     22  H   UNL     1      46.730   3.951   5.341  0.00  0.00    +0.000 HD
ATOM     23  H   UNL     1      47.907   2.862   4.620  0.00  0.00    +0.000 HD
ENDBRANCH  16  19
ENDBRANCH  10  13
ENDBRANCH   9  10
ENDBRANCH   7   9
ENDBRANCH   5   7
BRANCH   1  24
ATOM     24  O   UNL     1      49.215   8.790  12.229  0.00  0.00    +0.000 OA
BRANCH  24  29
ATOM     25  C   UNL     1      49.977   7.018  15.560  0.00  0.00    +0.000 C 
ATOM     26  C   UNL     1      49.718   8.242  14.698  0.00  0.00    +0.000 C 
ATOM     27  O   UNL     1      50.755   9.235  14.912  0.00  0.00    +0.000 OA
ATOM     28  C   UNL     1      51.314   8.955  13.606  0.00  0.00    +0.000 C 
ATOM     29  C   UNL     1      50.079   8.136  13.196  0.00  0.00    +0.000 C 
ENDBRANCH  24  29
ENDBRANCH   1  24
BRANCH   3  30
ATOM     30  C   UNL     1      44.465   9.934  12.149  0.00  0.00    +0.000 C 
BRANCH  30  31
ATOM     31  C   UNL     1      43.569   9.977  10.912  0.00  0.00    +0.000 C 
ATOM     32  F   UNL     1      42.826   8.864  10.745  0.00  0.00    +0.000 F 
ATOM     33  F   UNL     1      42.714  11.024  10.983  0.00  0.00    +0.000 F 
ATOM     34  F   UNL     1      44.312  10.140   9.789  0.00  0.00    +0.000 F 
ENDBRANCH  30  31
ENDBRANCH   3  30
TORSDOF 9
ENDMDL
MODEL 6
REMARK VINA RESULT:    -7.288      4.274      7.905
REMARK INTER + INTRA:         -12.243
REMARK INTER:                 -11.194
REMARK INTRA:                  -1.050
REMARK UNBOUND:                -1.121
REMARK  Name = 
REMARK  10 active torsions:
REMARK  status: ('A' for Active; 'I' for Inactive)
REMARK    1  A    between atoms: C_1  and  C_2
REMARK    2  A    between atoms: C_5  and  O_6
REMARK    3  A    between atoms: O_6  and  C_7
REMARK    4  A    between atoms: C_9  and  C_10
REMARK    5  A    between atoms: C_10  and  C_11
REMARK    6  A    between atoms: C_16  and  N_17
REMARK    7  A    between atoms: N_17  and  C_18
REMARK    8  A    between atoms: C_18  and  C_19
REMARK    9  A    between atoms: C_19  and  C_22
REMARK   10  A    between atoms: C_25  and  C_26
REMARK                            x       y       z     vdW  Elec       q    Type
REMARK                         _______ _______ _______ _____ _____    ______ ____
ROOT
ATOM      1  C   UNL     1      46.364   6.569  12.055  0.00  0.00    +0.000 A 
ATOM      2  C   UNL     1      45.553   5.946  11.106  0.00  0.00    +0.000 A 
ATOM      3  C   UNL     1      45.023   4.679  11.360  0.00  0.00    +0.000 A 
ATOM      4  C   UNL     1      45.335   4.045  12.572  0.00  0.00    +0.000 A 
ATOM      5  C   UNL     1      46.217   4.612  13.497  0.00  0.00    +0.000 A 
ATOM      6  C   UNL     1      46.712   5.895  13.227  0.00  0.00    +0.000 A 
ENDROOT
BRANCH   5   7
ATOM      7  N   UNL     1      46.569   4.012  14.710  0.00  0.00    +0.000 N 
ATOM      8  H   UNL     1      45.753   3.620  15.175  0.00  0.00    +0.000 HD
BRANCH   7   9
ATOM      9  C   UNL     1      47.514   4.672  15.628  0.00  0.00    +0.000 C 
BRANCH   9  10
ATOM     10  C   UNL     1      47.647   3.962  16.999  0.00  0.00    +0.000 C 
ATOM     11  F   UNL     1      47.408   4.854  18.008  0.00  0.00    +0.000 F 
ATOM     12  F   UNL     1      46.618   3.062  17.091  0.00  0.00    +0.000 F 
BRANCH  10  13
ATOM     13  C   UNL     1      48.977   3.290  17.147  0.00  0.00    +0.000 A 
ATOM     14  C   UNL     1      49.233   2.030  16.644  0.00  0.00    +0.000 A 
ATOM     15  N   UNL     1      50.412   1.393  16.787  0.00  0.00    +0.000 NA
ATOM     16  C   UNL     1      51.364   2.074  17.474  0.00  0.00    +0.000 A 
ATOM     17  N   UNL     1      51.216   3.297  18.018  0.00  0.00    +0.000 NA
ATOM     18  C   UNL     1      50.018   3.879  17.835  0.00  0.00    +0.000 A 
BRANCH  16  19
ATOM     19  C   UNL     1      52.697   1.383  17.650  0.00  0.00    +0.000 C 
ATOM     20  N   UNL     1      52.641   0.097  18.136  0.00  0.00    +0.000 N 
ATOM     21  O   UNL     1      53.776   1.902  17.389  0.00  0.00    +0.000 OA
ATOM     22  H   UNL     1      51.747  -0.334  18.342  0.00  0.00    +0.000 HD
ATOM     23  H   UNL     1      53.502  -0.414  18.266  0.00  0.00    +0.000 HD
ENDBRANCH  16  19
ENDBRANCH  10  13
ENDBRANCH   9  10
ENDBRANCH   7   9
ENDBRANCH   5   7
BRANCH   1  24
ATOM     24  O   UNL     1      46.785   7.839  11.751  0.00  0.00    +0.000 OA
BRANCH  24  29
ATOM     25  C   UNL     1      48.851  10.577  13.496  0.00  0.00    +0.000 C 
ATOM     26  C   UNL     1      48.290   9.864  12.277  0.00  0.00    +0.000 C 
ATOM     27  O   UNL     1      49.355   9.568  11.336  0.00  0.00    +0.000 OA
ATOM     28  C   UNL     1      49.278   8.161  11.670  0.00  0.00    +0.000 C 
ATOM     29  C   UNL     1      47.957   8.360  12.431  0.00  0.00    +0.000 C 
ENDBRANCH  24  29
ENDBRANCH   1  24
BRANCH   3  30
ATOM     30  C   UNL     1      44.148   3.968  10.358  0.00  0.00    +0.000 C 
BRANCH  30  31
ATOM     31  C   UNL     1      44.903   3.228   9.255  0.00  0.00    +0.000 C 
ATOM     32  F   UNL     1      44.098   2.699   8.311  0.00  0.00    +0.000 F 
ATOM     33  F   UNL     1      45.763   4.063   8.627  0.00  0.00    +0.000 F 
ATOM     34  F   UNL     1      45.636   2.213   9.776  0.00  0.00    +0.000 F 
ENDBRANCH  30  31
ENDBRANCH   3  30
TORSDOF 9
ENDMDL
MODEL 7
REMARK VINA RESULT:    -7.167      4.149      7.858
REMARK INTER + INTRA:         -12.060
REMARK INTER:                 -10.957
REMARK INTRA:                  -1.103
REMARK UNBOUND:                -1.121
REMARK  Name = 
REMARK  10 active torsions:
REMARK  status: ('A' for Active; 'I' for Inactive)
REMARK    1  A    between atoms: C_1  and  C_2
REMARK    2  A    between atoms: C_5  and  O_6
REMARK    3  A    between atoms: O_6  and  C_7
REMARK    4  A    between atoms: C_9  and  C_10
REMARK    5  A    between atoms: C_10  and  C_11
REMARK    6  A    between atoms: C_16  and  N_17
REMARK    7  A    between atoms: N_17  and  C_18
REMARK    8  A    between atoms: C_18  and  C_19
REMARK    9  A    between atoms: C_19  and  C_22
REMARK   10  A    between atoms: C_25  and  C_26
REMARK                            x       y       z     vdW  Elec       q    Type
REMARK                         _______ _______ _______ _____ _____    ______ ____
ROOT
ATOM      1  C   UNL     1      45.421   5.230  11.583  0.00  0.00    +0.000 A 
ATOM      2  C   UNL     1      45.872   6.534  11.371  0.00  0.00    +0.000 A 
ATOM      3  C   UNL     1      46.678   7.161  12.324  0.00  0.00    +0.000 A 
ATOM      4  C   UNL     1      47.007   6.464  13.496  0.00  0.00    +0.000 A 
ATOM      5  C   UNL     1      46.493   5.193  13.770  0.00  0.00    +0.000 A 
ATOM      6  C   UNL     1      45.709   4.579  12.783  0.00  0.00    +0.000 A 
ENDROOT
BRANCH   5   7
ATOM      7  N   UNL     1      46.781   4.466  14.929  0.00  0.00    +0.000 N 
ATOM      8  H   UNL     1      45.932   4.084  15.341  0.00  0.00    +0.000 HD
BRANCH   7   9
ATOM      9  C   UNL     1      47.740   4.982  15.921  0.00  0.00    +0.000 C 
BRANCH   9  10
ATOM     10  C   UNL     1      47.817   4.130  17.213  0.00  0.00    +0.000 C 
ATOM     11  F   UNL     1      47.540   4.912  18.301  0.00  0.00    +0.000 F 
ATOM     12  F   UNL     1      46.783   3.232  17.169  0.00  0.00    +0.000 F 
BRANCH  10  13
ATOM     13  C   UNL     1      49.138   3.437  17.341  0.00  0.00    +0.000 A 
ATOM     14  C   UNL     1      49.349   2.149  16.890  0.00  0.00    +0.000 A 
ATOM     15  N   UNL     1      50.520   1.494  17.017  0.00  0.00    +0.000 NA
ATOM     16  C   UNL     1      51.512   2.186  17.632  0.00  0.00    +0.000 A 
ATOM     17  N   UNL     1      51.411   3.437  18.121  0.00  0.00    +0.000 NA
ATOM     18  C   UNL     1      50.218   4.035  17.957  0.00  0.00    +0.000 A 
BRANCH  16  19
ATOM     19  C   UNL     1      52.838   1.476  17.788  0.00  0.00    +0.000 C 
ATOM     20  N   UNL     1      53.948   2.201  17.422  0.00  0.00    +0.000 N 
ATOM     21  O   UNL     1      52.954   0.331  18.209  0.00  0.00    +0.000 OA
ATOM     22  H   UNL     1      53.850   3.152  17.084  0.00  0.00    +0.000 HD
ATOM     23  H   UNL     1      54.860   1.777  17.513  0.00  0.00    +0.000 HD
ENDBRANCH  16  19
ENDBRANCH  10  13
ENDBRANCH   9  10
ENDBRANCH   7   9
ENDBRANCH   5   7
BRANCH   1  24
ATOM     24  O   UNL     1      44.692   4.670  10.566  0.00  0.00    +0.000 OA
BRANCH  24  29
ATOM     25  C   UNL     1      46.316   3.519   7.272  0.00  0.00    +0.000 C 
ATOM     26  C   UNL     1      45.129   3.834   8.167  0.00  0.00    +0.000 C 
ATOM     27  O   UNL     1      44.197   2.721   8.174  0.00  0.00    +0.000 OA
ATOM     28  C   UNL     1      44.589   2.382   9.526  0.00  0.00    +0.000 C 
ATOM     29  C   UNL     1      45.346   3.710   9.695  0.00  0.00    +0.000 C 
ENDBRANCH  24  29
ENDBRANCH   1  24
BRANCH   3  30
ATOM     30  C   UNL     1      47.180   8.571  12.136  0.00  0.00    +0.000 C 
BRANCH  30  31
ATOM     31  C   UNL     1      48.663   8.684  11.785  0.00  0.00    +0.000 C 
ATOM     32  F   UNL     1      49.117   7.666  11.026  0.00  0.00    +0.000 F 
ATOM     33  F   UNL     1      48.902   9.830  11.104  0.00  0.00    +0.000 F 
ATOM     34  F   UNL     1      49.419   8.719  12.910  0.00  0.00    +0.000 F 
ENDBRANCH  30  31
ENDBRANCH   3  30
TORSDOF 9
ENDMDL
MODEL 8
REMARK VINA RESULT:    -7.120      4.348      8.196
REMARK INTER + INTRA:         -11.988
REMARK INTER:                 -10.873
REMARK INTRA:                  -1.114
REMARK UNBOUND:                -1.121
REMARK  Name = 
REMARK  10 active torsions:
REMARK  status: ('A' for Active; 'I' for Inactive)
REMARK    1  A    between atoms: C_1  and  C_2
REMARK    2  A    between atoms: C_5  and  O_6
REMARK    3  A    between atoms: O_6  and  C_7
REMARK    4  A    between atoms: C_9  and  C_10
REMARK    5  A    between atoms: C_10  and  C_11
REMARK    6  A    between atoms: C_16  and  N_17
REMARK    7  A    between atoms: N_17  and  C_18
REMARK    8  A    between atoms: C_18  and  C_19
REMARK    9  A    between atoms: C_19  and  C_22
REMARK   10  A    between atoms: C_25  and  C_26
REMARK                            x       y       z     vdW  Elec       q    Type
REMARK                         _______ _______ _______ _____ _____    ______ ____
ROOT
ATOM      1  C   UNL     1      45.820   6.648  11.964  0.00  0.00    +0.000 A 
ATOM      2  C   UNL     1      45.027   5.967  11.038  0.00  0.00    +0.000 A 
ATOM      3  C   UNL     1      44.693   4.628  11.252  0.00  0.00    +0.000 A 
ATOM      4  C   UNL     1      45.183   3.982  12.396  0.00  0.00    +0.000 A 
ATOM      5  C   UNL     1      46.051   4.617  13.289  0.00  0.00    +0.000 A 
ATOM      6  C   UNL     1      46.347   5.969  13.063  0.00  0.00    +0.000 A 
ENDROOT
BRANCH   5   7
ATOM      7  N   UNL     1      46.577   4.011  14.435  0.00  0.00    +0.000 N 
ATOM      8  H   UNL     1      45.902   3.374  14.853  0.00  0.00    +0.000 HD
BRANCH   7   9
ATOM      9  C   UNL     1      47.339   4.799  15.420  0.00  0.00    +0.000 C 
BRANCH   9  10
ATOM     10  C   UNL     1      47.433   4.127  16.813  0.00  0.00    +0.000 C 
ATOM     11  F   UNL     1      47.124   5.038  17.787  0.00  0.00    +0.000 F 
ATOM     12  F   UNL     1      46.427   3.200  16.885  0.00  0.00    +0.000 F 
BRANCH  10  13
ATOM     13  C   UNL     1      48.773   3.499  17.036  0.00  0.00    +0.000 A 
ATOM     14  C   UNL     1      49.818   4.172  17.639  0.00  0.00    +0.000 A 
ATOM     15  N   UNL     1      51.042   3.638  17.826  0.00  0.00    +0.000 NA
ATOM     16  C   UNL     1      51.200   2.368  17.377  0.00  0.00    +0.000 A 
ATOM     17  N   UNL     1      50.256   1.628  16.764  0.00  0.00    +0.000 NA
ATOM     18  C   UNL     1      49.057   2.218  16.612  0.00  0.00    +0.000 A 
BRANCH  16  19
ATOM     19  C   UNL     1      52.563   1.744  17.574  0.00  0.00    +0.000 C 
ATOM     20  N   UNL     1      52.613   0.374  17.453  0.00  0.00    +0.000 N 
ATOM     21  O   UNL     1      53.577   2.383  17.827  0.00  0.00    +0.000 OA
ATOM     22  H   UNL     1      51.775  -0.151  17.233  0.00  0.00    +0.000 HD
ATOM     23  H   UNL     1      53.500  -0.094  17.567  0.00  0.00    +0.000 HD
ENDBRANCH  16  19
ENDBRANCH  10  13
ENDBRANCH   9  10
ENDBRANCH   7   9
ENDBRANCH   5   7
BRANCH   1  24
ATOM     24  O   UNL     1      46.041   7.977  11.708  0.00  0.00    +0.000 OA
BRANCH  24  29
ATOM     25  C   UNL     1      42.730   9.674  10.720  0.00  0.00    +0.000 C 
ATOM     26  C   UNL     1      44.234   9.470  10.635  0.00  0.00    +0.000 C 
ATOM     27  O   UNL     1      44.921  10.741  10.775  0.00  0.00    +0.000 OA
ATOM     28  C   UNL     1      45.371  10.369  12.100  0.00  0.00    +0.000 C 
ATOM     29  C   UNL     1      44.942   8.907  11.893  0.00  0.00    +0.000 C 
ENDBRANCH  24  29
ENDBRANCH   1  24
BRANCH   3  30
ATOM     30  C   UNL     1      43.844   3.855  10.273  0.00  0.00    +0.000 C 
BRANCH  30  31
ATOM     31  C   UNL     1      44.627   3.076   9.217  0.00  0.00    +0.000 C 
ATOM     32  F   UNL     1      45.944   3.365   9.199  0.00  0.00    +0.000 F 
ATOM     33  F   UNL     1      44.512   1.744   9.429  0.00  0.00    +0.000 F 
ATOM     34  F   UNL     1      44.140   3.329   7.977  0.00  0.00    +0.000 F 
ENDBRANCH  30  31
ENDBRANCH   3  30
TORSDOF 9
ENDMDL
MODEL 9
REMARK VINA RESULT:    -7.076      3.324      7.371
REMARK INTER + INTRA:         -11.920
REMARK INTER:                 -11.635
REMARK INTRA:                  -0.285
REMARK UNBOUND:                -1.121
REMARK  Name = 
REMARK  10 active torsions:
REMARK  status: ('A' for Active; 'I' for Inactive)
REMARK    1  A    between atoms: C_1  and  C_2
REMARK    2  A    between atoms: C_5  and  O_6
REMARK    3  A    between atoms: O_6  and  C_7
REMARK    4  A    between atoms: C_9  and  C_10
REMARK    5  A    between atoms: C_10  and  C_11
REMARK    6  A    between atoms: C_16  and  N_17
REMARK    7  A    between atoms: N_17  and  C_18
REMARK    8  A    between atoms: C_18  and  C_19
REMARK    9  A    between atoms: C_19  and  C_22
REMARK   10  A    between atoms: C_25  and  C_26
REMARK                            x       y       z     vdW  Elec       q    Type
REMARK                         _______ _______ _______ _____ _____    ______ ____
ROOT
ATOM      1  C   UNL     1      44.639   3.321   9.495  0.00  0.00    +0.000 A 
ATOM      2  C   UNL     1      45.057   2.929   8.222  0.00  0.00    +0.000 A 
ATOM      3  C   UNL     1      45.999   3.692   7.529  0.00  0.00    +0.000 A 
ATOM      4  C   UNL     1      46.499   4.858   8.126  0.00  0.00    +0.000 A 
ATOM      5  C   UNL     1      46.029   5.316   9.361  0.00  0.00    +0.000 A 
ATOM      6  C   UNL     1      45.103   4.516  10.045  0.00  0.00    +0.000 A 
ENDROOT
BRANCH   5   7
ATOM      7  N   UNL     1      46.486   6.479   9.989  0.00  0.00    +0.000 N 
ATOM      8  H   UNL     1      47.461   6.661   9.759  0.00  0.00    +0.000 HD
BRANCH   7   9
ATOM      9  C   UNL     1      46.148   6.755  11.396  0.00  0.00    +0.000 C 
BRANCH   9  10
ATOM     10  C   UNL     1      47.380   7.074  12.281  0.00  0.00    +0.000 C 
ATOM     11  F   UNL     1      48.516   7.043  11.519  0.00  0.00    +0.000 F 
ATOM     12  F   UNL     1      47.270   8.382  12.673  0.00  0.00    +0.000 F 
BRANCH  10  13
ATOM     13  C   UNL     1      47.468   6.155  13.459  0.00  0.00    +0.000 A 
ATOM     14  C   UNL     1      46.772   4.964  13.526  0.00  0.00    +0.000 A 
ATOM     15  N   UNL     1      46.813   4.133  14.586  0.00  0.00    +0.000 NA
ATOM     16  C   UNL     1      47.597   4.539  15.616  0.00  0.00    +0.000 A 
ATOM     17  N   UNL     1      48.305   5.684  15.661  0.00  0.00    +0.000 NA
ATOM     18  C   UNL     1      48.224   6.465  14.570  0.00  0.00    +0.000 A 
BRANCH  16  19
ATOM     19  C   UNL     1      47.662   3.625  16.819  0.00  0.00    +0.000 C 
ATOM     20  N   UNL     1      48.919   3.413  17.337  0.00  0.00    +0.000 N 
ATOM     21  O   UNL     1      46.682   3.090  17.325  0.00  0.00    +0.000 OA
ATOM     22  H   UNL     1      49.726   3.865  16.924  0.00  0.00    +0.000 HD
ATOM     23  H   UNL     1      49.019   2.817  18.146  0.00  0.00    +0.000 HD
ENDBRANCH  16  19
ENDBRANCH  10  13
ENDBRANCH   9  10
ENDBRANCH   7   9
ENDBRANCH   5   7
BRANCH   1  24
ATOM     24  O   UNL     1      43.764   2.477  10.130  0.00  0.00    +0.000 OA
BRANCH  24  29
ATOM     25  C   UNL     1      42.755   5.159  12.700  0.00  0.00    +0.000 C 
ATOM     26  C   UNL     1      43.688   4.104  12.128  0.00  0.00    +0.000 C 
ATOM     27  O   UNL     1      44.074   3.163  13.163  0.00  0.00    +0.000 OA
ATOM     28  C   UNL     1      43.238   2.141  12.567  0.00  0.00    +0.000 C 
ATOM     29  C   UNL     1      43.043   2.974  11.289  0.00  0.00    +0.000 C 
ENDBRANCH  24  29
ENDBRANCH   1  24
BRANCH   3  30
ATOM     30  C   UNL     1      46.471   3.308   6.148  0.00  0.00    +0.000 C 
BRANCH  30  31
ATOM     31  C   UNL     1      47.538   2.214   6.114  0.00  0.00    +0.000 C 
ATOM     32  F   UNL     1      47.068   0.993   6.441  0.00  0.00    +0.000 F 
ATOM     33  F   UNL     1      48.079   2.118   4.877  0.00  0.00    +0.000 F 
ATOM     34  F   UNL     1      48.546   2.503   6.974  0.00  0.00    +0.000 F 
ENDBRANCH  30  31
ENDBRANCH   3  30
TORSDOF 9
ENDMDL
