MODEL 1
REMARK VINA RESULT:    -9.128      0.000      0.000
REMARK INTER + INTRA:         -14.067
REMARK INTER:                 -12.863
REMARK INTRA:                  -1.204
REMARK UNBOUND:                -1.204
REMARK  Name = 
REMARK  7 active torsions:
REMARK  status: ('A' for Active; 'I' for Inactive)
REMARK    1  A    between atoms: C_2  and  C_4
REMARK    2  A    between atoms: N_8  and  C_9
REMARK    3  A    between atoms: C_9  and  C_10
REMARK    4  A    between atoms: C_10  and  C_11
REMARK    5  A    between atoms: C_15  and  C_16
REMARK    6  A    between atoms: C_19  and  O_20
REMARK    7  A    between atoms: O_20  and  C_21
REMARK                            x       y       z     vdW  Elec       q    Type
REMARK                         _______ _______ _______ _____ _____    ______ ____
ROOT
ATOM      1  C   UNL     1      45.064   5.834  12.279  0.00  0.00    +0.000 A 
ATOM      2  C   UNL     1      45.861   6.627  11.440  0.00  0.00    +0.000 A 
ATOM      3  C   UNL     1      47.202   6.845  11.726  0.00  0.00    +0.000 A 
ATOM      4  C   UNL     1      47.766   6.289  12.868  0.00  0.00    +0.000 A 
ATOM      5  C   UNL     1      47.001   5.522  13.766  0.00  0.00    +0.000 A 
ATOM      6  C   UNL     1      45.656   5.277  13.429  0.00  0.00    +0.000 A 
ENDROOT
BRANCH   5   7
ATOM      7  C   UNL     1      47.572   5.088  15.059  0.00  0.00    +0.000 A 
ATOM      8  C   UNL     1      48.539   5.880  15.706  0.00  0.00    +0.000 A 
ATOM      9  C   UNL     1      49.048   5.552  16.971  0.00  0.00    +0.000 A 
ATOM     10  C   UNL     1      48.553   4.447  17.644  0.00  0.00    +0.000 A 
ATOM     11  C   UNL     1      47.639   3.611  16.998  0.00  0.00    +0.000 A 
ATOM     12  C   UNL     1      47.156   3.925  15.720  0.00  0.00    +0.000 A 
BRANCH  10  13
ATOM     13  O   UNL     1      48.899   4.062  18.904  0.00  0.00    +0.000 OA
BRANCH  13  14
ATOM     14  C   UNL     1      48.632   4.934  19.996  0.00  0.00    +0.000 C 
ATOM     15  F   UNL     1      47.421   5.526  19.956  0.00  0.00    +0.000 F 
ATOM     16  F   UNL     1      48.694   4.212  21.139  0.00  0.00    +0.000 F 
ATOM     17  F   UNL     1      49.585   5.889  20.050  0.00  0.00    +0.000 F 
ENDBRANCH  13  14
ENDBRANCH  10  13
ENDBRANCH   5   7
BRANCH   1  18
ATOM     18  C   UNL     1      43.590   5.576  12.012  0.00  0.00    +0.000 C 
BRANCH  18  19
ATOM     19  C   UNL     1      43.327   4.430  11.032  0.00  0.00    +0.000 C 
BRANCH  19  24
ATOM     20  C   UNL     1      46.528   2.459   7.679  0.00  0.00    +0.000 A 
ATOM     21  C   UNL     1      45.686   1.818   8.582  0.00  0.00    +0.000 A 
ATOM     22  C   UNL     1      44.749   2.576   9.279  0.00  0.00    +0.000 A 
ATOM     23  C   UNL     1      44.680   3.957   9.081  0.00  0.00    +0.000 A 
ATOM     24  N   UNL     1      43.709   4.759   9.670  0.00  0.00    +0.000 N 
ATOM     25  N   UNL     1      45.525   4.589   8.247  0.00  0.00    +0.000 NA
ATOM     26  C   UNL     1      46.430   3.835   7.568  0.00  0.00    +0.000 A 
ATOM     27  H   UNL     1      43.983   5.724   9.499  0.00  0.00    +0.000 HD
BRANCH  20  29
ATOM     28  N   UNL     1      48.613   2.423   6.435  0.00  0.00    +0.000 N 
ATOM     29  C   UNL     1      47.501   1.731   6.843  0.00  0.00    +0.000 C 
ATOM     30  O   UNL     1      47.352   0.552   6.565  0.00  0.00    +0.000 OA
ATOM     31  H   UNL     1      49.330   1.879   5.973  0.00  0.00    +0.000 HD
ATOM     32  H   UNL     1      48.893   3.294   6.861  0.00  0.00    +0.000 HD
ENDBRANCH  20  29
ENDBRANCH  19  24
ENDBRANCH  18  19
ENDBRANCH   1  18
TORSDOF 7
ENDMDL
MODEL 2
REMARK VINA RESULT:    -8.509      1.759      2.237
REMARK INTER + INTRA:         -13.195
REMARK INTER:                 -11.830
REMARK INTRA:                  -1.365
REMARK UNBOUND:                -1.204
REMARK  Name = 
REMARK  7 active torsions:
REMARK  status: ('A' for Active; 'I' for Inactive)
REMARK    1  A    between atoms: C_2  and  C_4
REMARK    2  A    between atoms: N_8  and  C_9
REMARK    3  A    between atoms: C_9  and  C_10
REMARK    4  A    between atoms: C_10  and  C_11
REMARK    5  A    between atoms: C_15  and  C_16
REMARK    6  A    between atoms: C_19  and  O_20
REMARK    7  A    between atoms: O_20  and  C_21
REMARK                            x       y       z     vdW  Elec       q    Type
REMARK                         _______ _______ _______ _____ _____    ______ ____
ROOT
ATOM      1  C   UNL     1      44.786   5.061  12.364  0.00  0.00    +0.000 A 
ATOM      2  C   UNL     1      45.315   6.062  11.536  0.00  0.00    +0.000 A 
ATOM      3  C   UNL     1      46.565   6.610  11.787  0.00  0.00    +0.000 A 
ATOM      4  C   UNL     1      47.302   6.180  12.884  0.00  0.00    +0.000 A 
ATOM      5  C   UNL     1      46.800   5.211  13.771  0.00  0.00    +0.000 A 
ATOM      6  C   UNL     1      45.550   4.637  13.468  0.00  0.00    +0.000 A 
ENDROOT
BRANCH   5   7
ATOM      7  C   UNL     1      47.519   4.895  15.025  0.00  0.00    +0.000 A 
ATOM      8  C   UNL     1      47.515   3.582  15.530  0.00  0.00    +0.000 A 
ATOM      9  C   UNL     1      48.249   3.217  16.667  0.00  0.00    +0.000 A 
ATOM     10  C   UNL     1      49.056   4.154  17.293  0.00  0.00    +0.000 A 
ATOM     11  C   UNL     1      49.031   5.478  16.847  0.00  0.00    +0.000 A 
ATOM     12  C   UNL     1      48.270   5.847  15.729  0.00  0.00    +0.000 A 
BRANCH  10  13
ATOM     13  O   UNL     1      49.879   3.916  18.352  0.00  0.00    +0.000 OA
BRANCH  13  14
ATOM     14  C   UNL     1      51.241   3.583  18.113  0.00  0.00    +0.000 C 
ATOM     15  F   UNL     1      51.813   4.259  17.096  0.00  0.00    +0.000 F 
ATOM     16  F   UNL     1      51.947   3.859  19.233  0.00  0.00    +0.000 F 
ATOM     17  F   UNL     1      51.342   2.258  17.870  0.00  0.00    +0.000 F 
ENDBRANCH  13  14
ENDBRANCH  10  13
ENDBRANCH   5   7
BRANCH   1  18
ATOM     18  C   UNL     1      43.418   4.439  12.134  0.00  0.00    +0.000 C 
BRANCH  18  19
ATOM     19  C   UNL     1      43.326   3.594  10.861  0.00  0.00    +0.000 C 
BRANCH  19  24
ATOM     20  C   UNL     1      46.641   2.510   7.228  0.00  0.00    +0.000 A 
ATOM     21  C   UNL     1      46.140   3.743   7.628  0.00  0.00    +0.000 A 
ATOM     22  C   UNL     1      45.373   3.810   8.789  0.00  0.00    +0.000 A 
ATOM     23  C   UNL     1      45.102   2.649   9.516  0.00  0.00    +0.000 A 
ATOM     24  N   UNL     1      44.427   2.656  10.731  0.00  0.00    +0.000 N 
ATOM     25  N   UNL     1      45.544   1.446   9.106  0.00  0.00    +0.000 NA
ATOM     26  C   UNL     1      46.297   1.397   7.975  0.00  0.00    +0.000 A 
ATOM     27  H   UNL     1      44.222   1.685  10.958  0.00  0.00    +0.000 HD
BRANCH  20  29
ATOM     28  N   UNL     1      47.451   3.318   5.086  0.00  0.00    +0.000 N 
ATOM     29  C   UNL     1      47.523   2.351   6.055  0.00  0.00    +0.000 C 
ATOM     30  O   UNL     1      48.317   1.428   5.971  0.00  0.00    +0.000 OA
ATOM     31  H   UNL     1      48.148   3.266   4.354  0.00  0.00    +0.000 HD
ATOM     32  H   UNL     1      47.013   4.213   5.248  0.00  0.00    +0.000 HD
ENDBRANCH  20  29
ENDBRANCH  19  24
ENDBRANCH  18  19
ENDBRANCH   1  18
TORSDOF 7
ENDMDL
MODEL 3
REMARK VINA RESULT:    -8.480      4.476      5.515
REMARK INTER + INTRA:         -13.155
REMARK INTER:                 -11.762
REMARK INTRA:                  -1.393
REMARK UNBOUND:                -1.204
REMARK  Name = 
REMARK  7 active torsions:
REMARK  status: ('A' for Active; 'I' for Inactive)
REMARK    1  A    between atoms: C_2  and  C_4
REMARK    2  A    between atoms: N_8  and  C_9
REMARK    3  A    between atoms: C_9  and  C_10
REMARK    4  A    between atoms: C_10  and  C_11
REMARK    5  A    between atoms: C_15  and  C_16
REMARK    6  A    between atoms: C_19  and  O_20
REMARK    7  A    between atoms: O_20  and  C_21
REMARK                            x       y       z     vdW  Elec       q    Type
REMARK                         _______ _______ _______ _____ _____    ______ ____
ROOT
ATOM      1  C   UNL     1      45.020   5.551  12.697  0.00  0.00    +0.000 A 
ATOM      2  C   UNL     1      45.404   4.417  13.428  0.00  0.00    +0.000 A 
ATOM      3  C   UNL     1      46.666   4.328  13.998  0.00  0.00    +0.000 A 
ATOM      4  C   UNL     1      47.576   5.365  13.830  0.00  0.00    +0.000 A 
ATOM      5  C   UNL     1      47.258   6.505  13.070  0.00  0.00    +0.000 A 
ATOM      6  C   UNL     1      45.955   6.592  12.542  0.00  0.00    +0.000 A 
ENDROOT
BRANCH   5   7
ATOM      7  C   UNL     1      48.294   7.513  12.758  0.00  0.00    +0.000 A 
ATOM      8  C   UNL     1      49.557   7.444  13.376  0.00  0.00    +0.000 A 
ATOM      9  C   UNL     1      50.597   8.326  13.051  0.00  0.00    +0.000 A 
ATOM     10  C   UNL     1      50.412   9.266  12.051  0.00  0.00    +0.000 A 
ATOM     11  C   UNL     1      49.150   9.395  11.465  0.00  0.00    +0.000 A 
ATOM     12  C   UNL     1      48.102   8.533  11.816  0.00  0.00    +0.000 A 
BRANCH  10  13
ATOM     13  O   UNL     1      51.357  10.127  11.582  0.00  0.00    +0.000 OA
BRANCH  13  14
ATOM     14  C   UNL     1      52.244   9.695  10.557  0.00  0.00    +0.000 C 
ATOM     15  F   UNL     1      51.915   8.515   9.993  0.00  0.00    +0.000 F 
ATOM     16  F   UNL     1      52.244  10.628   9.577  0.00  0.00    +0.000 F 
ATOM     17  F   UNL     1      53.496   9.609  11.055  0.00  0.00    +0.000 F 
ENDBRANCH  13  14
ENDBRANCH  10  13
ENDBRANCH   5   7
BRANCH   1  18
ATOM     18  C   UNL     1      43.652   5.688  12.047  0.00  0.00    +0.000 C 
BRANCH  18  19
ATOM     19  C   UNL     1      43.326   4.575  11.046  0.00  0.00    +0.000 C 
BRANCH  19  24
ATOM     20  C   UNL     1      46.490   2.526   7.706  0.00  0.00    +0.000 A 
ATOM     21  C   UNL     1      45.618   1.907   8.594  0.00  0.00    +0.000 A 
ATOM     22  C   UNL     1      44.700   2.690   9.290  0.00  0.00    +0.000 A 
ATOM     23  C   UNL     1      44.682   4.075   9.105  0.00  0.00    +0.000 A 
ATOM     24  N   UNL     1      43.733   4.904   9.692  0.00  0.00    +0.000 N 
ATOM     25  N   UNL     1      45.556   4.685   8.284  0.00  0.00    +0.000 NA
ATOM     26  C   UNL     1      46.442   3.906   7.607  0.00  0.00    +0.000 A 
ATOM     27  H   UNL     1      44.042   5.861   9.532  0.00  0.00    +0.000 HD
BRANCH  20  29
ATOM     28  N   UNL     1      48.566   2.442   6.449  0.00  0.00    +0.000 N 
ATOM     29  C   UNL     1      47.446   1.773   6.872  0.00  0.00    +0.000 C 
ATOM     30  O   UNL     1      47.276   0.594   6.610  0.00  0.00    +0.000 OA
ATOM     31  H   UNL     1      49.271   1.881   5.989  0.00  0.00    +0.000 HD
ATOM     32  H   UNL     1      48.863   3.314   6.863  0.00  0.00    +0.000 HD
ENDBRANCH  20  29
ENDBRANCH  19  24
ENDBRANCH  18  19
ENDBRANCH   1  18
TORSDOF 7
ENDMDL
MODEL 4
REMARK VINA RESULT:    -7.912      2.976      3.829
REMARK INTER + INTRA:         -12.354
REMARK INTER:                 -10.988
REMARK INTRA:                  -1.366
REMARK UNBOUND:                -1.204
REMARK  Name = 
REMARK  7 active torsions:
REMARK  status: ('A' for Active; 'I' for Inactive)
REMARK    1  A    between atoms: C_2  and  C_4
REMARK    2  A    between atoms: N_8  and  C_9
REMARK    3  A    between atoms: C_9  and  C_10
REMARK    4  A    between atoms: C_10  and  C_11
REMARK    5  A    between atoms: C_15  and  C_16
REMARK    6  A    between atoms: C_19  and  O_20
REMARK    7  A    between atoms: O_20  and  C_21
REMARK                            x       y       z     vdW  Elec       q    Type
REMARK                         _______ _______ _______ _____ _____    ______ ____
ROOT
ATOM      1  C   UNL     1      45.060   5.117  12.543  0.00  0.00    +0.000 A 
ATOM      2  C   UNL     1      45.323   3.747  12.684  0.00  0.00    +0.000 A 
ATOM      3  C   UNL     1      46.451   3.302  13.360  0.00  0.00    +0.000 A 
ATOM      4  C   UNL     1      47.347   4.222  13.891  0.00  0.00    +0.000 A 
ATOM      5  C   UNL     1      47.154   5.607  13.739  0.00  0.00    +0.000 A 
ATOM      6  C   UNL     1      45.978   6.032  13.091  0.00  0.00    +0.000 A 
ENDROOT
BRANCH   5   7
ATOM      7  C   UNL     1      48.204   6.562  14.156  0.00  0.00    +0.000 A 
ATOM      8  C   UNL     1      48.796   6.451  15.428  0.00  0.00    +0.000 A 
ATOM      9  C   UNL     1      49.851   7.280  15.836  0.00  0.00    +0.000 A 
ATOM     10  C   UNL     1      50.377   8.206  14.950  0.00  0.00    +0.000 A 
ATOM     11  C   UNL     1      49.768   8.378  13.704  0.00  0.00    +0.000 A 
ATOM     12  C   UNL     1      48.692   7.569  13.312  0.00  0.00    +0.000 A 
BRANCH  10  13
ATOM     13  O   UNL     1      51.447   9.015  15.186  0.00  0.00    +0.000 OA
BRANCH  13  14
ATOM     14  C   UNL     1      52.757   8.533  14.910  0.00  0.00    +0.000 C 
ATOM     15  F   UNL     1      53.164   7.526  15.711  0.00  0.00    +0.000 F 
ATOM     16  F   UNL     1      52.780   8.075  13.637  0.00  0.00    +0.000 F 
ATOM     17  F   UNL     1      53.639   9.552  15.006  0.00  0.00    +0.000 F 
ENDBRANCH  13  14
ENDBRANCH  10  13
ENDBRANCH   5   7
BRANCH   1  18
ATOM     18  C   UNL     1      43.843   5.650  11.802  0.00  0.00    +0.000 C 
BRANCH  18  19
ATOM     19  C   UNL     1      43.223   4.647  10.825  0.00  0.00    +0.000 C 
BRANCH  19  24
ATOM     20  C   UNL     1      46.512   2.416   7.732  0.00  0.00    +0.000 A 
ATOM     21  C   UNL     1      45.643   1.849   8.657  0.00  0.00    +0.000 A 
ATOM     22  C   UNL     1      44.688   2.660   9.265  0.00  0.00    +0.000 A 
ATOM     23  C   UNL     1      44.630   4.022   8.958  0.00  0.00    +0.000 A 
ATOM     24  N   UNL     1      43.645   4.868   9.453  0.00  0.00    +0.000 N 
ATOM     25  N   UNL     1      45.500   4.585   8.101  0.00  0.00    +0.000 NA
ATOM     26  C   UNL     1      46.423   3.779   7.509  0.00  0.00    +0.000 A 
ATOM     27  H   UNL     1      43.927   5.817   9.215  0.00  0.00    +0.000 HD
BRANCH  20  29
ATOM     28  N   UNL     1      48.542   2.310   6.402  0.00  0.00    +0.000 N 
ATOM     29  C   UNL     1      47.507   1.623   6.983  0.00  0.00    +0.000 C 
ATOM     30  O   UNL     1      47.442   0.406   6.923  0.00  0.00    +0.000 OA
ATOM     31  H   UNL     1      49.281   1.746   6.004  0.00  0.00    +0.000 HD
ATOM     32  H   UNL     1      48.767   3.261   6.655  0.00  0.00    +0.000 HD
ENDBRANCH  20  29
ENDBRANCH  19  24
ENDBRANCH  18  19
ENDBRANCH   1  18
TORSDOF 7
ENDMDL
MODEL 5
REMARK VINA RESULT:    -7.776      1.820      2.293
REMARK INTER + INTRA:         -12.163
REMARK INTER:                 -11.497
REMARK INTRA:                  -0.666
REMARK UNBOUND:                -1.204
REMARK  Name = 
REMARK  7 active torsions:
REMARK  status: ('A' for Active; 'I' for Inactive)
REMARK    1  A    between atoms: C_2  and  C_4
REMARK    2  A    between atoms: N_8  and  C_9
REMARK    3  A    between atoms: C_9  and  C_10
REMARK    4  A    between atoms: C_10  and  C_11
REMARK    5  A    between atoms: C_15  and  C_16
REMARK    6  A    between atoms: C_19  and  O_20
REMARK    7  A    between atoms: O_20  and  C_21
REMARK                            x       y       z     vdW  Elec       q    Type
REMARK                         _______ _______ _______ _____ _____    ______ ____
ROOT
ATOM      1  C   UNL     1      45.524   5.723  12.429  0.00  0.00    +0.000 A 
ATOM      2  C   UNL     1      45.033   7.001  12.120  0.00  0.00    +0.000 A 
ATOM      3  C   UNL     1      45.690   8.143  12.557  0.00  0.00    +0.000 A 
ATOM      4  C   UNL     1      46.840   8.028  13.328  0.00  0.00    +0.000 A 
ATOM      5  C   UNL     1      47.350   6.772  13.702  0.00  0.00    +0.000 A 
ATOM      6  C   UNL     1      46.693   5.629  13.207  0.00  0.00    +0.000 A 
ENDROOT
BRANCH   5   7
ATOM      7  C   UNL     1      48.470   6.671  14.664  0.00  0.00    +0.000 A 
ATOM      8  C   UNL     1      49.676   7.352  14.418  0.00  0.00    +0.000 A 
ATOM      9  C   UNL     1      50.734   7.355  15.338  0.00  0.00    +0.000 A 
ATOM     10  C   UNL     1      50.581   6.719  16.560  0.00  0.00    +0.000 A 
ATOM     11  C   UNL     1      49.417   5.986  16.804  0.00  0.00    +0.000 A 
ATOM     12  C   UNL     1      48.375   5.959  15.868  0.00  0.00    +0.000 A 
BRANCH  10  13
ATOM     13  O   UNL     1      51.492   6.712  17.573  0.00  0.00    +0.000 OA
BRANCH  13  14
ATOM     14  C   UNL     1      52.034   5.472  18.011  0.00  0.00    +0.000 C 
ATOM     15  F   UNL     1      51.250   4.790  18.871  0.00  0.00    +0.000 F 
ATOM     16  F   UNL     1      52.227   4.687  16.926  0.00  0.00    +0.000 F 
ATOM     17  F   UNL     1      53.235   5.689  18.591  0.00  0.00    +0.000 F 
ENDBRANCH  13  14
ENDBRANCH  10  13
ENDBRANCH   5   7
BRANCH   1  18
ATOM     18  C   UNL     1      44.833   4.445  11.981  0.00  0.00    +0.000 C 
BRANCH  18  19
ATOM     19  C   UNL     1      43.594   4.681  11.112  0.00  0.00    +0.000 C 
BRANCH  19  24
ATOM     20  C   UNL     1      46.495   2.468   7.640  0.00  0.00    +0.000 A 
ATOM     21  C   UNL     1      45.661   1.894   8.593  0.00  0.00    +0.000 A 
ATOM     22  C   UNL     1      44.808   2.718   9.322  0.00  0.00    +0.000 A 
ATOM     23  C   UNL     1      44.816   4.098   9.106  0.00  0.00    +0.000 A 
ATOM     24  N   UNL     1      43.928   4.967   9.728  0.00  0.00    +0.000 N 
ATOM     25  N   UNL     1      45.656   4.664   8.221  0.00  0.00    +0.000 NA
ATOM     26  C   UNL     1      46.478   3.846   7.510  0.00  0.00    +0.000 A 
ATOM     27  H   UNL     1      44.252   5.911   9.528  0.00  0.00    +0.000 HD
BRANCH  20  29
ATOM     28  N   UNL     1      48.445   2.317   6.201  0.00  0.00    +0.000 N 
ATOM     29  C   UNL     1      47.378   1.669   6.769  0.00  0.00    +0.000 C 
ATOM     30  O   UNL     1      47.198   0.474   6.598  0.00  0.00    +0.000 OA
ATOM     31  H   UNL     1      49.111   1.732   5.713  0.00  0.00    +0.000 HD
ATOM     32  H   UNL     1      48.768   3.215   6.530  0.00  0.00    +0.000 HD
ENDBRANCH  20  29
ENDBRANCH  19  24
ENDBRANCH  18  19
ENDBRANCH   1  18
TORSDOF 7
ENDMDL
MODEL 6
REMARK VINA RESULT:    -7.680      2.441      3.023
REMARK INTER + INTRA:         -12.027
REMARK INTER:                 -10.463
REMARK INTRA:                  -1.565
REMARK UNBOUND:                -1.204
REMARK  Name = 
REMARK  7 active torsions:
REMARK  status: ('A' for Active; 'I' for Inactive)
REMARK    1  A    between atoms: C_2  and  C_4
REMARK    2  A    between atoms: N_8  and  C_9
REMARK    3  A    between atoms: C_9  and  C_10
REMARK    4  A    between atoms: C_10  and  C_11
REMARK    5  A    between atoms: C_15  and  C_16
REMARK    6  A    between atoms: C_19  and  O_20
REMARK    7  A    between atoms: O_20  and  C_21
REMARK                            x       y       z     vdW  Elec       q    Type
REMARK                         _______ _______ _______ _____ _____    ______ ____
ROOT
ATOM      1  C   UNL     1      44.451   5.483  12.314  0.00  0.00    +0.000 A 
ATOM      2  C   UNL     1      44.075   6.599  11.552  0.00  0.00    +0.000 A 
ATOM      3  C   UNL     1      44.922   7.690  11.418  0.00  0.00    +0.000 A 
ATOM      4  C   UNL     1      46.155   7.693  12.061  0.00  0.00    +0.000 A 
ATOM      5  C   UNL     1      46.562   6.619  12.872  0.00  0.00    +0.000 A 
ATOM      6  C   UNL     1      45.705   5.504  12.954  0.00  0.00    +0.000 A 
ENDROOT
BRANCH   5   7
ATOM      7  C   UNL     1      47.794   6.715  13.685  0.00  0.00    +0.000 A 
ATOM      8  C   UNL     1      48.898   7.447  13.210  0.00  0.00    +0.000 A 
ATOM      9  C   UNL     1      50.055   7.637  13.979  0.00  0.00    +0.000 A 
ATOM     10  C   UNL     1      50.108   7.142  15.272  0.00  0.00    +0.000 A 
ATOM     11  C   UNL     1      49.051   6.361  15.744  0.00  0.00    +0.000 A 
ATOM     12  C   UNL     1      47.909   6.146  14.961  0.00  0.00    +0.000 A 
BRANCH  10  13
ATOM     13  O   UNL     1      51.132   7.322  16.152  0.00  0.00    +0.000 OA
BRANCH  13  14
ATOM     14  C   UNL     1      51.157   8.491  16.961  0.00  0.00    +0.000 C 
ATOM     15  F   UNL     1      50.141   9.349  16.736  0.00  0.00    +0.000 F 
ATOM     16  F   UNL     1      51.089   8.110  18.257  0.00  0.00    +0.000 F 
ATOM     17  F   UNL     1      52.327   9.140  16.775  0.00  0.00    +0.000 F 
ENDBRANCH  13  14
ENDBRANCH  10  13
ENDBRANCH   5   7
BRANCH   1  18
ATOM     18  C   UNL     1      43.552   4.270  12.497  0.00  0.00    +0.000 C 
BRANCH  18  19
ATOM     19  C   UNL     1      43.321   3.469  11.212  0.00  0.00    +0.000 C 
BRANCH  19  24
ATOM     20  C   UNL     1      46.484   2.836   7.345  0.00  0.00    +0.000 A 
ATOM     21  C   UNL     1      46.010   4.011   7.917  0.00  0.00    +0.000 A 
ATOM     22  C   UNL     1      45.289   3.935   9.106  0.00  0.00    +0.000 A 
ATOM     23  C   UNL     1      45.035   2.693   9.691  0.00  0.00    +0.000 A 
ATOM     24  N   UNL     1      44.407   2.550  10.923  0.00  0.00    +0.000 N 
ATOM     25  N   UNL     1      45.449   1.549   9.116  0.00  0.00    +0.000 NA
ATOM     26  C   UNL     1      46.158   1.639   7.959  0.00  0.00    +0.000 A 
ATOM     27  H   UNL     1      44.201   1.559  11.034  0.00  0.00    +0.000 HD
BRANCH  20  29
ATOM     28  N   UNL     1      48.628   2.440   6.274  0.00  0.00    +0.000 N 
ATOM     29  C   UNL     1      47.319   2.822   6.128  0.00  0.00    +0.000 C 
ATOM     30  O   UNL     1      46.856   3.090   5.031  0.00  0.00    +0.000 OA
ATOM     31  H   UNL     1      49.151   2.312   5.418  0.00  0.00    +0.000 HD
ATOM     32  H   UNL     1      48.962   1.964   7.099  0.00  0.00    +0.000 HD
ENDBRANCH  20  29
ENDBRANCH  19  24
ENDBRANCH  18  19
ENDBRANCH   1  18
TORSDOF 7
ENDMDL
MODEL 7
REMARK VINA RESULT:    -7.540      5.656      8.958
REMARK INTER + INTRA:         -11.830
REMARK INTER:                 -10.806
REMARK INTRA:                  -1.024
REMARK UNBOUND:                -1.204
REMARK  Name = 
REMARK  7 active torsions:
REMARK  status: ('A' for Active; 'I' for Inactive)
REMARK    1  A    between atoms: C_2  and  C_4
REMARK    2  A    between atoms: N_8  and  C_9
REMARK    3  A    between atoms: C_9  and  C_10
REMARK    4  A    between atoms: C_10  and  C_11
REMARK    5  A    between atoms: C_15  and  C_16
REMARK    6  A    between atoms: C_19  and  O_20
REMARK    7  A    between atoms: O_20  and  C_21
REMARK                            x       y       z     vdW  Elec       q    Type
REMARK                         _______ _______ _______ _____ _____    ______ ____
ROOT
ATOM      1  C   UNL     1      49.137   7.402  14.323  0.00  0.00    +0.000 A 
ATOM      2  C   UNL     1      49.277   8.647  13.691  0.00  0.00    +0.000 A 
ATOM      3  C   UNL     1      48.453   9.009  12.635  0.00  0.00    +0.000 A 
ATOM      4  C   UNL     1      47.486   8.122  12.176  0.00  0.00    +0.000 A 
ATOM      5  C   UNL     1      47.333   6.845  12.744  0.00  0.00    +0.000 A 
ATOM      6  C   UNL     1      48.149   6.520  13.845  0.00  0.00    +0.000 A 
ENDROOT
BRANCH   5   7
ATOM      7  C   UNL     1      46.421   5.854  12.132  0.00  0.00    +0.000 A 
ATOM      8  C   UNL     1      45.923   6.061  10.832  0.00  0.00    +0.000 A 
ATOM      9  C   UNL     1      45.124   5.112  10.178  0.00  0.00    +0.000 A 
ATOM     10  C   UNL     1      44.853   3.902  10.795  0.00  0.00    +0.000 A 
ATOM     11  C   UNL     1      45.284   3.697  12.109  0.00  0.00    +0.000 A 
ATOM     12  C   UNL     1      46.055   4.662  12.771  0.00  0.00    +0.000 A 
BRANCH  10  13
ATOM     13  O   UNL     1      44.161   2.865  10.246  0.00  0.00    +0.000 OA
BRANCH  13  14
ATOM     14  C   UNL     1      44.693   2.200   9.107  0.00  0.00    +0.000 C 
ATOM     15  F   UNL     1      44.226   0.949   8.919  0.00  0.00    +0.000 F 
ATOM     16  F   UNL     1      44.373   2.922   8.008  0.00  0.00    +0.000 F 
ATOM     17  F   UNL     1      46.040   2.155   9.202  0.00  0.00    +0.000 F 
ENDBRANCH  13  14
ENDBRANCH  10  13
ENDBRANCH   5   7
BRANCH   1  18
ATOM     18  C   UNL     1      50.023   6.960  15.476  0.00  0.00    +0.000 C 
BRANCH  18  19
ATOM     19  C   UNL     1      49.332   7.000  16.841  0.00  0.00    +0.000 C 
BRANCH  19  24
ATOM     20  C   UNL     1      51.467   2.496  17.563  0.00  0.00    +0.000 A 
ATOM     21  C   UNL     1      51.953   3.764  17.862  0.00  0.00    +0.000 A 
ATOM     22  C   UNL     1      51.097   4.856  17.744  0.00  0.00    +0.000 A 
ATOM     23  C   UNL     1      49.782   4.669  17.311  0.00  0.00    +0.000 A 
ATOM     24  N   UNL     1      48.848   5.697  17.262  0.00  0.00    +0.000 N 
ATOM     25  N   UNL     1      49.321   3.451  16.974  0.00  0.00    +0.000 NA
ATOM     26  C   UNL     1      50.166   2.393  17.100  0.00  0.00    +0.000 A 
ATOM     27  H   UNL     1      48.038   5.333  16.764  0.00  0.00    +0.000 HD
BRANCH  20  29
ATOM     28  N   UNL     1      51.618   0.140  18.130  0.00  0.00    +0.000 N 
ATOM     29  C   UNL     1      52.276   1.273  17.728  0.00  0.00    +0.000 C 
ATOM     30  O   UNL     1      53.469   1.255  17.471  0.00  0.00    +0.000 OA
ATOM     31  H   UNL     1      52.156  -0.716  18.115  0.00  0.00    +0.000 HD
ATOM     32  H   UNL     1      50.612   0.057  18.090  0.00  0.00    +0.000 HD
ENDBRANCH  20  29
ENDBRANCH  19  24
ENDBRANCH  18  19
ENDBRANCH   1  18
TORSDOF 7
ENDMDL
MODEL 8
REMARK VINA RESULT:    -7.119      5.682      8.447
REMARK INTER + INTRA:         -11.237
REMARK INTER:                  -9.162
REMARK INTRA:                  -2.075
REMARK UNBOUND:                -1.204
REMARK  Name = 
REMARK  7 active torsions:
REMARK  status: ('A' for Active; 'I' for Inactive)
REMARK    1  A    between atoms: C_2  and  C_4
REMARK    2  A    between atoms: N_8  and  C_9
REMARK    3  A    between atoms: C_9  and  C_10
REMARK    4  A    between atoms: C_10  and  C_11
REMARK    5  A    between atoms: C_15  and  C_16
REMARK    6  A    between atoms: C_19  and  O_20
REMARK    7  A    between atoms: O_20  and  C_21
REMARK                            x       y       z     vdW  Elec       q    Type
REMARK                         _______ _______ _______ _____ _____    ______ ____
ROOT
ATOM      1  C   UNL     1      49.488   9.209  14.268  0.00  0.00    +0.000 A 
ATOM      2  C   UNL     1      50.207   9.339  13.070  0.00  0.00    +0.000 A 
ATOM      3  C   UNL     1      49.818   8.657  11.926  0.00  0.00    +0.000 A 
ATOM      4  C   UNL     1      48.713   7.815  11.963  0.00  0.00    +0.000 A 
ATOM      5  C   UNL     1      47.983   7.614  13.149  0.00  0.00    +0.000 A 
ATOM      6  C   UNL     1      48.370   8.354  14.283  0.00  0.00    +0.000 A 
ENDROOT
BRANCH   5   7
ATOM      7  C   UNL     1      46.923   6.585  13.213  0.00  0.00    +0.000 A 
ATOM      8  C   UNL     1      45.613   6.893  12.800  0.00  0.00    +0.000 A 
ATOM      9  C   UNL     1      44.595   5.930  12.764  0.00  0.00    +0.000 A 
ATOM     10  C   UNL     1      44.884   4.615  13.089  0.00  0.00    +0.000 A 
ATOM     11  C   UNL     1      46.160   4.295  13.560  0.00  0.00    +0.000 A 
ATOM     12  C   UNL     1      47.167   5.268  13.625  0.00  0.00    +0.000 A 
BRANCH  10  13
ATOM     13  O   UNL     1      44.015   3.568  13.020  0.00  0.00    +0.000 OA
BRANCH  13  14
ATOM     14  C   UNL     1      43.571   3.115  11.747  0.00  0.00    +0.000 C 
ATOM     15  F   UNL     1      43.005   1.891  11.754  0.00  0.00    +0.000 F 
ATOM     16  F   UNL     1      42.645   3.988  11.287  0.00  0.00    +0.000 F 
ATOM     17  F   UNL     1      44.610   3.112  10.885  0.00  0.00    +0.000 F 
ENDBRANCH  13  14
ENDBRANCH  10  13
ENDBRANCH   5   7
BRANCH   1  18
ATOM     18  C   UNL     1      49.883   9.928  15.548  0.00  0.00    +0.000 C 
BRANCH  18  19
ATOM     19  C   UNL     1      50.899   9.164  16.401  0.00  0.00    +0.000 C 
BRANCH  19  24
ATOM     20  C   UNL     1      48.275   5.038  17.607  0.00  0.00    +0.000 A 
ATOM     21  C   UNL     1      49.351   5.180  16.738  0.00  0.00    +0.000 A 
ATOM     22  C   UNL     1      50.037   6.392  16.711  0.00  0.00    +0.000 A 
ATOM     23  C   UNL     1      49.628   7.444  17.533  0.00  0.00    +0.000 A 
ATOM     24  N   UNL     1      50.323   8.645  17.628  0.00  0.00    +0.000 N 
ATOM     25  N   UNL     1      48.558   7.329  18.340  0.00  0.00    +0.000 NA
ATOM     26  C   UNL     1      47.902   6.138  18.361  0.00  0.00    +0.000 A 
ATOM     27  H   UNL     1      49.732   9.284  18.155  0.00  0.00    +0.000 HD
BRANCH  20  29
ATOM     28  N   UNL     1      47.853   2.988  18.838  0.00  0.00    +0.000 N 
ATOM     29  C   UNL     1      47.534   3.771  17.759  0.00  0.00    +0.000 C 
ATOM     30  O   UNL     1      46.643   3.455  16.988  0.00  0.00    +0.000 OA
ATOM     31  H   UNL     1      47.253   2.190  19.001  0.00  0.00    +0.000 HD
ATOM     32  H   UNL     1      48.381   3.340  19.623  0.00  0.00    +0.000 HD
ENDBRANCH  20  29
ENDBRANCH  19  24
ENDBRANCH  18  19
ENDBRANCH   1  18
TORSDOF 7
ENDMDL
MODEL 9
REMARK VINA RESULT:    -6.858      5.568      8.422
REMARK INTER + INTRA:         -10.868
REMARK INTER:                  -9.352
REMARK INTRA:                  -1.517
REMARK UNBOUND:                -1.204
REMARK  Name = 
REMARK  7 active torsions:
REMARK  status: ('A' for Active; 'I' for Inactive)
REMARK    1  A    between atoms: C_2  and  C_4
REMARK    2  A    between atoms: N_8  and  C_9
REMARK    3  A    between atoms: C_9  and  C_10
REMARK    4  A    between atoms: C_10  and  C_11
REMARK    5  A    between atoms: C_15  and  C_16
REMARK    6  A    between atoms: C_19  and  O_20
REMARK    7  A    between atoms: O_20  and  C_21
REMARK                            x       y       z     vdW  Elec       q    Type
REMARK                         _______ _______ _______ _____ _____    ______ ____
ROOT
ATOM      1  C   UNL     1      50.528   8.904  13.663  0.00  0.00    +0.000 A 
ATOM      2  C   UNL     1      51.171   8.843  12.417  0.00  0.00    +0.000 A 
ATOM      3  C   UNL     1      50.560   8.238  11.328  0.00  0.00    +0.000 A 
ATOM      4  C   UNL     1      49.302   7.664  11.470  0.00  0.00    +0.000 A 
ATOM      5  C   UNL     1      48.633   7.658  12.707  0.00  0.00    +0.000 A 
ATOM      6  C   UNL     1      49.253   8.320  13.784  0.00  0.00    +0.000 A 
ENDROOT
BRANCH   5   7
ATOM      7  C   UNL     1      47.379   6.893  12.879  0.00  0.00    +0.000 A 
ATOM      8  C   UNL     1      46.162   7.412  12.399  0.00  0.00    +0.000 A 
ATOM      9  C   UNL     1      44.964   6.688  12.465  0.00  0.00    +0.000 A 
ATOM     10  C   UNL     1      44.969   5.396  12.964  0.00  0.00    +0.000 A 
ATOM     11  C   UNL     1      46.151   4.881  13.503  0.00  0.00    +0.000 A 
ATOM     12  C   UNL     1      47.342   5.620  13.464  0.00  0.00    +0.000 A 
BRANCH  10  13
ATOM     13  O   UNL     1      43.898   4.556  13.012  0.00  0.00    +0.000 OA
BRANCH  13  14
ATOM     14  C   UNL     1      43.357   4.050  11.798  0.00  0.00    +0.000 C 
ATOM     15  F   UNL     1      44.222   4.033  10.763  0.00  0.00    +0.000 F 
ATOM     16  F   UNL     1      42.955   2.775  12.013  0.00  0.00    +0.000 F 
ATOM     17  F   UNL     1      42.274   4.778  11.452  0.00  0.00    +0.000 F 
ENDBRANCH  13  14
ENDBRANCH  10  13
ENDBRANCH   5   7
BRANCH   1  18
ATOM     18  C   UNL     1      51.162   9.548  14.886  0.00  0.00    +0.000 C 
BRANCH  18  19
ATOM     19  C   UNL     1      51.018   8.722  16.167  0.00  0.00    +0.000 C 
BRANCH  19  24
ATOM     20  C   UNL     1      48.667   4.491  17.558  0.00  0.00    +0.000 A 
ATOM     21  C   UNL     1      48.132   5.708  17.152  0.00  0.00    +0.000 A 
ATOM     22  C   UNL     1      48.986   6.677  16.631  0.00  0.00    +0.000 A 
ATOM     23  C   UNL     1      50.357   6.425  16.545  0.00  0.00    +0.000 A 
ATOM     24  N   UNL     1      51.253   7.306  15.950  0.00  0.00    +0.000 N 
ATOM     25  N   UNL     1      50.887   5.268  16.982  0.00  0.00    +0.000 NA
ATOM     26  C   UNL     1      50.040   4.329  17.481  0.00  0.00    +0.000 A 
ATOM     27  H   UNL     1      52.187   6.965  16.166  0.00  0.00    +0.000 HD
BRANCH  20  29
ATOM     28  N   UNL     1      48.129   2.884  19.297  0.00  0.00    +0.000 N 
ATOM     29  C   UNL     1      47.833   3.379  18.053  0.00  0.00    +0.000 C 
ATOM     30  O   UNL     1      46.891   2.949  17.408  0.00  0.00    +0.000 OA
ATOM     31  H   UNL     1      47.473   2.213  19.676  0.00  0.00    +0.000 HD
ATOM     32  H   UNL     1      48.713   3.383  19.952  0.00  0.00    +0.000 HD
ENDBRANCH  20  29
ENDBRANCH  19  24
ENDBRANCH  18  19
ENDBRANCH   1  18
TORSDOF 7
ENDMDL
