MODEL 1
REMARK VINA RESULT:    -8.747      0.000      0.000
REMARK INTER + INTRA:         -10.741
REMARK INTER:                 -10.792
REMARK INTRA:                   0.051
REMARK UNBOUND:                 0.051
REMARK  Name = 
REMARK  4 active torsions:
REMARK  status: ('A' for Active; 'I' for Inactive)
REMARK    1  A    between atoms: C_2  and  C_3
REMARK    2  A    between atoms: N_7  and  C_8
REMARK    3  A    between atoms: C_8  and  C_9
REMARK    4  A    between atoms: C_13  and  C_14
REMARK                            x       y       z     vdW  Elec       q    Type
REMARK                         _______ _______ _______ _____ _____    ______ ____
ROOT
ATOM      1  C   UNL     1      44.250   4.296  11.452  0.00  0.00    +0.000 C 
ATOM      2  C   UNL     1      42.933   4.545  12.169  0.00  0.00    +0.000 C 
ATOM      3  C   UNL     1      43.278   5.391  10.990  0.00  0.00    +0.000 C 
ENDROOT
BRANCH   1   8
ATOM      4  C   UNL     1      46.698   2.618   7.165  0.00  0.00    +0.000 A 
ATOM      5  C   UNL     1      46.391   3.918   7.553  0.00  0.00    +0.000 A 
ATOM      6  C   UNL     1      45.639   4.136   8.714  0.00  0.00    +0.000 A 
ATOM      7  C   UNL     1      45.209   3.039   9.464  0.00  0.00    +0.000 A 
ATOM      8  N   UNL     1      44.404   3.130  10.591  0.00  0.00    +0.000 N 
ATOM      9  N   UNL     1      45.526   1.777   9.104  0.00  0.00    +0.000 NA
ATOM     10  C   UNL     1      46.253   1.590   7.975  0.00  0.00    +0.000 A 
ATOM     11  H   UNL     1      44.295   2.200  10.983  0.00  0.00    +0.000 HD
BRANCH   4  13
ATOM     12  N   UNL     1      48.029   2.083   5.011  0.00  0.00    +0.000 NA
ATOM     13  C   UNL     1      47.429   2.327   5.969  0.00  0.00    +0.000 C 
ENDBRANCH   4  13
ENDBRANCH   1   8
BRANCH   1  14
ATOM     14  C   UNL     1      45.547   4.906  11.974  0.00  0.00    +0.000 A 
ATOM     15  C   UNL     1      46.053   6.089  11.412  0.00  0.00    +0.000 A 
ATOM     16  C   UNL     1      46.979   6.868  12.098  0.00  0.00    +0.000 A 
ATOM     17  C   UNL     1      47.426   6.463  13.357  0.00  0.00    +0.000 A 
ATOM     18  C   UNL     1      47.024   5.236  13.914  0.00  0.00    +0.000 A 
ATOM     19  C   UNL     1      46.129   4.450  13.166  0.00  0.00    +0.000 A 
BRANCH  18  20
ATOM     20  C   UNL     1      47.409   4.828  15.276  0.00  0.00    +0.000 A 
ATOM     21  N   UNL     1      46.822   3.734  15.798  0.00  0.00    +0.000 NA
ATOM     22  C   UNL     1      47.298   3.307  16.983  0.00  0.00    +0.000 A 
ATOM     23  C   UNL     1      48.319   3.924  17.661  0.00  0.00    +0.000 A 
ATOM     24  C   UNL     1      48.846   5.039  17.053  0.00  0.00    +0.000 A 
ATOM     25  N   UNL     1      48.415   5.508  15.871  0.00  0.00    +0.000 NA
ENDBRANCH  18  20
ENDBRANCH   1  14
TORSDOF 4
ENDMDL
MODEL 2
REMARK VINA RESULT:    -7.841      2.168      3.497
REMARK INTER + INTRA:          -9.624
REMARK INTER:                  -9.666
REMARK INTRA:                   0.043
REMARK UNBOUND:                 0.051
REMARK  Name = 
REMARK  4 active torsions:
REMARK  status: ('A' for Active; 'I' for Inactive)
REMARK    1  A    between atoms: C_2  and  C_3
REMARK    2  A    between atoms: N_7  and  C_8
REMARK    3  A    between atoms: C_8  and  C_9
REMARK    4  A    between atoms: C_13  and  C_14
REMARK                            x       y       z     vdW  Elec       q    Type
REMARK                         _______ _______ _______ _____ _____    ______ ____
ROOT
ATOM      1  C   UNL     1      43.876   4.456  11.338  0.00  0.00    +0.000 C 
ATOM      2  C   UNL     1      42.457   4.920  11.618  0.00  0.00    +0.000 C 
ATOM      3  C   UNL     1      43.264   5.657  10.605  0.00  0.00    +0.000 C 
ENDROOT
BRANCH   1   8
ATOM      4  C   UNL     1      46.734   2.542   7.419  0.00  0.00    +0.000 A 
ATOM      5  C   UNL     1      46.398   3.862   7.702  0.00  0.00    +0.000 A 
ATOM      6  C   UNL     1      45.535   4.144   8.768  0.00  0.00    +0.000 A 
ATOM      7  C   UNL     1      45.023   3.090   9.529  0.00  0.00    +0.000 A 
ATOM      8  N   UNL     1      44.108   3.244  10.562  0.00  0.00    +0.000 N 
ATOM      9  N   UNL     1      45.366   1.810   9.271  0.00  0.00    +0.000 NA
ATOM     10  C   UNL     1      46.202   1.561   8.234  0.00  0.00    +0.000 A 
ATOM     11  H   UNL     1      43.953   2.337  10.990  0.00  0.00    +0.000 HD
BRANCH   4  13
ATOM     12  N   UNL     1      48.264   1.882   5.438  0.00  0.00    +0.000 NA
ATOM     13  C   UNL     1      47.580   2.185   6.321  0.00  0.00    +0.000 C 
ENDBRANCH   4  13
ENDBRANCH   1   8
BRANCH   1  14
ATOM     14  C   UNL     1      45.030   4.895  12.234  0.00  0.00    +0.000 A 
ATOM     15  C   UNL     1      45.680   3.967  13.064  0.00  0.00    +0.000 A 
ATOM     16  C   UNL     1      46.948   4.228  13.574  0.00  0.00    +0.000 A 
ATOM     17  C   UNL     1      47.580   5.435  13.270  0.00  0.00    +0.000 A 
ATOM     18  C   UNL     1      46.927   6.434  12.528  0.00  0.00    +0.000 A 
ATOM     19  C   UNL     1      45.624   6.156  12.076  0.00  0.00    +0.000 A 
BRANCH  18  20
ATOM     20  C   UNL     1      47.603   7.678  12.118  0.00  0.00    +0.000 A 
ATOM     21  N   UNL     1      46.933   8.838  12.257  0.00  0.00    +0.000 NA
ATOM     22  C   UNL     1      47.628   9.964  12.010  0.00  0.00    +0.000 A 
ATOM     23  C   UNL     1      48.947   9.978  11.628  0.00  0.00    +0.000 A 
ATOM     24  C   UNL     1      49.540   8.745  11.503  0.00  0.00    +0.000 A 
ATOM     25  N   UNL     1      48.899   7.589  11.741  0.00  0.00    +0.000 NA
ENDBRANCH  18  20
ENDBRANCH   1  14
TORSDOF 4
ENDMDL
MODEL 3
REMARK VINA RESULT:    -6.831      2.908      7.129
REMARK INTER + INTRA:          -8.377
REMARK INTER:                  -7.960
REMARK INTRA:                  -0.417
REMARK UNBOUND:                 0.051
REMARK  Name = 
REMARK  4 active torsions:
REMARK  status: ('A' for Active; 'I' for Inactive)
REMARK    1  A    between atoms: C_2  and  C_3
REMARK    2  A    between atoms: N_7  and  C_8
REMARK    3  A    between atoms: C_8  and  C_9
REMARK    4  A    between atoms: C_13  and  C_14
REMARK                            x       y       z     vdW  Elec       q    Type
REMARK                         _______ _______ _______ _____ _____    ______ ____
ROOT
ATOM      1  C   UNL     1      44.086   6.282  11.743  0.00  0.00    +0.000 C 
ATOM      2  C   UNL     1      43.498   7.214  10.695  0.00  0.00    +0.000 C 
ATOM      3  C   UNL     1      42.597   6.657  11.745  0.00  0.00    +0.000 C 
ENDROOT
BRANCH   1   8
ATOM      4  C   UNL     1      48.808   8.262  12.726  0.00  0.00    +0.000 A 
ATOM      5  C   UNL     1      48.400   7.429  11.689  0.00  0.00    +0.000 A 
ATOM      6  C   UNL     1      47.089   6.939  11.669  0.00  0.00    +0.000 A 
ATOM      7  C   UNL     1      46.211   7.297  12.696  0.00  0.00    +0.000 A 
ATOM      8  N   UNL     1      44.913   6.819  12.816  0.00  0.00    +0.000 N 
ATOM      9  N   UNL     1      46.597   8.124  13.690  0.00  0.00    +0.000 NA
ATOM     10  C   UNL     1      47.872   8.585  13.689  0.00  0.00    +0.000 A 
ATOM     11  H   UNL     1      44.473   7.282  13.604  0.00  0.00    +0.000 HD
BRANCH   4  13
ATOM     12  N   UNL     1      51.228   9.162  12.916  0.00  0.00    +0.000 NA
ATOM     13  C   UNL     1      50.145   8.764  12.824  0.00  0.00    +0.000 C 
ENDBRANCH   4  13
ENDBRANCH   1   8
BRANCH   1  14
ATOM     14  C   UNL     1      44.272   4.797  11.447  0.00  0.00    +0.000 A 
ATOM     15  C   UNL     1      43.450   3.840  12.065  0.00  0.00    +0.000 A 
ATOM     16  C   UNL     1      43.323   2.559  11.538  0.00  0.00    +0.000 A 
ATOM     17  C   UNL     1      44.031   2.211  10.387  0.00  0.00    +0.000 A 
ATOM     18  C   UNL     1      44.942   3.104   9.794  0.00  0.00    +0.000 A 
ATOM     19  C   UNL     1      45.085   4.370  10.387  0.00  0.00    +0.000 A 
BRANCH  18  20
ATOM     20  C   UNL     1      45.634   2.794   8.530  0.00  0.00    +0.000 A 
ATOM     21  N   UNL     1      45.749   3.776   7.615  0.00  0.00    +0.000 NA
ATOM     22  C   UNL     1      46.507   3.505   6.537  0.00  0.00    +0.000 A 
ATOM     23  C   UNL     1      47.142   2.304   6.335  0.00  0.00    +0.000 A 
ATOM     24  C   UNL     1      46.955   1.362   7.318  0.00  0.00    +0.000 A 
ATOM     25  N   UNL     1      46.214   1.578   8.417  0.00  0.00    +0.000 NA
ENDBRANCH  18  20
ENDBRANCH   1  14
TORSDOF 4
ENDMDL
MODEL 4
REMARK VINA RESULT:    -6.751      1.526      7.478
REMARK INTER + INTRA:          -8.278
REMARK INTER:                  -7.728
REMARK INTRA:                  -0.550
REMARK UNBOUND:                 0.051
REMARK  Name = 
REMARK  4 active torsions:
REMARK  status: ('A' for Active; 'I' for Inactive)
REMARK    1  A    between atoms: C_2  and  C_3
REMARK    2  A    between atoms: N_7  and  C_8
REMARK    3  A    between atoms: C_8  and  C_9
REMARK    4  A    between atoms: C_13  and  C_14
REMARK                            x       y       z     vdW  Elec       q    Type
REMARK                         _______ _______ _______ _____ _____    ______ ____
ROOT
ATOM      1  C   UNL     1      44.690   3.544  12.369  0.00  0.00    +0.000 C 
ATOM      2  C   UNL     1      43.418   3.811  13.156  0.00  0.00    +0.000 C 
ATOM      3  C   UNL     1      43.474   2.612  12.271  0.00  0.00    +0.000 C 
ENDROOT
BRANCH   1   8
ATOM      4  C   UNL     1      48.267   4.790  15.953  0.00  0.00    +0.000 A 
ATOM      5  C   UNL     1      47.473   5.624  15.173  0.00  0.00    +0.000 A 
ATOM      6  C   UNL     1      46.635   5.070  14.198  0.00  0.00    +0.000 A 
ATOM      7  C   UNL     1      46.612   3.684  14.025  0.00  0.00    +0.000 A 
ATOM      8  N   UNL     1      45.874   3.030  13.048  0.00  0.00    +0.000 N 
ATOM      9  N   UNL     1      47.364   2.871  14.797  0.00  0.00    +0.000 NA
ATOM     10  C   UNL     1      48.169   3.430  15.734  0.00  0.00    +0.000 A 
ATOM     11  H   UNL     1      45.981   2.031  13.181  0.00  0.00    +0.000 HD
BRANCH   4  13
ATOM     12  N   UNL     1      49.916   5.697  17.731  0.00  0.00    +0.000 NA
ATOM     13  C   UNL     1      49.173   5.296  16.939  0.00  0.00    +0.000 C 
ENDBRANCH   4  13
ENDBRANCH   1   8
BRANCH   1  14
ATOM     14  C   UNL     1      44.946   4.247  11.040  0.00  0.00    +0.000 A 
ATOM     15  C   UNL     1      45.205   5.627  11.003  0.00  0.00    +0.000 A 
ATOM     16  C   UNL     1      45.819   6.211   9.900  0.00  0.00    +0.000 A 
ATOM     17  C   UNL     1      46.171   5.419   8.805  0.00  0.00    +0.000 A 
ATOM     18  C   UNL     1      45.840   4.054   8.756  0.00  0.00    +0.000 A 
ATOM     19  C   UNL     1      45.170   3.511   9.867  0.00  0.00    +0.000 A 
BRANCH  18  20
ATOM     20  C   UNL     1      46.278   3.178   7.654  0.00  0.00    +0.000 A 
ATOM     21  N   UNL     1      46.500   3.740   6.451  0.00  0.00    +0.000 NA
ATOM     22  C   UNL     1      47.035   2.943   5.507  0.00  0.00    +0.000 A 
ATOM     23  C   UNL     1      47.346   1.621   5.713  0.00  0.00    +0.000 A 
ATOM     24  C   UNL     1      47.072   1.137   6.969  0.00  0.00    +0.000 A 
ATOM     25  N   UNL     1      46.544   1.886   7.951  0.00  0.00    +0.000 NA
ENDBRANCH  18  20
ENDBRANCH   1  14
TORSDOF 4
ENDMDL
MODEL 5
REMARK VINA RESULT:    -6.743      3.403      8.438
REMARK INTER + INTRA:          -8.268
REMARK INTER:                  -7.878
REMARK INTRA:                  -0.390
REMARK UNBOUND:                 0.051
REMARK  Name = 
REMARK  4 active torsions:
REMARK  status: ('A' for Active; 'I' for Inactive)
REMARK    1  A    between atoms: C_2  and  C_3
REMARK    2  A    between atoms: N_7  and  C_8
REMARK    3  A    between atoms: C_8  and  C_9
REMARK    4  A    between atoms: C_13  and  C_14
REMARK                            x       y       z     vdW  Elec       q    Type
REMARK                         _______ _______ _______ _____ _____    ______ ____
ROOT
ATOM      1  C   UNL     1      48.260   3.440  17.204  0.00  0.00    +0.000 C 
ATOM      2  C   UNL     1      47.950   3.567  18.686  0.00  0.00    +0.000 C 
ATOM      3  C   UNL     1      46.977   2.855  17.810  0.00  0.00    +0.000 C 
ENDROOT
BRANCH   1   8
ATOM      4  C   UNL     1      53.200   1.977  18.007  0.00  0.00    +0.000 A 
ATOM      5  C   UNL     1      52.584   3.192  18.287  0.00  0.00    +0.000 A 
ATOM      6  C   UNL     1      51.254   3.401  17.901  0.00  0.00    +0.000 A 
ATOM      7  C   UNL     1      50.569   2.381  17.237  0.00  0.00    +0.000 A 
ATOM      8  N   UNL     1      49.275   2.499  16.747  0.00  0.00    +0.000 N 
ATOM      9  N   UNL     1      51.156   1.192  16.984  0.00  0.00    +0.000 NA
ATOM     10  C   UNL     1      52.444   1.013  17.366  0.00  0.00    +0.000 A 
ATOM     11  H   UNL     1      48.992   1.600  16.371  0.00  0.00    +0.000 HD
BRANCH   4  13
ATOM     12  N   UNL     1      55.669   1.489  18.609  0.00  0.00    +0.000 NA
ATOM     13  C   UNL     1      54.567   1.715  18.341  0.00  0.00    +0.000 C 
ENDBRANCH   4  13
ENDBRANCH   1   8
BRANCH   1  14
ATOM     14  C   UNL     1      47.936   4.578  16.240  0.00  0.00    +0.000 A 
ATOM     15  C   UNL     1      48.747   5.723  16.194  0.00  0.00    +0.000 A 
ATOM     16  C   UNL     1      48.725   6.572  15.092  0.00  0.00    +0.000 A 
ATOM     17  C   UNL     1      47.874   6.293  14.022  0.00  0.00    +0.000 A 
ATOM     18  C   UNL     1      46.972   5.215  14.069  0.00  0.00    +0.000 A 
ATOM     19  C   UNL     1      46.985   4.412  15.222  0.00  0.00    +0.000 A 
BRANCH  18  20
ATOM     20  C   UNL     1      46.129   4.846  12.917  0.00  0.00    +0.000 A 
ATOM     21  N   UNL     1      46.053   5.710  11.887  0.00  0.00    +0.000 NA
ATOM     22  C   UNL     1      45.392   5.282  10.795  0.00  0.00    +0.000 A 
ATOM     23  C   UNL     1      44.807   4.044  10.694  0.00  0.00    +0.000 A 
ATOM     24  C   UNL     1      44.929   3.239  11.802  0.00  0.00    +0.000 A 
ATOM     25  N   UNL     1      45.581   3.610  12.916  0.00  0.00    +0.000 NA
ENDBRANCH  18  20
ENDBRANCH   1  14
TORSDOF 4
ENDMDL
MODEL 6
REMARK VINA RESULT:    -6.647      2.345      8.092
REMARK INTER + INTRA:          -8.150
REMARK INTER:                  -7.591
REMARK INTRA:                  -0.559
REMARK UNBOUND:                 0.051
REMARK  Name = 
REMARK  4 active torsions:
REMARK  status: ('A' for Active; 'I' for Inactive)
REMARK    1  A    between atoms: C_2  and  C_3
REMARK    2  A    between atoms: N_7  and  C_8
REMARK    3  A    between atoms: C_8  and  C_9
REMARK    4  A    between atoms: C_13  and  C_14
REMARK                            x       y       z     vdW  Elec       q    Type
REMARK                         _______ _______ _______ _____ _____    ______ ____
ROOT
ATOM      1  C   UNL     1      48.615   7.780  12.867  0.00  0.00    +0.000 C 
ATOM      2  C   UNL     1      49.709   7.268  11.945  0.00  0.00    +0.000 C 
ATOM      3  C   UNL     1      49.234   8.671  11.782  0.00  0.00    +0.000 C 
ENDROOT
BRANCH   1   8
ATOM      4  C   UNL     1      48.986   5.665  17.619  0.00  0.00    +0.000 A 
ATOM      5  C   UNL     1      48.264   5.227  16.513  0.00  0.00    +0.000 A 
ATOM      6  C   UNL     1      48.235   6.008  15.351  0.00  0.00    +0.000 A 
ATOM      7  C   UNL     1      48.934   7.217  15.324  0.00  0.00    +0.000 A 
ATOM      8  N   UNL     1      48.921   8.103  14.255  0.00  0.00    +0.000 N 
ATOM      9  N   UNL     1      49.654   7.633  16.387  0.00  0.00    +0.000 NA
ATOM     10  C   UNL     1      49.666   6.862  17.502  0.00  0.00    +0.000 A 
ATOM     11  H   UNL     1      49.558   8.865  14.464  0.00  0.00    +0.000 HD
BRANCH   4  13
ATOM     12  N   UNL     1      49.052   4.328  19.834  0.00  0.00    +0.000 NA
ATOM     13  C   UNL     1      49.024   4.933  18.848  0.00  0.00    +0.000 C 
ENDBRANCH   4  13
ENDBRANCH   1   8
BRANCH   1  14
ATOM     14  C   UNL     1      47.147   7.496  12.565  0.00  0.00    +0.000 A 
ATOM     15  C   UNL     1      46.179   8.499  12.737  0.00  0.00    +0.000 A 
ATOM     16  C   UNL     1      44.938   8.411  12.113  0.00  0.00    +0.000 A 
ATOM     17  C   UNL     1      44.642   7.304  11.317  0.00  0.00    +0.000 A 
ATOM     18  C   UNL     1      45.541   6.229  11.199  0.00  0.00    +0.000 A 
ATOM     19  C   UNL     1      46.763   6.329  11.888  0.00  0.00    +0.000 A 
BRANCH  18  20
ATOM     20  C   UNL     1      45.291   5.092  10.295  0.00  0.00    +0.000 A 
ATOM     21  N   UNL     1      45.748   5.177   9.031  0.00  0.00    +0.000 NA
ATOM     22  C   UNL     1      45.630   4.069   8.276  0.00  0.00    +0.000 A 
ATOM     23  C   UNL     1      45.076   2.896   8.725  0.00  0.00    +0.000 A 
ATOM     24  C   UNL     1      44.628   2.911  10.025  0.00  0.00    +0.000 A 
ATOM     25  N   UNL     1      44.725   3.985  10.826  0.00  0.00    +0.000 NA
ENDBRANCH  18  20
ENDBRANCH   1  14
TORSDOF 4
ENDMDL
MODEL 7
REMARK VINA RESULT:    -6.460      2.743      4.643
REMARK INTER + INTRA:          -7.919
REMARK INTER:                  -7.601
REMARK INTRA:                  -0.317
REMARK UNBOUND:                 0.051
REMARK  Name = 
REMARK  4 active torsions:
REMARK  status: ('A' for Active; 'I' for Inactive)
REMARK    1  A    between atoms: C_2  and  C_3
REMARK    2  A    between atoms: N_7  and  C_8
REMARK    3  A    between atoms: C_8  and  C_9
REMARK    4  A    between atoms: C_13  and  C_14
REMARK                            x       y       z     vdW  Elec       q    Type
REMARK                         _______ _______ _______ _____ _____    ______ ____
ROOT
ATOM      1  C   UNL     1      47.138   8.522  12.676  0.00  0.00    +0.000 C 
ATOM      2  C   UNL     1      46.063   9.595  12.628  0.00  0.00    +0.000 C 
ATOM      3  C   UNL     1      47.403   9.896  12.046  0.00  0.00    +0.000 C 
ENDROOT
BRANCH   1   8
ATOM      4  C   UNL     1      44.419   4.174  11.728  0.00  0.00    +0.000 A 
ATOM      5  C   UNL     1      44.546   4.894  12.911  0.00  0.00    +0.000 A 
ATOM      6  C   UNL     1      45.410   5.995  12.964  0.00  0.00    +0.000 A 
ATOM      7  C   UNL     1      46.133   6.350  11.823  0.00  0.00    +0.000 A 
ATOM      8  N   UNL     1      47.067   7.376  11.777  0.00  0.00    +0.000 N 
ATOM      9  N   UNL     1      45.995   5.667  10.667  0.00  0.00    +0.000 NA
ATOM     10  C   UNL     1      45.153   4.605  10.639  0.00  0.00    +0.000 A 
ATOM     11  H   UNL     1      47.396   7.467  10.822  0.00  0.00    +0.000 HD
BRANCH   4  13
ATOM     12  N   UNL     1      42.919   2.074  11.533  0.00  0.00    +0.000 NA
ATOM     13  C   UNL     1      43.583   3.018  11.620  0.00  0.00    +0.000 C 
ENDBRANCH   4  13
ENDBRANCH   1   8
BRANCH   1  14
ATOM     14  C   UNL     1      47.987   8.325  13.928  0.00  0.00    +0.000 A 
ATOM     15  C   UNL     1      48.234   9.401  14.796  0.00  0.00    +0.000 A 
ATOM     16  C   UNL     1      48.647   9.183  16.106  0.00  0.00    +0.000 A 
ATOM     17  C   UNL     1      48.834   7.878  16.564  0.00  0.00    +0.000 A 
ATOM     18  C   UNL     1      48.696   6.775  15.702  0.00  0.00    +0.000 A 
ATOM     19  C   UNL     1      48.331   7.039  14.370  0.00  0.00    +0.000 A 
BRANCH  18  20
ATOM     20  C   UNL     1      48.799   5.385  16.182  0.00  0.00    +0.000 A 
ATOM     21  N   UNL     1      49.813   5.078  17.013  0.00  0.00    +0.000 NA
ATOM     22  C   UNL     1      49.796   3.841  17.544  0.00  0.00    +0.000 A 
ATOM     23  C   UNL     1      48.825   2.908  17.276  0.00  0.00    +0.000 A 
ATOM     24  C   UNL     1      47.840   3.313  16.407  0.00  0.00    +0.000 A 
ATOM     25  N   UNL     1      47.801   4.535  15.851  0.00  0.00    +0.000 NA
ENDBRANCH  18  20
ENDBRANCH   1  14
TORSDOF 4
ENDMDL
MODEL 8
REMARK VINA RESULT:    -6.440      3.975      7.216
REMARK INTER + INTRA:          -7.894
REMARK INTER:                  -7.145
REMARK INTRA:                  -0.749
REMARK UNBOUND:                 0.051
REMARK  Name = 
REMARK  4 active torsions:
REMARK  status: ('A' for Active; 'I' for Inactive)
REMARK    1  A    between atoms: C_2  and  C_3
REMARK    2  A    between atoms: N_7  and  C_8
REMARK    3  A    between atoms: C_8  and  C_9
REMARK    4  A    between atoms: C_13  and  C_14
REMARK                            x       y       z     vdW  Elec       q    Type
REMARK                         _______ _______ _______ _____ _____    ______ ____
ROOT
ATOM      1  C   UNL     1      48.635   7.393  13.567  0.00  0.00    +0.000 C 
ATOM      2  C   UNL     1      48.955   8.119  14.864  0.00  0.00    +0.000 C 
ATOM      3  C   UNL     1      48.777   6.639  14.896  0.00  0.00    +0.000 C 
ENDROOT
BRANCH   1   8
ATOM      4  C   UNL     1      51.807   9.966  10.325  0.00  0.00    +0.000 A 
ATOM      5  C   UNL     1      50.599  10.372  10.883  0.00  0.00    +0.000 A 
ATOM      6  C   UNL     1      49.860   9.475  11.664  0.00  0.00    +0.000 A 
ATOM      7  C   UNL     1      50.352   8.184  11.869  0.00  0.00    +0.000 A 
ATOM      8  N   UNL     1      49.676   7.191  12.567  0.00  0.00    +0.000 N 
ATOM      9  N   UNL     1      51.535   7.795  11.349  0.00  0.00    +0.000 NA
ATOM     10  C   UNL     1      52.232   8.679  10.595  0.00  0.00    +0.000 A 
ATOM     11  H   UNL     1      50.276   6.376  12.626  0.00  0.00    +0.000 HD
BRANCH   4  13
ATOM     12  N   UNL     1      53.211  11.513   8.797  0.00  0.00    +0.000 NA
ATOM     13  C   UNL     1      52.589  10.822   9.486  0.00  0.00    +0.000 C 
ENDBRANCH   4  13
ENDBRANCH   1   8
BRANCH   1  14
ATOM     14  C   UNL     1      47.202   7.318  13.050  0.00  0.00    +0.000 A 
ATOM     15  C   UNL     1      46.400   8.471  13.007  0.00  0.00    +0.000 A 
ATOM     16  C   UNL     1      45.269   8.526  12.199  0.00  0.00    +0.000 A 
ATOM     17  C   UNL     1      44.914   7.417  11.429  0.00  0.00    +0.000 A 
ATOM     18  C   UNL     1      45.629   6.209  11.518  0.00  0.00    +0.000 A 
ATOM     19  C   UNL     1      46.734   6.174  12.387  0.00  0.00    +0.000 A 
BRANCH  18  20
ATOM     20  C   UNL     1      45.331   5.054  10.651  0.00  0.00    +0.000 A 
ATOM     21  N   UNL     1      44.629   4.033  11.178  0.00  0.00    +0.000 NA
ATOM     22  C   UNL     1      44.252   3.063  10.325  0.00  0.00    +0.000 A 
ATOM     23  C   UNL     1      44.549   3.068   8.985  0.00  0.00    +0.000 A 
ATOM     24  C   UNL     1      45.279   4.146   8.544  0.00  0.00    +0.000 A 
ATOM     25  N   UNL     1      45.679   5.146   9.348  0.00  0.00    +0.000 NA
ENDBRANCH  18  20
ENDBRANCH   1  14
TORSDOF 4
ENDMDL
MODEL 9
REMARK VINA RESULT:    -6.173      3.352      6.835
REMARK INTER + INTRA:          -7.566
REMARK INTER:                  -6.865
REMARK INTRA:                  -0.701
REMARK UNBOUND:                 0.051
REMARK  Name = 
REMARK  4 active torsions:
REMARK  status: ('A' for Active; 'I' for Inactive)
REMARK    1  A    between atoms: C_2  and  C_3
REMARK    2  A    between atoms: N_7  and  C_8
REMARK    3  A    between atoms: C_8  and  C_9
REMARK    4  A    between atoms: C_13  and  C_14
REMARK                            x       y       z     vdW  Elec       q    Type
REMARK                         _______ _______ _______ _____ _____    ______ ____
ROOT
ATOM      1  C   UNL     1      45.795   4.422  12.953  0.00  0.00    +0.000 C 
ATOM      2  C   UNL     1      44.336   4.006  13.042  0.00  0.00    +0.000 C 
ATOM      3  C   UNL     1      45.077   3.754  11.773  0.00  0.00    +0.000 C 
ENDROOT
BRANCH   1   8
ATOM      4  C   UNL     1      48.350   4.044  17.483  0.00  0.00    +0.000 A 
ATOM      5  C   UNL     1      47.707   5.143  16.923  0.00  0.00    +0.000 A 
ATOM      6  C   UNL     1      47.157   5.044  15.639  0.00  0.00    +0.000 A 
ATOM      7  C   UNL     1      47.265   3.838  14.941  0.00  0.00    +0.000 A 
ATOM      8  N   UNL     1      46.820   3.645  13.640  0.00  0.00    +0.000 N 
ATOM      9  N   UNL     1      47.868   2.763  15.491  0.00  0.00    +0.000 NA
ATOM     10  C   UNL     1      48.394   2.883  16.735  0.00  0.00    +0.000 A 
ATOM     11  H   UNL     1      46.958   2.671  13.396  0.00  0.00    +0.000 HD
BRANCH   4  13
ATOM     12  N   UNL     1      49.467   4.116  19.816  0.00  0.00    +0.000 NA
ATOM     13  C   UNL     1      48.966   4.092  18.774  0.00  0.00    +0.000 C 
ENDBRANCH   4  13
ENDBRANCH   1   8
BRANCH   1  14
ATOM     14  C   UNL     1      46.176   5.860  12.614  0.00  0.00    +0.000 A 
ATOM     15  C   UNL     1      45.252   6.902  12.794  0.00  0.00    +0.000 A 
ATOM     16  C   UNL     1      45.673   8.225  12.878  0.00  0.00    +0.000 A 
ATOM     17  C   UNL     1      47.032   8.527  12.767  0.00  0.00    +0.000 A 
ATOM     18  C   UNL     1      47.980   7.528  12.484  0.00  0.00    +0.000 A 
ATOM     19  C   UNL     1      47.509   6.209  12.351  0.00  0.00    +0.000 A 
BRANCH  18  20
ATOM     20  C   UNL     1      49.427   7.805  12.450  0.00  0.00    +0.000 A 
ATOM     21  N   UNL     1      50.058   7.726  11.263  0.00  0.00    +0.000 NA
ATOM     22  C   UNL     1      51.344   8.123  11.241  0.00  0.00    +0.000 A 
ATOM     23  C   UNL     1      52.018   8.584  12.345  0.00  0.00    +0.000 A 
ATOM     24  C   UNL     1      51.293   8.617  13.512  0.00  0.00    +0.000 A 
ATOM     25  N   UNL     1      50.006   8.239  13.592  0.00  0.00    +0.000 NA
ENDBRANCH  18  20
ENDBRANCH   1  14
TORSDOF 4
ENDMDL
