MODEL 1
REMARK VINA RESULT:    -8.141      0.000      0.000
REMARK INTER + INTRA:         -12.130
REMARK INTER:                 -10.996
REMARK INTRA:                  -1.134
REMARK UNBOUND:                -1.134
REMARK  Name = 
REMARK  7 active torsions:
REMARK  status: ('A' for Active; 'I' for Inactive)
REMARK    1  A    between atoms: C_1  and  C_2
REMARK    2  A    between atoms: C_4  and  C_5
REMARK    3  A    between atoms: C_10  and  N_11
REMARK    4  A    between atoms: N_11  and  C_12
REMARK    5  A    between atoms: C_12  and  C_13
REMARK    6  A    between atoms: C_16  and  O_17
REMARK    7  A    between atoms: O_17  and  C_18
REMARK                            x       y       z     vdW  Elec       q    Type
REMARK                         _______ _______ _______ _____ _____    ______ ____
ROOT
ATOM      1  N   UNL     1      43.855   4.695   9.758  0.00  0.00    +0.000 N 
ATOM      2  H   UNL     1      43.006   4.137   9.721  0.00  0.00    +0.000 HD
ENDROOT
BRANCH   1   9
ATOM      3  C   UNL     1      44.021   1.776   9.672  0.00  0.00    +0.000 C 
ATOM      4  C   UNL     1      44.964   2.680   8.925  0.00  0.00    +0.000 A 
ATOM      5  C   UNL     1      45.947   2.075   8.129  0.00  0.00    +0.000 A 
ATOM      6  C   UNL     1      46.803   2.875   7.388  0.00  0.00    +0.000 A 
ATOM      7  N   UNL     1      46.737   4.233   7.379  0.00  0.00    +0.000 NA
ATOM      8  C   UNL     1      45.771   4.791   8.169  0.00  0.00    +0.000 A 
ATOM      9  C   UNL     1      44.883   4.092   8.993  0.00  0.00    +0.000 A 
BRANCH   6  10
ATOM     10  C   UNL     1      47.848   2.204   6.538  0.00  0.00    +0.000 C 
ATOM     11  N   UNL     1      48.250   2.875   5.419  0.00  0.00    +0.000 N 
ATOM     12  O   UNL     1      48.315   1.106   6.818  0.00  0.00    +0.000 OA
ATOM     13  H   UNL     1      47.838   3.777   5.197  0.00  0.00    +0.000 HD
ATOM     14  H   UNL     1      48.935   2.453   4.814  0.00  0.00    +0.000 HD
ENDBRANCH   6  10
ENDBRANCH   1   9
BRANCH   1  15
ATOM     15  C   UNL     1      44.002   5.397  11.053  0.00  0.00    +0.000 C 
ATOM     16  C   UNL     1      42.652   5.715  11.709  0.00  0.00    +0.000 C 
ATOM     17  C   UNL     1      43.558   6.826  11.301  0.00  0.00    +0.000 C 
BRANCH  15  18
ATOM     18  C   UNL     1      45.107   4.858  11.964  0.00  0.00    +0.000 A 
ATOM     19  C   UNL     1      46.093   5.705  12.498  0.00  0.00    +0.000 A 
ATOM     20  C   UNL     1      47.051   5.246  13.411  0.00  0.00    +0.000 A 
ATOM     21  C   UNL     1      47.015   3.929  13.854  0.00  0.00    +0.000 A 
ATOM     22  C   UNL     1      46.086   3.053  13.291  0.00  0.00    +0.000 A 
ATOM     23  C   UNL     1      45.151   3.510  12.356  0.00  0.00    +0.000 A 
BRANCH  21  24
ATOM     24  O   UNL     1      47.835   3.370  14.783  0.00  0.00    +0.000 OA
BRANCH  24  25
ATOM     25  C   UNL     1      47.783   3.825  16.128  0.00  0.00    +0.000 C 
ATOM     26  F   UNL     1      48.513   4.933  16.370  0.00  0.00    +0.000 F 
ATOM     27  F   UNL     1      46.495   4.111  16.432  0.00  0.00    +0.000 F 
ATOM     28  F   UNL     1      48.198   2.839  16.951  0.00  0.00    +0.000 F 
ENDBRANCH  24  25
ENDBRANCH  21  24
ENDBRANCH  15  18
ENDBRANCH   1  15
TORSDOF 6
ENDMDL
MODEL 2
REMARK VINA RESULT:    -7.804      1.474      1.901
REMARK INTER + INTRA:         -11.675
REMARK INTER:                 -10.675
REMARK INTRA:                  -1.000
REMARK UNBOUND:                -1.134
REMARK  Name = 
REMARK  7 active torsions:
REMARK  status: ('A' for Active; 'I' for Inactive)
REMARK    1  A    between atoms: C_1  and  C_2
REMARK    2  A    between atoms: C_4  and  C_5
REMARK    3  A    between atoms: C_10  and  N_11
REMARK    4  A    between atoms: N_11  and  C_12
REMARK    5  A    between atoms: C_12  and  C_13
REMARK    6  A    between atoms: C_16  and  O_17
REMARK    7  A    between atoms: O_17  and  C_18
REMARK                            x       y       z     vdW  Elec       q    Type
REMARK                         _______ _______ _______ _____ _____    ______ ____
ROOT
ATOM      1  N   UNL     1      43.781   4.778   9.775  0.00  0.00    +0.000 N 
ATOM      2  H   UNL     1      42.879   4.358   9.569  0.00  0.00    +0.000 HD
ENDROOT
BRANCH   1   9
ATOM      3  C   UNL     1      43.999   1.874  10.050  0.00  0.00    +0.000 C 
ATOM      4  C   UNL     1      44.922   2.694   9.190  0.00  0.00    +0.000 A 
ATOM      5  C   UNL     1      45.912   2.012   8.469  0.00  0.00    +0.000 A 
ATOM      6  C   UNL     1      46.751   2.728   7.629  0.00  0.00    +0.000 A 
ATOM      7  N   UNL     1      46.661   4.074   7.453  0.00  0.00    +0.000 NA
ATOM      8  C   UNL     1      45.688   4.709   8.174  0.00  0.00    +0.000 A 
ATOM      9  C   UNL     1      44.817   4.102   9.084  0.00  0.00    +0.000 A 
BRANCH   6  10
ATOM     10  C   UNL     1      47.803   1.976   6.862  0.00  0.00    +0.000 C 
ATOM     11  N   UNL     1      48.695   2.725   6.150  0.00  0.00    +0.000 N 
ATOM     12  O   UNL     1      47.863   0.751   6.859  0.00  0.00    +0.000 OA
ATOM     13  H   UNL     1      48.619   3.738   6.153  0.00  0.00    +0.000 HD
ATOM     14  H   UNL     1      49.405   2.260   5.609  0.00  0.00    +0.000 HD
ENDBRANCH   6  10
ENDBRANCH   1   9
BRANCH   1  15
ATOM     15  C   UNL     1      43.837   5.327  11.149  0.00  0.00    +0.000 C 
ATOM     16  C   UNL     1      42.812   4.677  12.087  0.00  0.00    +0.000 C 
ATOM     17  C   UNL     1      42.723   6.135  11.788  0.00  0.00    +0.000 C 
BRANCH  15  18
ATOM     18  C   UNL     1      45.246   5.547  11.705  0.00  0.00    +0.000 A 
ATOM     19  C   UNL     1      45.996   6.686  11.365  0.00  0.00    +0.000 A 
ATOM     20  C   UNL     1      47.244   6.952  11.942  0.00  0.00    +0.000 A 
ATOM     21  C   UNL     1      47.756   6.102  12.916  0.00  0.00    +0.000 A 
ATOM     22  C   UNL     1      47.060   4.933  13.223  0.00  0.00    +0.000 A 
ATOM     23  C   UNL     1      45.828   4.657  12.621  0.00  0.00    +0.000 A 
BRANCH  21  24
ATOM     24  O   UNL     1      48.915   6.273  13.604  0.00  0.00    +0.000 OA
BRANCH  24  25
ATOM     25  C   UNL     1      48.890   6.913  14.873  0.00  0.00    +0.000 C 
ATOM     26  F   UNL     1      50.105   7.251  15.351  0.00  0.00    +0.000 F 
ATOM     27  F   UNL     1      48.165   8.051  14.761  0.00  0.00    +0.000 F 
ATOM     28  F   UNL     1      48.276   6.111  15.767  0.00  0.00    +0.000 F 
ENDBRANCH  24  25
ENDBRANCH  21  24
ENDBRANCH  15  18
ENDBRANCH   1  15
TORSDOF 6
ENDMDL
MODEL 3
REMARK VINA RESULT:    -7.711      4.581      7.259
REMARK INTER + INTRA:         -11.550
REMARK INTER:                 -10.660
REMARK INTRA:                  -0.890
REMARK UNBOUND:                -1.134
REMARK  Name = 
REMARK  7 active torsions:
REMARK  status: ('A' for Active; 'I' for Inactive)
REMARK    1  A    between atoms: C_1  and  C_2
REMARK    2  A    between atoms: C_4  and  C_5
REMARK    3  A    between atoms: C_10  and  N_11
REMARK    4  A    between atoms: N_11  and  C_12
REMARK    5  A    between atoms: C_12  and  C_13
REMARK    6  A    between atoms: C_16  and  O_17
REMARK    7  A    between atoms: O_17  and  C_18
REMARK                            x       y       z     vdW  Elec       q    Type
REMARK                         _______ _______ _______ _____ _____    ______ ____
ROOT
ATOM      1  N   UNL     1      44.748   6.190  12.000  0.00  0.00    +0.000 N 
ATOM      2  H   UNL     1      44.564   6.947  11.347  0.00  0.00    +0.000 HD
ENDROOT
BRANCH   1   9
ATOM      3  C   UNL     1      45.574   8.919  12.653  0.00  0.00    +0.000 C 
ATOM      4  C   UNL     1      46.388   7.702  13.003  0.00  0.00    +0.000 A 
ATOM      5  C   UNL     1      47.586   7.904  13.704  0.00  0.00    +0.000 A 
ATOM      6  C   UNL     1      48.338   6.805  14.085  0.00  0.00    +0.000 A 
ATOM      7  N   UNL     1      47.972   5.521  13.826  0.00  0.00    +0.000 NA
ATOM      8  C   UNL     1      46.801   5.360  13.138  0.00  0.00    +0.000 A 
ATOM      9  C   UNL     1      45.984   6.389  12.661  0.00  0.00    +0.000 A 
BRANCH   6  10
ATOM     10  C   UNL     1      49.618   7.045  14.839  0.00  0.00    +0.000 C 
ATOM     11  N   UNL     1      50.400   8.077  14.406  0.00  0.00    +0.000 N 
ATOM     12  O   UNL     1      49.959   6.350  15.790  0.00  0.00    +0.000 OA
ATOM     13  H   UNL     1      50.106   8.631  13.607  0.00  0.00    +0.000 HD
ATOM     14  H   UNL     1      51.273   8.261  14.873  0.00  0.00    +0.000 HD
ENDBRANCH   6  10
ENDBRANCH   1   9
BRANCH   1  15
ATOM     15  C   UNL     1      44.184   4.904  11.532  0.00  0.00    +0.000 C 
ATOM     16  C   UNL     1      42.657   4.846  11.664  0.00  0.00    +0.000 C 
ATOM     17  C   UNL     1      43.504   3.893  12.436  0.00  0.00    +0.000 C 
BRANCH  15  18
ATOM     18  C   UNL     1      44.789   4.361  10.235  0.00  0.00    +0.000 A 
ATOM     19  C   UNL     1      44.551   3.042   9.813  0.00  0.00    +0.000 A 
ATOM     20  C   UNL     1      45.015   2.561   8.583  0.00  0.00    +0.000 A 
ATOM     21  C   UNL     1      45.693   3.410   7.714  0.00  0.00    +0.000 A 
ATOM     22  C   UNL     1      45.996   4.704   8.138  0.00  0.00    +0.000 A 
ATOM     23  C   UNL     1      45.557   5.170   9.382  0.00  0.00    +0.000 A 
BRANCH  21  24
ATOM     24  O   UNL     1      46.137   3.099   6.468  0.00  0.00    +0.000 OA
BRANCH  24  25
ATOM     25  C   UNL     1      47.234   2.208   6.317  0.00  0.00    +0.000 C 
ATOM     26  F   UNL     1      46.911   0.903   6.424  0.00  0.00    +0.000 F 
ATOM     27  F   UNL     1      47.770   2.396   5.089  0.00  0.00    +0.000 F 
ATOM     28  F   UNL     1      48.178   2.502   7.236  0.00  0.00    +0.000 F 
ENDBRANCH  24  25
ENDBRANCH  21  24
ENDBRANCH  15  18
ENDBRANCH   1  15
TORSDOF 6
ENDMDL
MODEL 4
REMARK VINA RESULT:    -7.448      4.502      7.448
REMARK INTER + INTRA:         -11.194
REMARK INTER:                 -10.273
REMARK INTRA:                  -0.921
REMARK UNBOUND:                -1.134
REMARK  Name = 
REMARK  7 active torsions:
REMARK  status: ('A' for Active; 'I' for Inactive)
REMARK    1  A    between atoms: C_1  and  C_2
REMARK    2  A    between atoms: C_4  and  C_5
REMARK    3  A    between atoms: C_10  and  N_11
REMARK    4  A    between atoms: N_11  and  C_12
REMARK    5  A    between atoms: C_12  and  C_13
REMARK    6  A    between atoms: C_16  and  O_17
REMARK    7  A    between atoms: O_17  and  C_18
REMARK                            x       y       z     vdW  Elec       q    Type
REMARK                         _______ _______ _______ _____ _____    ______ ____
ROOT
ATOM      1  N   UNL     1      45.264   5.858  12.186  0.00  0.00    +0.000 N 
ATOM      2  H   UNL     1      45.711   6.530  11.569  0.00  0.00    +0.000 HD
ENDROOT
BRANCH   1   9
ATOM      3  C   UNL     1      47.403   7.711  12.923  0.00  0.00    +0.000 C 
ATOM      4  C   UNL     1      47.149   6.414  13.642  0.00  0.00    +0.000 A 
ATOM      5  C   UNL     1      47.971   6.109  14.737  0.00  0.00    +0.000 A 
ATOM      6  C   UNL     1      47.737   4.946  15.453  0.00  0.00    +0.000 A 
ATOM      7  N   UNL     1      46.734   4.075  15.159  0.00  0.00    +0.000 NA
ATOM      8  C   UNL     1      45.955   4.400  14.084  0.00  0.00    +0.000 A 
ATOM      9  C   UNL     1      46.123   5.517  13.260  0.00  0.00    +0.000 A 
BRANCH   6  10
ATOM     10  C   UNL     1      48.629   4.640  16.626  0.00  0.00    +0.000 C 
ATOM     11  N   UNL     1      48.632   5.548  17.646  0.00  0.00    +0.000 N 
ATOM     12  O   UNL     1      49.331   3.636  16.672  0.00  0.00    +0.000 OA
ATOM     13  H   UNL     1      48.054   6.381  17.581  0.00  0.00    +0.000 HD
ATOM     14  H   UNL     1      49.227   5.390  18.442  0.00  0.00    +0.000 HD
ENDBRANCH   6  10
ENDBRANCH   1   9
BRANCH   1  15
ATOM     15  C   UNL     1      44.351   4.952  11.453  0.00  0.00    +0.000 C 
ATOM     16  C   UNL     1      42.919   5.496  11.374  0.00  0.00    +0.000 C 
ATOM     17  C   UNL     1      43.187   4.218  12.092  0.00  0.00    +0.000 C 
BRANCH  15  18
ATOM     18  C   UNL     1      44.931   4.335  10.179  0.00  0.00    +0.000 A 
ATOM     19  C   UNL     1      44.710   2.986   9.853  0.00  0.00    +0.000 A 
ATOM     20  C   UNL     1      45.149   2.432   8.644  0.00  0.00    +0.000 A 
ATOM     21  C   UNL     1      45.783   3.233   7.701  0.00  0.00    +0.000 A 
ATOM     22  C   UNL     1      46.071   4.559   8.028  0.00  0.00    +0.000 A 
ATOM     23  C   UNL     1      45.657   5.099   9.250  0.00  0.00    +0.000 A 
BRANCH  21  24
ATOM     24  O   UNL     1      46.199   2.847   6.466  0.00  0.00    +0.000 OA
BRANCH  24  25
ATOM     25  C   UNL     1      47.348   2.020   6.340  0.00  0.00    +0.000 C 
ATOM     26  F   UNL     1      48.285   2.218   7.290  0.00  0.00    +0.000 F 
ATOM     27  F   UNL     1      46.953   0.728   6.419  0.00  0.00    +0.000 F 
ATOM     28  F   UNL     1      47.907   2.214   5.127  0.00  0.00    +0.000 F 
ENDBRANCH  24  25
ENDBRANCH  21  24
ENDBRANCH  15  18
ENDBRANCH   1  15
TORSDOF 6
ENDMDL
MODEL 5
REMARK VINA RESULT:    -6.196      4.770      8.050
REMARK INTER + INTRA:          -9.504
REMARK INTER:                  -8.855
REMARK INTRA:                  -0.648
REMARK UNBOUND:                -1.134
REMARK  Name = 
REMARK  7 active torsions:
REMARK  status: ('A' for Active; 'I' for Inactive)
REMARK    1  A    between atoms: C_1  and  C_2
REMARK    2  A    between atoms: C_4  and  C_5
REMARK    3  A    between atoms: C_10  and  N_11
REMARK    4  A    between atoms: N_11  and  C_12
REMARK    5  A    between atoms: C_12  and  C_13
REMARK    6  A    between atoms: C_16  and  O_17
REMARK    7  A    between atoms: O_17  and  C_18
REMARK                            x       y       z     vdW  Elec       q    Type
REMARK                         _______ _______ _______ _____ _____    ______ ____
ROOT
ATOM      1  N   UNL     1      48.139   6.311  13.563  0.00  0.00    +0.000 N 
ATOM      2  H   UNL     1      48.651   5.667  12.966  0.00  0.00    +0.000 HD
ENDROOT
BRANCH   1   9
ATOM      3  C   UNL     1      49.594   7.977  15.476  0.00  0.00    +0.000 C 
ATOM      4  C   UNL     1      48.888   6.704  15.858  0.00  0.00    +0.000 A 
ATOM      5  C   UNL     1      48.915   6.329  17.209  0.00  0.00    +0.000 A 
ATOM      6  C   UNL     1      48.235   5.188  17.607  0.00  0.00    +0.000 A 
ATOM      7  N   UNL     1      47.524   4.405  16.752  0.00  0.00    +0.000 NA
ATOM      8  C   UNL     1      47.522   4.797  15.442  0.00  0.00    +0.000 A 
ATOM      9  C   UNL     1      48.205   5.898  14.916  0.00  0.00    +0.000 A 
BRANCH   6  10
ATOM     10  C   UNL     1      48.274   4.807  19.062  0.00  0.00    +0.000 C 
ATOM     11  N   UNL     1      48.451   3.482  19.343  0.00  0.00    +0.000 N 
ATOM     12  O   UNL     1      48.145   5.631  19.959  0.00  0.00    +0.000 OA
ATOM     13  H   UNL     1      48.541   2.813  18.583  0.00  0.00    +0.000 HD
ATOM     14  H   UNL     1      48.466   3.182  20.304  0.00  0.00    +0.000 HD
ENDBRANCH   6  10
ENDBRANCH   1   9
BRANCH   1  15
ATOM     15  C   UNL     1      46.975   6.906  12.868  0.00  0.00    +0.000 C 
ATOM     16  C   UNL     1      47.320   8.223  12.161  0.00  0.00    +0.000 C 
ATOM     17  C   UNL     1      46.323   8.216  13.269  0.00  0.00    +0.000 C 
BRANCH  15  18
ATOM     18  C   UNL     1      46.099   5.914  12.100  0.00  0.00    +0.000 A 
ATOM     19  C   UNL     1      45.932   6.011  10.708  0.00  0.00    +0.000 A 
ATOM     20  C   UNL     1      45.216   5.055   9.978  0.00  0.00    +0.000 A 
ATOM     21  C   UNL     1      44.684   3.942  10.621  0.00  0.00    +0.000 A 
ATOM     22  C   UNL     1      44.782   3.857  12.009  0.00  0.00    +0.000 A 
ATOM     23  C   UNL     1      45.472   4.831  12.738  0.00  0.00    +0.000 A 
BRANCH  21  24
ATOM     24  O   UNL     1      44.029   2.908  10.030  0.00  0.00    +0.000 OA
BRANCH  24  25
ATOM     25  C   UNL     1      44.647   2.206   8.960  0.00  0.00    +0.000 C 
ATOM     26  F   UNL     1      44.525   2.803   7.757  0.00  0.00    +0.000 F 
ATOM     27  F   UNL     1      45.969   2.098   9.229  0.00  0.00    +0.000 F 
ATOM     28  F   UNL     1      44.131   0.961   8.886  0.00  0.00    +0.000 F 
ENDBRANCH  24  25
ENDBRANCH  21  24
ENDBRANCH  15  18
ENDBRANCH   1  15
TORSDOF 6
ENDMDL
MODEL 6
REMARK VINA RESULT:    -6.012      3.525      5.525
REMARK INTER + INTRA:          -9.255
REMARK INTER:                  -8.307
REMARK INTRA:                  -0.947
REMARK UNBOUND:                -1.134
REMARK  Name = 
REMARK  7 active torsions:
REMARK  status: ('A' for Active; 'I' for Inactive)
REMARK    1  A    between atoms: C_1  and  C_2
REMARK    2  A    between atoms: C_4  and  C_5
REMARK    3  A    between atoms: C_10  and  N_11
REMARK    4  A    between atoms: N_11  and  C_12
REMARK    5  A    between atoms: C_12  and  C_13
REMARK    6  A    between atoms: C_16  and  O_17
REMARK    7  A    between atoms: O_17  and  C_18
REMARK                            x       y       z     vdW  Elec       q    Type
REMARK                         _______ _______ _______ _____ _____    ______ ____
ROOT
ATOM      1  N   UNL     1      46.720   6.996  13.663  0.00  0.00    +0.000 N 
ATOM      2  H   UNL     1      46.394   7.169  14.610  0.00  0.00    +0.000 HD
ENDROOT
BRANCH   1   9
ATOM      3  C   UNL     1      44.925   7.569  11.426  0.00  0.00    +0.000 C 
ATOM      4  C   UNL     1      45.144   6.186  11.977  0.00  0.00    +0.000 A 
ATOM      5  C   UNL     1      44.468   5.127  11.355  0.00  0.00    +0.000 A 
ATOM      6  C   UNL     1      44.681   3.833  11.803  0.00  0.00    +0.000 A 
ATOM      7  N   UNL     1      45.530   3.524  12.820  0.00  0.00    +0.000 NA
ATOM      8  C   UNL     1      46.170   4.581  13.408  0.00  0.00    +0.000 A 
ATOM      9  C   UNL     1      46.001   5.928  13.074  0.00  0.00    +0.000 A 
BRANCH   6  10
ATOM     10  C   UNL     1      43.948   2.711  11.119  0.00  0.00    +0.000 C 
ATOM     11  N   UNL     1      44.477   2.262   9.944  0.00  0.00    +0.000 N 
ATOM     12  O   UNL     1      42.921   2.224  11.577  0.00  0.00    +0.000 OA
ATOM     13  H   UNL     1      45.321   2.690   9.574  0.00  0.00    +0.000 HD
ATOM     14  H   UNL     1      44.007   1.524   9.445  0.00  0.00    +0.000 HD
ENDBRANCH   6  10
ENDBRANCH   1   9
BRANCH   1  15
ATOM     15  C   UNL     1      48.162   7.292  13.510  0.00  0.00    +0.000 C 
ATOM     16  C   UNL     1      48.419   8.616  12.778  0.00  0.00    +0.000 C 
ATOM     17  C   UNL     1      48.885   7.334  12.177  0.00  0.00    +0.000 C 
BRANCH  15  18
ATOM     18  C   UNL     1      49.021   7.003  14.743  0.00  0.00    +0.000 A 
ATOM     19  C   UNL     1      48.505   6.297  15.844  0.00  0.00    +0.000 A 
ATOM     20  C   UNL     1      49.304   5.938  16.936  0.00  0.00    +0.000 A 
ATOM     21  C   UNL     1      50.662   6.237  16.933  0.00  0.00    +0.000 A 
ATOM     22  C   UNL     1      51.183   6.993  15.883  0.00  0.00    +0.000 A 
ATOM     23  C   UNL     1      50.373   7.375  14.808  0.00  0.00    +0.000 A 
BRANCH  21  24
ATOM     24  O   UNL     1      51.564   5.892  17.890  0.00  0.00    +0.000 OA
BRANCH  24  25
ATOM     25  C   UNL     1      52.191   4.618  17.834  0.00  0.00    +0.000 C 
ATOM     26  F   UNL     1      51.481   3.674  17.182  0.00  0.00    +0.000 F 
ATOM     27  F   UNL     1      53.375   4.754  17.192  0.00  0.00    +0.000 F 
ATOM     28  F   UNL     1      52.443   4.188  19.089  0.00  0.00    +0.000 F 
ENDBRANCH  24  25
ENDBRANCH  21  24
ENDBRANCH  15  18
ENDBRANCH   1  15
TORSDOF 6
ENDMDL
MODEL 7
REMARK VINA RESULT:    -5.633      3.686      5.656
REMARK INTER + INTRA:          -8.743
REMARK INTER:                  -7.751
REMARK INTRA:                  -0.992
REMARK UNBOUND:                -1.134
REMARK  Name = 
REMARK  7 active torsions:
REMARK  status: ('A' for Active; 'I' for Inactive)
REMARK    1  A    between atoms: C_1  and  C_2
REMARK    2  A    between atoms: C_4  and  C_5
REMARK    3  A    between atoms: C_10  and  N_11
REMARK    4  A    between atoms: N_11  and  C_12
REMARK    5  A    between atoms: C_12  and  C_13
REMARK    6  A    between atoms: C_16  and  O_17
REMARK    7  A    between atoms: O_17  and  C_18
REMARK                            x       y       z     vdW  Elec       q    Type
REMARK                         _______ _______ _______ _____ _____    ______ ____
ROOT
ATOM      1  N   UNL     1      46.818   7.646  13.521  0.00  0.00    +0.000 N 
ATOM      2  H   UNL     1      46.221   8.154  14.168  0.00  0.00    +0.000 HD
ENDROOT
BRANCH   1   9
ATOM      3  C   UNL     1      44.862   8.090  11.392  0.00  0.00    +0.000 C 
ATOM      4  C   UNL     1      45.198   6.728  11.935  0.00  0.00    +0.000 A 
ATOM      5  C   UNL     1      44.552   5.624  11.358  0.00  0.00    +0.000 A 
ATOM      6  C   UNL     1      44.870   4.349  11.799  0.00  0.00    +0.000 A 
ATOM      7  N   UNL     1      45.795   4.101  12.766  0.00  0.00    +0.000 NA
ATOM      8  C   UNL     1      46.402   5.199  13.309  0.00  0.00    +0.000 A 
ATOM      9  C   UNL     1      46.132   6.531  12.980  0.00  0.00    +0.000 A 
BRANCH   6  10
ATOM     10  C   UNL     1      44.168   3.180  11.164  0.00  0.00    +0.000 C 
ATOM     11  N   UNL     1      44.882   2.460  10.250  0.00  0.00    +0.000 N 
ATOM     12  O   UNL     1      43.010   2.884  11.437  0.00  0.00    +0.000 OA
ATOM     13  H   UNL     1      45.835   2.731  10.028  0.00  0.00    +0.000 HD
ATOM     14  H   UNL     1      44.444   1.679   9.789  0.00  0.00    +0.000 HD
ENDBRANCH   6  10
ENDBRANCH   1   9
BRANCH   1  15
ATOM     15  C   UNL     1      48.244   7.711  13.911  0.00  0.00    +0.000 C 
ATOM     16  C   UNL     1      48.996   8.850  13.211  0.00  0.00    +0.000 C 
ATOM     17  C   UNL     1      49.399   7.436  12.967  0.00  0.00    +0.000 C 
BRANCH  15  18
ATOM     18  C   UNL     1      48.520   7.512  15.403  0.00  0.00    +0.000 A 
ATOM     19  C   UNL     1      48.289   8.539  16.334  0.00  0.00    +0.000 A 
ATOM     20  C   UNL     1      48.441   8.342  17.712  0.00  0.00    +0.000 A 
ATOM     21  C   UNL     1      48.785   7.086  18.201  0.00  0.00    +0.000 A 
ATOM     22  C   UNL     1      49.081   6.068  17.295  0.00  0.00    +0.000 A 
ATOM     23  C   UNL     1      48.957   6.280  15.917  0.00  0.00    +0.000 A 
BRANCH  21  24
ATOM     24  O   UNL     1      48.900   6.737  19.509  0.00  0.00    +0.000 OA
BRANCH  24  25
ATOM     25  C   UNL     1      47.743   6.343  20.234  0.00  0.00    +0.000 C 
ATOM     26  F   UNL     1      46.724   5.907  19.465  0.00  0.00    +0.000 F 
ATOM     27  F   UNL     1      48.085   5.333  21.067  0.00  0.00    +0.000 F 
ATOM     28  F   UNL     1      47.312   7.378  20.986  0.00  0.00    +0.000 F 
ENDBRANCH  24  25
ENDBRANCH  21  24
ENDBRANCH  15  18
ENDBRANCH   1  15
TORSDOF 6
ENDMDL
MODEL 8
REMARK VINA RESULT:    -5.630      4.971      8.074
REMARK INTER + INTRA:          -8.739
REMARK INTER:                  -8.175
REMARK INTRA:                  -0.564
REMARK UNBOUND:                -1.134
REMARK  Name = 
REMARK  7 active torsions:
REMARK  status: ('A' for Active; 'I' for Inactive)
REMARK    1  A    between atoms: C_1  and  C_2
REMARK    2  A    between atoms: C_4  and  C_5
REMARK    3  A    between atoms: C_10  and  N_11
REMARK    4  A    between atoms: N_11  and  C_12
REMARK    5  A    between atoms: C_12  and  C_13
REMARK    6  A    between atoms: C_16  and  O_17
REMARK    7  A    between atoms: O_17  and  C_18
REMARK                            x       y       z     vdW  Elec       q    Type
REMARK                         _______ _______ _______ _____ _____    ______ ____
ROOT
ATOM      1  N   UNL     1      48.770   7.897  14.495  0.00  0.00    +0.000 N 
ATOM      2  H   UNL     1      49.231   8.802  14.468  0.00  0.00    +0.000 HD
ENDROOT
BRANCH   1   9
ATOM      3  C   UNL     1      51.672   8.066  14.820  0.00  0.00    +0.000 C 
ATOM      4  C   UNL     1      50.805   7.127  15.614  0.00  0.00    +0.000 A 
ATOM      5  C   UNL     1      51.434   6.320  16.573  0.00  0.00    +0.000 A 
ATOM      6  C   UNL     1      50.662   5.476  17.356  0.00  0.00    +0.000 A 
ATOM      7  N   UNL     1      49.308   5.392  17.255  0.00  0.00    +0.000 NA
ATOM      8  C   UNL     1      48.727   6.188  16.307  0.00  0.00    +0.000 A 
ATOM      9  C   UNL     1      49.404   7.042  15.430  0.00  0.00    +0.000 A 
BRANCH   6  10
ATOM     10  C   UNL     1      51.356   4.622  18.382  0.00  0.00    +0.000 C 
ATOM     11  N   UNL     1      50.965   3.317  18.459  0.00  0.00    +0.000 N 
ATOM     12  O   UNL     1      52.224   5.066  19.126  0.00  0.00    +0.000 OA
ATOM     13  H   UNL     1      50.233   2.973  17.843  0.00  0.00    +0.000 HD
ATOM     14  H   UNL     1      51.393   2.715  19.143  0.00  0.00    +0.000 HD
ENDBRANCH   6  10
ENDBRANCH   1   9
BRANCH   1  15
ATOM     15  C   UNL     1      48.209   7.519  13.179  0.00  0.00    +0.000 C 
ATOM     16  C   UNL     1      49.293   7.296  12.116  0.00  0.00    +0.000 C 
ATOM     17  C   UNL     1      48.292   8.386  11.937  0.00  0.00    +0.000 C 
BRANCH  15  18
ATOM     18  C   UNL     1      47.065   6.504  13.227  0.00  0.00    +0.000 A 
ATOM     19  C   UNL     1      45.741   6.880  12.943  0.00  0.00    +0.000 A 
ATOM     20  C   UNL     1      44.699   5.945  12.885  0.00  0.00    +0.000 A 
ATOM     21  C   UNL     1      44.967   4.593  13.064  0.00  0.00    +0.000 A 
ATOM     22  C   UNL     1      46.261   4.202  13.410  0.00  0.00    +0.000 A 
ATOM     23  C   UNL     1      47.292   5.144  13.497  0.00  0.00    +0.000 A 
BRANCH  21  24
ATOM     24  O   UNL     1      44.071   3.575  12.969  0.00  0.00    +0.000 OA
BRANCH  24  25
ATOM     25  C   UNL     1      43.615   3.161  11.688  0.00  0.00    +0.000 C 
ATOM     26  F   UNL     1      44.585   3.058  10.757  0.00  0.00    +0.000 F 
ATOM     27  F   UNL     1      43.040   1.942  11.815  0.00  0.00    +0.000 F 
ATOM     28  F   UNL     1      42.675   4.023  11.248  0.00  0.00    +0.000 F 
ENDBRANCH  24  25
ENDBRANCH  21  24
ENDBRANCH  15  18
ENDBRANCH   1  15
TORSDOF 6
ENDMDL
MODEL 9
REMARK VINA RESULT:    -5.518      1.966      2.590
REMARK INTER + INTRA:          -8.587
REMARK INTER:                  -7.512
REMARK INTRA:                  -1.076
REMARK UNBOUND:                -1.134
REMARK  Name = 
REMARK  7 active torsions:
REMARK  status: ('A' for Active; 'I' for Inactive)
REMARK    1  A    between atoms: C_1  and  C_2
REMARK    2  A    between atoms: C_4  and  C_5
REMARK    3  A    between atoms: C_10  and  N_11
REMARK    4  A    between atoms: N_11  and  C_12
REMARK    5  A    between atoms: C_12  and  C_13
REMARK    6  A    between atoms: C_16  and  O_17
REMARK    7  A    between atoms: O_17  and  C_18
REMARK                            x       y       z     vdW  Elec       q    Type
REMARK                         _______ _______ _______ _____ _____    ______ ____
ROOT
ATOM      1  N   UNL     1      44.170   5.851  10.928  0.00  0.00    +0.000 N 
ATOM      2  H   UNL     1      43.544   5.436  11.612  0.00  0.00    +0.000 HD
ENDROOT
BRANCH   1   9
ATOM      3  C   UNL     1      43.573   3.046  11.500  0.00  0.00    +0.000 C 
ATOM      4  C   UNL     1      44.492   3.486  10.393  0.00  0.00    +0.000 A 
ATOM      5  C   UNL     1      45.059   2.489   9.586  0.00  0.00    +0.000 A 
ATOM      6  C   UNL     1      45.873   2.858   8.527  0.00  0.00    +0.000 A 
ATOM      7  N   UNL     1      46.150   4.152   8.213  0.00  0.00    +0.000 NA
ATOM      8  C   UNL     1      45.585   5.099   9.021  0.00  0.00    +0.000 A 
ATOM      9  C   UNL     1      44.787   4.848  10.142  0.00  0.00    +0.000 A 
BRANCH   6  10
ATOM     10  C   UNL     1      46.468   1.772   7.673  0.00  0.00    +0.000 C 
ATOM     11  N   UNL     1      46.985   2.154   6.469  0.00  0.00    +0.000 N 
ATOM     12  O   UNL     1      46.484   0.597   8.023  0.00  0.00    +0.000 OA
ATOM     13  H   UNL     1      46.948   3.130   6.191  0.00  0.00    +0.000 HD
ATOM     14  H   UNL     1      47.378   1.455   5.860  0.00  0.00    +0.000 HD
ENDBRANCH   6  10
ENDBRANCH   1   9
BRANCH   1  15
ATOM     15  C   UNL     1      44.789   7.100  11.426  0.00  0.00    +0.000 C 
ATOM     16  C   UNL     1      43.751   8.172  11.784  0.00  0.00    +0.000 C 
ATOM     17  C   UNL     1      44.736   8.428  10.694  0.00  0.00    +0.000 C 
BRANCH  15  18
ATOM     18  C   UNL     1      45.950   6.905  12.404  0.00  0.00    +0.000 A 
ATOM     19  C   UNL     1      46.046   5.754  13.205  0.00  0.00    +0.000 A 
ATOM     20  C   UNL     1      47.152   5.514  14.030  0.00  0.00    +0.000 A 
ATOM     21  C   UNL     1      48.221   6.404  14.038  0.00  0.00    +0.000 A 
ATOM     22  C   UNL     1      48.120   7.584  13.301  0.00  0.00    +0.000 A 
ATOM     23  C   UNL     1      47.000   7.834  12.502  0.00  0.00    +0.000 A 
BRANCH  21  24
ATOM     24  O   UNL     1      49.380   6.263  14.734  0.00  0.00    +0.000 OA
BRANCH  24  25
ATOM     25  C   UNL     1      49.494   6.839  16.028  0.00  0.00    +0.000 C 
ATOM     26  F   UNL     1      50.220   7.975  16.071  0.00  0.00    +0.000 F 
ATOM     27  F   UNL     1      48.251   7.133  16.475  0.00  0.00    +0.000 F 
ATOM     28  F   UNL     1      50.041   5.939  16.872  0.00  0.00    +0.000 F 
ENDBRANCH  24  25
ENDBRANCH  21  24
ENDBRANCH  15  18
ENDBRANCH   1  15
TORSDOF 6
ENDMDL
