MODEL 1
REMARK VINA RESULT:    -7.886      0.000      0.000
REMARK INTER + INTRA:         -11.359
REMARK INTER:                 -10.652
REMARK INTRA:                  -0.708
REMARK UNBOUND:                -0.708
REMARK  Name = 
REMARK  6 active torsions:
REMARK  status: ('A' for Active; 'I' for Inactive)
REMARK    1  A    between atoms: C_2  and  C_18
REMARK    2  A    between atoms: N_3  and  C_4
REMARK    3  A    between atoms: C_4  and  C_5
REMARK    4  A    between atoms: C_8  and  C_9
REMARK    5  A    between atoms: C_9  and  N_10
REMARK    6  A    between atoms: N_10  and  C_11
REMARK                            x       y       z     vdW  Elec       q    Type
REMARK                         _______ _______ _______ _____ _____    ______ ____
ROOT
ATOM      1  C   UNL     1      46.778   7.034  12.791  0.00  0.00    +0.000 C 
ENDROOT
BRANCH   1   2
ATOM      2  C   UNL     1      46.092   5.925  12.039  0.00  0.00    +0.000 A 
ATOM      3  C   UNL     1      45.903   4.678  12.645  0.00  0.00    +0.000 A 
ATOM      4  C   UNL     1      45.274   3.643  11.952  0.00  0.00    +0.000 A 
ATOM      5  C   UNL     1      44.827   3.829  10.637  0.00  0.00    +0.000 A 
ATOM      6  C   UNL     1      45.037   5.071  10.023  0.00  0.00    +0.000 A 
ATOM      7  C   UNL     1      45.670   6.107  10.715  0.00  0.00    +0.000 A 
BRANCH   5   8
ATOM      8  C   UNL     1      44.192   2.691   9.871  0.00  0.00    +0.000 C 
BRANCH   8   9
ATOM      9  N   UNL     1      44.660   2.650   8.485  0.00  0.00    +0.000 NA
ATOM     10  H   UNL     1      44.410   3.531   8.035  0.00  0.00    +0.000 HD
BRANCH   9  11
ATOM     11  C   UNL     1      46.109   2.426   8.385  0.00  0.00    +0.000 C 
ATOM     12  C   UNL     1      46.710   3.340   7.319  0.00  0.00    +0.000 C 
ATOM     13  C   UNL     1      46.656   2.492   6.065  0.00  0.00    +0.000 C 
ATOM     14  N   UNL     1      47.084   1.167   6.527  0.00  0.00    +0.000 NA
ATOM     15  C   UNL     1      46.488   1.016   7.868  0.00  0.00    +0.000 C 
ATOM     16  H   UNL     1      48.100   1.164   6.619  0.00  0.00    +0.000 HD
ENDBRANCH   9  11
ENDBRANCH   8   9
ENDBRANCH   5   8
ENDBRANCH   1   2
BRANCH   1  19
ATOM     17  O   UNL     1      49.378   6.812  13.842  0.00  0.00    +0.000 OA
ATOM     18  C   UNL     1      48.420   6.593  14.579  0.00  0.00    +0.000 C 
ATOM     19  N   UNL     1      47.124   6.625  14.130  0.00  0.00    +0.000 N 
ATOM     20  H   UNL     1      46.369   6.636  14.806  0.00  0.00    +0.000 HD
BRANCH  18  21
ATOM     21  C   UNL     1      48.606   6.208  15.981  0.00  0.00    +0.000 A 
ATOM     22  C   UNL     1      49.149   7.121  16.879  0.00  0.00    +0.000 A 
ATOM     23  S   UNL     1      49.352   6.491  18.451  0.00  0.00    +0.000 S 
ATOM     24  C   UNL     1      48.670   4.998  18.001  0.00  0.00    +0.000 A 
ATOM     25  N   UNL     1      48.528   3.994  18.907  0.00  0.00    +0.000 NA
ATOM     26  C   UNL     1      47.945   2.938  18.446  0.00  0.00    +0.000 A 
ATOM     27  N   UNL     1      47.497   2.792  17.159  0.00  0.00    +0.000 N 
ATOM     28  C   UNL     1      47.690   3.750  16.191  0.00  0.00    +0.000 A 
ATOM     29  O   UNL     1      47.392   3.535  15.020  0.00  0.00    +0.000 OA
ATOM     30  C   UNL     1      48.306   4.974  16.667  0.00  0.00    +0.000 A 
ATOM     31  H   UNL     1      47.067   1.932  16.855  0.00  0.00    +0.000 HD
ENDBRANCH  18  21
ENDBRANCH   1  19
TORSDOF 6
ENDMDL
MODEL 2
REMARK VINA RESULT:    -7.505      1.547      2.167
REMARK INTER + INTRA:         -10.846
REMARK INTER:                 -10.003
REMARK INTRA:                  -0.843
REMARK UNBOUND:                -0.708
REMARK  Name = 
REMARK  6 active torsions:
REMARK  status: ('A' for Active; 'I' for Inactive)
REMARK    1  A    between atoms: C_2  and  C_18
REMARK    2  A    between atoms: N_3  and  C_4
REMARK    3  A    between atoms: C_4  and  C_5
REMARK    4  A    between atoms: C_8  and  C_9
REMARK    5  A    between atoms: C_9  and  N_10
REMARK    6  A    between atoms: N_10  and  C_11
REMARK                            x       y       z     vdW  Elec       q    Type
REMARK                         _______ _______ _______ _____ _____    ______ ____
ROOT
ATOM      1  C   UNL     1      48.069   7.322  13.526  0.00  0.00    +0.000 C 
ENDROOT
BRANCH   1   2
ATOM      2  C   UNL     1      47.116   6.374  12.847  0.00  0.00    +0.000 A 
ATOM      3  C   UNL     1      46.647   6.655  11.558  0.00  0.00    +0.000 A 
ATOM      4  C   UNL     1      45.758   5.785  10.925  0.00  0.00    +0.000 A 
ATOM      5  C   UNL     1      45.315   4.621  11.566  0.00  0.00    +0.000 A 
ATOM      6  C   UNL     1      45.767   4.353  12.865  0.00  0.00    +0.000 A 
ATOM      7  C   UNL     1      46.654   5.225  13.501  0.00  0.00    +0.000 A 
BRANCH   5   8
ATOM      8  C   UNL     1      44.314   3.707  10.898  0.00  0.00    +0.000 C 
BRANCH   8   9
ATOM      9  N   UNL     1      44.953   2.496  10.384  0.00  0.00    +0.000 NA
ATOM     10  H   UNL     1      44.619   1.699  10.926  0.00  0.00    +0.000 HD
BRANCH   9  11
ATOM     11  C   UNL     1      44.688   2.279   8.954  0.00  0.00    +0.000 C 
ATOM     12  C   UNL     1      45.878   1.584   8.297  0.00  0.00    +0.000 C 
ATOM     13  C   UNL     1      46.722   2.739   7.799  0.00  0.00    +0.000 C 
ATOM     14  N   UNL     1      45.736   3.666   7.232  0.00  0.00    +0.000 NA
ATOM     15  C   UNL     1      44.573   3.589   8.136  0.00  0.00    +0.000 C 
ATOM     16  H   UNL     1      45.458   3.327   6.312  0.00  0.00    +0.000 HD
ENDBRANCH   9  11
ENDBRANCH   8   9
ENDBRANCH   5   8
ENDBRANCH   1   2
BRANCH   1  19
ATOM     17  O   UNL     1      50.141   6.679  15.317  0.00  0.00    +0.000 OA
ATOM     18  C   UNL     1      49.035   6.967  15.768  0.00  0.00    +0.000 C 
ATOM     19  N   UNL     1      47.959   7.237  14.961  0.00  0.00    +0.000 N 
ATOM     20  H   UNL     1      47.133   7.660  15.368  0.00  0.00    +0.000 HD
BRANCH  18  21
ATOM     21  C   UNL     1      48.775   6.970  17.211  0.00  0.00    +0.000 A 
ATOM     22  C   UNL     1      48.410   8.154  17.843  0.00  0.00    +0.000 A 
ATOM     23  S   UNL     1      48.205   7.992  19.528  0.00  0.00    +0.000 S 
ATOM     24  C   UNL     1      48.540   6.324  19.464  0.00  0.00    +0.000 A 
ATOM     25  N   UNL     1      48.512   5.563  20.591  0.00  0.00    +0.000 NA
ATOM     26  C   UNL     1      48.728   4.305  20.389  0.00  0.00    +0.000 A 
ATOM     27  N   UNL     1      48.977   3.742  19.166  0.00  0.00    +0.000 N 
ATOM     28  C   UNL     1      49.092   4.484  18.013  0.00  0.00    +0.000 A 
ATOM     29  O   UNL     1      49.443   3.964  16.958  0.00  0.00    +0.000 OA
ATOM     30  C   UNL     1      48.819   5.899  18.178  0.00  0.00    +0.000 A 
ATOM     31  H   UNL     1      49.159   2.753  19.078  0.00  0.00    +0.000 HD
ENDBRANCH  18  21
ENDBRANCH   1  19
TORSDOF 6
ENDMDL
MODEL 3
REMARK VINA RESULT:    -7.423      4.170      8.751
REMARK INTER + INTRA:         -10.734
REMARK INTER:                  -9.881
REMARK INTRA:                  -0.853
REMARK UNBOUND:                -0.708
REMARK  Name = 
REMARK  6 active torsions:
REMARK  status: ('A' for Active; 'I' for Inactive)
REMARK    1  A    between atoms: C_2  and  C_18
REMARK    2  A    between atoms: N_3  and  C_4
REMARK    3  A    between atoms: C_4  and  C_5
REMARK    4  A    between atoms: C_8  and  C_9
REMARK    5  A    between atoms: C_9  and  N_10
REMARK    6  A    between atoms: N_10  and  C_11
REMARK                            x       y       z     vdW  Elec       q    Type
REMARK                         _______ _______ _______ _____ _____    ______ ____
ROOT
ATOM      1  C   UNL     1      47.150   3.451  16.920  0.00  0.00    +0.000 C 
ENDROOT
BRANCH   1   2
ATOM      2  C   UNL     1      48.633   3.390  17.175  0.00  0.00    +0.000 A 
ATOM      3  C   UNL     1      49.329   2.191  16.986  0.00  0.00    +0.000 A 
ATOM      4  C   UNL     1      50.702   2.125  17.227  0.00  0.00    +0.000 A 
ATOM      5  C   UNL     1      51.407   3.253  17.668  0.00  0.00    +0.000 A 
ATOM      6  C   UNL     1      50.705   4.447  17.879  0.00  0.00    +0.000 A 
ATOM      7  C   UNL     1      49.330   4.513  17.640  0.00  0.00    +0.000 A 
BRANCH   5   8
ATOM      8  C   UNL     1      52.884   3.165  17.976  0.00  0.00    +0.000 C 
BRANCH   8   9
ATOM      9  N   UNL     1      53.197   1.975  18.767  0.00  0.00    +0.000 NA
ATOM     10  H   UNL     1      52.480   1.272  18.589  0.00  0.00    +0.000 HD
BRANCH   9  11
ATOM     11  C   UNL     1      54.527   1.428  18.463  0.00  0.00    +0.000 C 
ATOM     12  C   UNL     1      54.718   1.318  16.952  0.00  0.00    +0.000 C 
ATOM     13  C   UNL     1      54.248  -0.088  16.644  0.00  0.00    +0.000 C 
ATOM     14  N   UNL     1      54.823  -0.888  17.731  0.00  0.00    +0.000 NA
ATOM     15  C   UNL     1      54.722  -0.036  18.931  0.00  0.00    +0.000 C 
ATOM     16  H   UNL     1      55.808  -1.055  17.530  0.00  0.00    +0.000 HD
ENDBRANCH   9  11
ENDBRANCH   8   9
ENDBRANCH   5   8
ENDBRANCH   1   2
BRANCH   1  19
ATOM     17  O   UNL     1      47.309   3.039  14.141  0.00  0.00    +0.000 OA
ATOM     18  C   UNL     1      46.889   4.115  14.558  0.00  0.00    +0.000 C 
ATOM     19  N   UNL     1      46.833   4.416  15.896  0.00  0.00    +0.000 N 
ATOM     20  H   UNL     1      46.300   5.223  16.197  0.00  0.00    +0.000 HD
BRANCH  18  21
ATOM     21  C   UNL     1      46.483   5.185  13.641  0.00  0.00    +0.000 A 
ATOM     22  C   UNL     1      47.374   6.209  13.340  0.00  0.00    +0.000 A 
ATOM     23  S   UNL     1      46.721   7.400  12.308  0.00  0.00    +0.000 S 
ATOM     24  C   UNL     1      45.246   6.560  12.181  0.00  0.00    +0.000 A 
ATOM     25  N   UNL     1      44.233   7.040  11.411  0.00  0.00    +0.000 NA
ATOM     26  C   UNL     1      43.194   6.274  11.361  0.00  0.00    +0.000 A 
ATOM     27  N   UNL     1      43.073   5.077  12.015  0.00  0.00    +0.000 N 
ATOM     28  C   UNL     1      44.040   4.592  12.865  0.00  0.00    +0.000 A 
ATOM     29  O   UNL     1      43.844   3.581  13.534  0.00  0.00    +0.000 OA
ATOM     30  C   UNL     1      45.246   5.395  12.928  0.00  0.00    +0.000 A 
ATOM     31  H   UNL     1      42.224   4.534  11.951  0.00  0.00    +0.000 HD
ENDBRANCH  18  21
ENDBRANCH   1  19
TORSDOF 6
ENDMDL
MODEL 4
REMARK VINA RESULT:    -7.402      2.168      3.815
REMARK INTER + INTRA:         -10.706
REMARK INTER:                  -9.743
REMARK INTRA:                  -0.963
REMARK UNBOUND:                -0.708
REMARK  Name = 
REMARK  6 active torsions:
REMARK  status: ('A' for Active; 'I' for Inactive)
REMARK    1  A    between atoms: C_2  and  C_18
REMARK    2  A    between atoms: N_3  and  C_4
REMARK    3  A    between atoms: C_4  and  C_5
REMARK    4  A    between atoms: C_8  and  C_9
REMARK    5  A    between atoms: C_9  and  N_10
REMARK    6  A    between atoms: N_10  and  C_11
REMARK                            x       y       z     vdW  Elec       q    Type
REMARK                         _______ _______ _______ _____ _____    ______ ____
ROOT
ATOM      1  C   UNL     1      45.656   4.717  13.782  0.00  0.00    +0.000 C 
ENDROOT
BRANCH   1   2
ATOM      2  C   UNL     1      45.456   4.527  12.302  0.00  0.00    +0.000 A 
ATOM      3  C   UNL     1      45.662   5.597  11.422  0.00  0.00    +0.000 A 
ATOM      4  C   UNL     1      45.472   5.431  10.050  0.00  0.00    +0.000 A 
ATOM      5  C   UNL     1      45.067   4.195   9.527  0.00  0.00    +0.000 A 
ATOM      6  C   UNL     1      44.839   3.131  10.410  0.00  0.00    +0.000 A 
ATOM      7  C   UNL     1      45.026   3.298  11.785  0.00  0.00    +0.000 A 
BRANCH   5   8
ATOM      8  C   UNL     1      44.813   4.032   8.046  0.00  0.00    +0.000 C 
BRANCH   8   9
ATOM      9  N   UNL     1      46.066   3.973   7.291  0.00  0.00    +0.000 NA
ATOM     10  H   UNL     1      46.842   4.018   7.951  0.00  0.00    +0.000 HD
BRANCH   9  11
ATOM     11  C   UNL     1      46.172   2.759   6.468  0.00  0.00    +0.000 C 
ATOM     12  C   UNL     1      46.816   1.633   7.273  0.00  0.00    +0.000 C 
ATOM     13  C   UNL     1      48.290   1.780   6.958  0.00  0.00    +0.000 C 
ATOM     14  N   UNL     1      48.308   2.042   5.515  0.00  0.00    +0.000 NA
ATOM     15  C   UNL     1      47.137   2.904   5.266  0.00  0.00    +0.000 C 
ATOM     16  H   UNL     1      48.177   1.161   5.019  0.00  0.00    +0.000 HD
ENDBRANCH   9  11
ENDBRANCH   8   9
ENDBRANCH   5   8
ENDBRANCH   1   2
BRANCH   1  19
ATOM     17  O   UNL     1      47.887   4.527  15.485  0.00  0.00    +0.000 OA
ATOM     18  C   UNL     1      47.705   5.569  14.859  0.00  0.00    +0.000 C 
ATOM     19  N   UNL     1      46.612   5.761  14.052  0.00  0.00    +0.000 N 
ATOM     20  H   UNL     1      46.607   6.545  13.409  0.00  0.00    +0.000 HD
BRANCH  18  21
ATOM     21  C   UNL     1      48.616   6.710  14.993  0.00  0.00    +0.000 A 
ATOM     22  C   UNL     1      48.979   7.158  16.259  0.00  0.00    +0.000 A 
ATOM     23  S   UNL     1      49.993   8.528  16.232  0.00  0.00    +0.000 S 
ATOM     24  C   UNL     1      50.030   8.537  14.530  0.00  0.00    +0.000 A 
ATOM     25  N   UNL     1      50.753   9.467  13.852  0.00  0.00    +0.000 NA
ATOM     26  C   UNL     1      50.738   9.322  12.569  0.00  0.00    +0.000 A 
ATOM     27  N   UNL     1      50.060   8.336  11.902  0.00  0.00    +0.000 N 
ATOM     28  C   UNL     1      49.254   7.423  12.542  0.00  0.00    +0.000 A 
ATOM     29  O   UNL     1      48.561   6.636  11.904  0.00  0.00    +0.000 OA
ATOM     30  C   UNL     1      49.267   7.518  13.989  0.00  0.00    +0.000 A 
ATOM     31  H   UNL     1      50.072   8.290  10.894  0.00  0.00    +0.000 HD
ENDBRANCH  18  21
ENDBRANCH   1  19
TORSDOF 6
ENDMDL
MODEL 5
REMARK VINA RESULT:    -7.251      2.337      3.220
REMARK INTER + INTRA:         -10.502
REMARK INTER:                  -9.609
REMARK INTRA:                  -0.893
REMARK UNBOUND:                -0.708
REMARK  Name = 
REMARK  6 active torsions:
REMARK  status: ('A' for Active; 'I' for Inactive)
REMARK    1  A    between atoms: C_2  and  C_18
REMARK    2  A    between atoms: N_3  and  C_4
REMARK    3  A    between atoms: C_4  and  C_5
REMARK    4  A    between atoms: C_8  and  C_9
REMARK    5  A    between atoms: C_9  and  N_10
REMARK    6  A    between atoms: N_10  and  C_11
REMARK                            x       y       z     vdW  Elec       q    Type
REMARK                         _______ _______ _______ _____ _____    ______ ____
ROOT
ATOM      1  C   UNL     1      45.125   5.382  13.447  0.00  0.00    +0.000 C 
ENDROOT
BRANCH   1   2
ATOM      2  C   UNL     1      45.006   4.829  12.052  0.00  0.00    +0.000 A 
ATOM      3  C   UNL     1      45.393   5.605  10.953  0.00  0.00    +0.000 A 
ATOM      4  C   UNL     1      45.279   5.102   9.657  0.00  0.00    +0.000 A 
ATOM      5  C   UNL     1      44.771   3.816   9.429  0.00  0.00    +0.000 A 
ATOM      6  C   UNL     1      44.363   3.048  10.528  0.00  0.00    +0.000 A 
ATOM      7  C   UNL     1      44.473   3.553  11.827  0.00  0.00    +0.000 A 
BRANCH   5   8
ATOM      8  C   UNL     1      44.602   3.293   8.022  0.00  0.00    +0.000 C 
BRANCH   8   9
ATOM      9  N   UNL     1      45.491   2.160   7.760  0.00  0.00    +0.000 NA
ATOM     10  H   UNL     1      45.151   1.668   6.934  0.00  0.00    +0.000 HD
BRANCH   9  11
ATOM     11  C   UNL     1      46.888   2.573   7.563  0.00  0.00    +0.000 C 
ATOM     12  C   UNL     1      46.981   3.592   6.430  0.00  0.00    +0.000 C 
ATOM     13  C   UNL     1      47.233   2.732   5.209  0.00  0.00    +0.000 C 
ATOM     14  N   UNL     1      48.214   1.747   5.680  0.00  0.00    +0.000 NA
ATOM     15  C   UNL     1      47.810   1.433   7.063  0.00  0.00    +0.000 C 
ATOM     16  H   UNL     1      49.135   2.184   5.699  0.00  0.00    +0.000 HD
ENDBRANCH   9  11
ENDBRANCH   8   9
ENDBRANCH   5   8
ENDBRANCH   1   2
BRANCH   1  19
ATOM     17  O   UNL     1      47.629   4.547  14.420  0.00  0.00    +0.000 OA
ATOM     18  C   UNL     1      47.502   5.702  14.024  0.00  0.00    +0.000 C 
ATOM     19  N   UNL     1      46.302   6.203  13.587  0.00  0.00    +0.000 N 
ATOM     20  H   UNL     1      46.289   7.085  13.088  0.00  0.00    +0.000 HD
BRANCH  18  21
ATOM     21  C   UNL     1      48.621   6.650  14.060  0.00  0.00    +0.000 A 
ATOM     22  C   UNL     1      49.035   7.271  12.886  0.00  0.00    +0.000 A 
ATOM     23  S   UNL     1      50.384   8.294  13.096  0.00  0.00    +0.000 S 
ATOM     24  C   UNL     1      50.425   7.988  14.770  0.00  0.00    +0.000 A 
ATOM     25  N   UNL     1      51.353   8.583  15.566  0.00  0.00    +0.000 NA
ATOM     26  C   UNL     1      51.233   8.307  16.822  0.00  0.00    +0.000 A 
ATOM     27  N   UNL     1      50.276   7.484  17.353  0.00  0.00    +0.000 N 
ATOM     28  C   UNL     1      49.368   6.800  16.578  0.00  0.00    +0.000 A 
ATOM     29  O   UNL     1      48.609   5.973  17.074  0.00  0.00    +0.000 OA
ATOM     30  C   UNL     1      49.433   7.106  15.162  0.00  0.00    +0.000 A 
ATOM     31  H   UNL     1      50.249   7.291  18.344  0.00  0.00    +0.000 HD
ENDBRANCH  18  21
ENDBRANCH   1  19
TORSDOF 6
ENDMDL
MODEL 6
REMARK VINA RESULT:    -7.227      1.794      2.599
REMARK INTER + INTRA:         -10.470
REMARK INTER:                  -9.741
REMARK INTRA:                  -0.729
REMARK UNBOUND:                -0.708
REMARK  Name = 
REMARK  6 active torsions:
REMARK  status: ('A' for Active; 'I' for Inactive)
REMARK    1  A    between atoms: C_2  and  C_18
REMARK    2  A    between atoms: N_3  and  C_4
REMARK    3  A    between atoms: C_4  and  C_5
REMARK    4  A    between atoms: C_8  and  C_9
REMARK    5  A    between atoms: C_9  and  N_10
REMARK    6  A    between atoms: N_10  and  C_11
REMARK                            x       y       z     vdW  Elec       q    Type
REMARK                         _______ _______ _______ _____ _____    ______ ____
ROOT
ATOM      1  C   UNL     1      44.225   3.971  13.153  0.00  0.00    +0.000 C 
ENDROOT
BRANCH   1   2
ATOM      2  C   UNL     1      44.465   4.000  11.667  0.00  0.00    +0.000 A 
ATOM      3  C   UNL     1      44.109   2.901  10.877  0.00  0.00    +0.000 A 
ATOM      4  C   UNL     1      44.335   2.917   9.500  0.00  0.00    +0.000 A 
ATOM      5  C   UNL     1      44.928   4.027   8.884  0.00  0.00    +0.000 A 
ATOM      6  C   UNL     1      45.305   5.118   9.679  0.00  0.00    +0.000 A 
ATOM      7  C   UNL     1      45.081   5.101  11.058  0.00  0.00    +0.000 A 
BRANCH   5   8
ATOM      8  C   UNL     1      45.217   4.022   7.401  0.00  0.00    +0.000 C 
BRANCH   8   9
ATOM      9  N   UNL     1      46.642   4.215   7.132  0.00  0.00    +0.000 NA
ATOM     10  H   UNL     1      47.148   4.158   8.016  0.00  0.00    +0.000 HD
BRANCH   9  11
ATOM     11  C   UNL     1      47.177   3.231   6.180  0.00  0.00    +0.000 C 
ATOM     12  C   UNL     1      46.257   2.013   6.111  0.00  0.00    +0.000 C 
ATOM     13  C   UNL     1      46.838   1.080   7.152  0.00  0.00    +0.000 C 
ATOM     14  N   UNL     1      48.286   1.186   6.939  0.00  0.00    +0.000 NA
ATOM     15  C   UNL     1      48.524   2.606   6.619  0.00  0.00    +0.000 C 
ATOM     16  H   UNL     1      48.541   0.621   6.130  0.00  0.00    +0.000 HD
ENDBRANCH   9  11
ENDBRANCH   8   9
ENDBRANCH   5   8
ENDBRANCH   1   2
BRANCH   1  19
ATOM     17  O   UNL     1      46.801   3.059  13.818  0.00  0.00    +0.000 OA
ATOM     18  C   UNL     1      46.489   4.213  14.102  0.00  0.00    +0.000 C 
ATOM     19  N   UNL     1      45.235   4.716  13.862  0.00  0.00    +0.000 N 
ATOM     20  H   UNL     1      45.086   5.716  13.927  0.00  0.00    +0.000 HD
BRANCH  18  21
ATOM     21  C   UNL     1      47.424   5.112  14.787  0.00  0.00    +0.000 A 
ATOM     22  C   UNL     1      48.029   6.144  14.079  0.00  0.00    +0.000 A 
ATOM     23  S   UNL     1      49.131   7.054  15.010  0.00  0.00    +0.000 S 
ATOM     24  C   UNL     1      48.794   6.137  16.405  0.00  0.00    +0.000 A 
ATOM     25  N   UNL     1      49.405   6.416  17.588  0.00  0.00    +0.000 NA
ATOM     26  C   UNL     1      49.014   5.680  18.575  0.00  0.00    +0.000 A 
ATOM     27  N   UNL     1      48.075   4.686  18.485  0.00  0.00    +0.000 N 
ATOM     28  C   UNL     1      47.491   4.319  17.295  0.00  0.00    +0.000 A 
ATOM     29  O   UNL     1      46.752   3.341  17.228  0.00  0.00    +0.000 OA
ATOM     30  C   UNL     1      47.866   5.141  16.160  0.00  0.00    +0.000 A 
ATOM     31  H   UNL     1      47.829   4.132  19.292  0.00  0.00    +0.000 HD
ENDBRANCH  18  21
ENDBRANCH   1  19
TORSDOF 6
ENDMDL
MODEL 7
REMARK VINA RESULT:    -7.176      2.306      3.319
REMARK INTER + INTRA:         -10.401
REMARK INTER:                  -9.404
REMARK INTRA:                  -0.997
REMARK UNBOUND:                -0.708
REMARK  Name = 
REMARK  6 active torsions:
REMARK  status: ('A' for Active; 'I' for Inactive)
REMARK    1  A    between atoms: C_2  and  C_18
REMARK    2  A    between atoms: N_3  and  C_4
REMARK    3  A    between atoms: C_4  and  C_5
REMARK    4  A    between atoms: C_8  and  C_9
REMARK    5  A    between atoms: C_9  and  N_10
REMARK    6  A    between atoms: N_10  and  C_11
REMARK                            x       y       z     vdW  Elec       q    Type
REMARK                         _______ _______ _______ _____ _____    ______ ____
ROOT
ATOM      1  C   UNL     1      48.077   7.284  13.748  0.00  0.00    +0.000 C 
ENDROOT
BRANCH   1   2
ATOM      2  C   UNL     1      47.136   6.379  12.997  0.00  0.00    +0.000 A 
ATOM      3  C   UNL     1      46.647   6.760  11.742  0.00  0.00    +0.000 A 
ATOM      4  C   UNL     1      45.770   5.930  11.043  0.00  0.00    +0.000 A 
ATOM      5  C   UNL     1      45.357   4.706  11.585  0.00  0.00    +0.000 A 
ATOM      6  C   UNL     1      45.829   4.335  12.852  0.00  0.00    +0.000 A 
ATOM      7  C   UNL     1      46.705   5.167  13.553  0.00  0.00    +0.000 A 
BRANCH   5   8
ATOM      8  C   UNL     1      44.368   3.832  10.848  0.00  0.00    +0.000 C 
BRANCH   8   9
ATOM      9  N   UNL     1      44.988   2.588  10.391  0.00  0.00    +0.000 NA
ATOM     10  H   UNL     1      44.643   1.824  10.972  0.00  0.00    +0.000 HD
BRANCH   9  11
ATOM     11  C   UNL     1      44.714   2.308   8.974  0.00  0.00    +0.000 C 
ATOM     12  C   UNL     1      45.905   1.592   8.340  0.00  0.00    +0.000 C 
ATOM     13  C   UNL     1      46.738   2.730   7.786  0.00  0.00    +0.000 C 
ATOM     14  N   UNL     1      45.742   3.624   7.186  0.00  0.00    +0.000 NA
ATOM     15  C   UNL     1      44.585   3.580   8.100  0.00  0.00    +0.000 C 
ATOM     16  H   UNL     1      45.460   3.244   6.283  0.00  0.00    +0.000 HD
ENDBRANCH   9  11
ENDBRANCH   8   9
ENDBRANCH   5   8
ENDBRANCH   1   2
BRANCH   1  19
ATOM     17  O   UNL     1      50.030   6.339  15.538  0.00  0.00    +0.000 OA
ATOM     18  C   UNL     1      48.948   6.712  15.984  0.00  0.00    +0.000 C 
ATOM     19  N   UNL     1      47.924   7.133  15.174  0.00  0.00    +0.000 N 
ATOM     20  H   UNL     1      47.134   7.614  15.589  0.00  0.00    +0.000 HD
BRANCH  18  21
ATOM     21  C   UNL     1      48.654   6.662  17.420  0.00  0.00    +0.000 A 
ATOM     22  C   UNL     1      48.860   5.481  18.125  0.00  0.00    +0.000 A 
ATOM     23  S   UNL     1      48.411   5.580  19.767  0.00  0.00    +0.000 S 
ATOM     24  C   UNL     1      47.981   7.219  19.607  0.00  0.00    +0.000 A 
ATOM     25  N   UNL     1      47.524   7.928  20.674  0.00  0.00    +0.000 NA
ATOM     26  C   UNL     1      47.289   9.174  20.425  0.00  0.00    +0.000 A 
ATOM     27  N   UNL     1      47.463   9.773  19.205  0.00  0.00    +0.000 N 
ATOM     28  C   UNL     1      47.848   9.078  18.082  0.00  0.00    +0.000 A 
ATOM     29  O   UNL     1      47.869   9.618  16.980  0.00  0.00    +0.000 OA
ATOM     30  C   UNL     1      48.163   7.681  18.316  0.00  0.00    +0.000 A 
ATOM     31  H   UNL     1      47.242  10.749  19.071  0.00  0.00    +0.000 HD
ENDBRANCH  18  21
ENDBRANCH   1  19
TORSDOF 6
ENDMDL
MODEL 8
REMARK VINA RESULT:    -6.925      3.232      8.253
REMARK INTER + INTRA:         -10.061
REMARK INTER:                  -9.004
REMARK INTRA:                  -1.058
REMARK UNBOUND:                -0.708
REMARK  Name = 
REMARK  6 active torsions:
REMARK  status: ('A' for Active; 'I' for Inactive)
REMARK    1  A    between atoms: C_2  and  C_18
REMARK    2  A    between atoms: N_3  and  C_4
REMARK    3  A    between atoms: C_4  and  C_5
REMARK    4  A    between atoms: C_8  and  C_9
REMARK    5  A    between atoms: C_9  and  N_10
REMARK    6  A    between atoms: N_10  and  C_11
REMARK                            x       y       z     vdW  Elec       q    Type
REMARK                         _______ _______ _______ _____ _____    ______ ____
ROOT
ATOM      1  C   UNL     1      48.331   7.886  12.248  0.00  0.00    +0.000 C 
ENDROOT
BRANCH   1   2
ATOM      2  C   UNL     1      48.950   7.509  13.568  0.00  0.00    +0.000 A 
ATOM      3  C   UNL     1      50.245   7.935  13.883  0.00  0.00    +0.000 A 
ATOM      4  C   UNL     1      50.828   7.584  15.102  0.00  0.00    +0.000 A 
ATOM      5  C   UNL     1      50.133   6.795  16.028  0.00  0.00    +0.000 A 
ATOM      6  C   UNL     1      48.845   6.349  15.701  0.00  0.00    +0.000 A 
ATOM      7  C   UNL     1      48.262   6.698  14.480  0.00  0.00    +0.000 A 
BRANCH   5   8
ATOM      8  C   UNL     1      50.786   6.375  17.324  0.00  0.00    +0.000 C 
BRANCH   8   9
ATOM      9  N   UNL     1      49.790   6.106  18.363  0.00  0.00    +0.000 NA
ATOM     10  H   UNL     1      48.866   6.104  17.931  0.00  0.00    +0.000 HD
BRANCH   9  11
ATOM     11  C   UNL     1      50.027   4.832  19.057  0.00  0.00    +0.000 C 
ATOM     12  C   UNL     1      50.103   3.689  18.047  0.00  0.00    +0.000 C 
ATOM     13  C   UNL     1      48.672   3.197  17.974  0.00  0.00    +0.000 C 
ATOM     14  N   UNL     1      48.237   3.195  19.375  0.00  0.00    +0.000 NA
ATOM     15  C   UNL     1      48.857   4.393  19.972  0.00  0.00    +0.000 C 
ATOM     16  H   UNL     1      48.615   2.367  19.835  0.00  0.00    +0.000 HD
ENDBRANCH   9  11
ENDBRANCH   8   9
ENDBRANCH   5   8
ENDBRANCH   1   2
BRANCH   1  19
ATOM     17  O   UNL     1      45.581   7.910  11.654  0.00  0.00    +0.000 OA
ATOM     18  C   UNL     1      46.238   6.906  11.386  0.00  0.00    +0.000 C 
ATOM     19  N   UNL     1      47.570   6.794  11.695  0.00  0.00    +0.000 N 
ATOM     20  H   UNL     1      48.109   6.043  11.280  0.00  0.00    +0.000 HD
BRANCH  18  21
ATOM     21  C   UNL     1      45.616   5.726  10.777  0.00  0.00    +0.000 A 
ATOM     22  C   UNL     1      45.777   5.487   9.417  0.00  0.00    +0.000 A 
ATOM     23  S   UNL     1      44.940   4.108   8.863  0.00  0.00    +0.000 S 
ATOM     24  C   UNL     1      44.380   3.751  10.431  0.00  0.00    +0.000 A 
ATOM     25  N   UNL     1      43.605   2.658  10.663  0.00  0.00    +0.000 NA
ATOM     26  C   UNL     1      43.299   2.476  11.905  0.00  0.00    +0.000 A 
ATOM     27  N   UNL     1      43.693   3.290  12.934  0.00  0.00    +0.000 N 
ATOM     28  C   UNL     1      44.411   4.447  12.735  0.00  0.00    +0.000 A 
ATOM     29  O   UNL     1      44.635   5.219  13.663  0.00  0.00    +0.000 OA
ATOM     30  C   UNL     1      44.813   4.678  11.361  0.00  0.00    +0.000 A 
ATOM     31  H   UNL     1      43.403   3.103  13.882  0.00  0.00    +0.000 HD
ENDBRANCH  18  21
ENDBRANCH   1  19
TORSDOF 6
ENDMDL
MODEL 9
REMARK VINA RESULT:    -6.763      2.083      3.666
REMARK INTER + INTRA:          -9.842
REMARK INTER:                  -8.771
REMARK INTRA:                  -1.071
REMARK UNBOUND:                -0.708
REMARK  Name = 
REMARK  6 active torsions:
REMARK  status: ('A' for Active; 'I' for Inactive)
REMARK    1  A    between atoms: C_2  and  C_18
REMARK    2  A    between atoms: N_3  and  C_4
REMARK    3  A    between atoms: C_4  and  C_5
REMARK    4  A    between atoms: C_8  and  C_9
REMARK    5  A    between atoms: C_9  and  N_10
REMARK    6  A    between atoms: N_10  and  C_11
REMARK                            x       y       z     vdW  Elec       q    Type
REMARK                         _______ _______ _______ _____ _____    ______ ____
ROOT
ATOM      1  C   UNL     1      47.116   4.258  15.092  0.00  0.00    +0.000 C 
ENDROOT
BRANCH   1   2
ATOM      2  C   UNL     1      46.427   4.443  13.766  0.00  0.00    +0.000 A 
ATOM      3  C   UNL     1      45.830   3.350  13.126  0.00  0.00    +0.000 A 
ATOM      4  C   UNL     1      45.196   3.513  11.894  0.00  0.00    +0.000 A 
ATOM      5  C   UNL     1      45.149   4.767  11.272  0.00  0.00    +0.000 A 
ATOM      6  C   UNL     1      45.767   5.856  11.902  0.00  0.00    +0.000 A 
ATOM      7  C   UNL     1      46.405   5.694  13.135  0.00  0.00    +0.000 A 
BRANCH   5   8
ATOM      8  C   UNL     1      44.506   4.930   9.914  0.00  0.00    +0.000 C 
BRANCH   8   9
ATOM      9  N   UNL     1      45.495   4.855   8.839  0.00  0.00    +0.000 NA
ATOM     10  H   UNL     1      46.400   4.622   9.249  0.00  0.00    +0.000 HD
BRANCH   9  11
ATOM     11  C   UNL     1      45.138   3.868   7.810  0.00  0.00    +0.000 C 
ATOM     12  C   UNL     1      44.664   2.573   8.465  0.00  0.00    +0.000 C 
ATOM     13  C   UNL     1      45.935   1.756   8.577  0.00  0.00    +0.000 C 
ATOM     14  N   UNL     1      46.600   1.977   7.288  0.00  0.00    +0.000 NA
ATOM     15  C   UNL     1      46.341   3.391   6.959  0.00  0.00    +0.000 C 
ATOM     16  H   UNL     1      46.153   1.390   6.584  0.00  0.00    +0.000 HD
ENDBRANCH   9  11
ENDBRANCH   8   9
ENDBRANCH   5   8
ENDBRANCH   1   2
BRANCH   1  19
ATOM     17  O   UNL     1      49.260   4.522  16.894  0.00  0.00    +0.000 OA
ATOM     18  C   UNL     1      48.766   5.536  16.408  0.00  0.00    +0.000 C 
ATOM     19  N   UNL     1      47.683   5.496  15.566  0.00  0.00    +0.000 N 
ATOM     20  H   UNL     1      47.439   6.326  15.038  0.00  0.00    +0.000 HD
BRANCH  18  21
ATOM     21  C   UNL     1      49.262   6.871  16.756  0.00  0.00    +0.000 A 
ATOM     22  C   UNL     1      49.264   7.280  18.086  0.00  0.00    +0.000 A 
ATOM     23  S   UNL     1      49.815   8.878  18.306  0.00  0.00    +0.000 S 
ATOM     24  C   UNL     1      50.124   9.060  16.642  0.00  0.00    +0.000 A 
ATOM     25  N   UNL     1      50.638  10.219  16.150  0.00  0.00    +0.000 NA
ATOM     26  C   UNL     1      50.876  10.200  14.881  0.00  0.00    +0.000 A 
ATOM     27  N   UNL     1      50.639   9.130  14.058  0.00  0.00    +0.000 N 
ATOM     28  C   UNL     1      50.049   7.968  14.498  0.00  0.00    +0.000 A 
ATOM     29  O   UNL     1      49.734   7.081  13.710  0.00  0.00    +0.000 OA
ATOM     30  C   UNL     1      49.797   7.923  15.926  0.00  0.00    +0.000 A 
ATOM     31  H   UNL     1      50.829   9.187  13.068  0.00  0.00    +0.000 HD
ENDBRANCH  18  21
ENDBRANCH   1  19
TORSDOF 6
ENDMDL
