MODEL 1
REMARK VINA RESULT:    -8.319      0.000      0.000
REMARK INTER + INTRA:         -12.410
REMARK INTER:                 -11.237
REMARK INTRA:                  -1.173
REMARK UNBOUND:                -1.173
REMARK  Name = 
REMARK  6 active torsions:
REMARK  status: ('A' for Active; 'I' for Inactive)
REMARK    1  A    between atoms: C_2  and  C_4
REMARK    2  A    between atoms: C_8  and  N_9
REMARK    3  A    between atoms: N_9  and  C_10
REMARK    4  A    between atoms: C_10  and  C_11
REMARK    5  A    between atoms: C_11  and  C_12
REMARK    6  A    between atoms: C_16  and  C_17
REMARK                            x       y       z     vdW  Elec       q    Type
REMARK                         _______ _______ _______ _____ _____    ______ ____
ROOT
ATOM      1  C   UNL     1      42.907   6.953  11.585  0.00  0.00    +0.000 C 
ENDROOT
BRANCH   1   2
ATOM      2  C   UNL     1      43.330   5.513  11.379  0.00  0.00    +0.000 A 
ATOM      3  C   UNL     1      42.914   4.540  12.279  0.00  0.00    +0.000 A 
ATOM      4  N   UNL     1      43.225   3.230  12.174  0.00  0.00    +0.000 NA
ATOM      5  C   UNL     1      43.990   2.864  11.117  0.00  0.00    +0.000 A 
ATOM      6  C   UNL     1      44.490   3.733  10.146  0.00  0.00    +0.000 A 
ATOM      7  C   UNL     1      44.138   5.079  10.313  0.00  0.00    +0.000 A 
BRANCH   6   8
ATOM      8  C   UNL     1      45.329   3.274   9.017  0.00  0.00    +0.000 A 
ATOM      9  C   UNL     1      45.879   4.188   8.099  0.00  0.00    +0.000 A 
ATOM     10  C   UNL     1      46.696   3.762   7.046  0.00  0.00    +0.000 A 
ATOM     11  C   UNL     1      46.976   2.408   6.872  0.00  0.00    +0.000 A 
ATOM     12 CL   UNL     1      48.004   1.956   5.562  0.00  0.00    +0.000 Cl
ATOM     13  C   UNL     1      46.425   1.476   7.753  0.00  0.00    +0.000 A 
ATOM     14 CL   UNL     1      46.704  -0.223   7.598  0.00  0.00    +0.000 Cl
ATOM     15  C   UNL     1      45.615   1.909   8.814  0.00  0.00    +0.000 A 
ENDBRANCH   6   8
ENDBRANCH   1   2
BRANCH   1  16
ATOM     16  C   UNL     1      44.010   7.974  11.284  0.00  0.00    +0.000 C 
BRANCH  16  17
ATOM     17  N   UNL     1      44.813   8.307  12.460  0.00  0.00    +0.000 N 
ATOM     18  H   UNL     1      44.271   8.280  13.323  0.00  0.00    +0.000 HD
BRANCH  17  23
ATOM     19  C   UNL     1      47.161   5.646  13.576  0.00  0.00    +0.000 A 
ATOM     20  C   UNL     1      48.376   6.083  13.041  0.00  0.00    +0.000 A 
ATOM     21  C   UNL     1      48.420   7.277  12.331  0.00  0.00    +0.000 A 
ATOM     22  C   UNL     1      47.250   8.017  12.136  0.00  0.00    +0.000 A 
ATOM     23  C   UNL     1      46.007   7.567  12.606  0.00  0.00    +0.000 A 
ATOM     24  C   UNL     1      45.989   6.387  13.362  0.00  0.00    +0.000 A 
BRANCH  19  26
ATOM     25  N   UNL     1      46.723   4.489  15.673  0.00  0.00    +0.000 N 
ATOM     26  C   UNL     1      47.067   4.386  14.355  0.00  0.00    +0.000 C 
ATOM     27  O   UNL     1      47.258   3.293  13.836  0.00  0.00    +0.000 OA
ATOM     28  H   UNL     1      46.562   3.620  16.163  0.00  0.00    +0.000 HD
ATOM     29  H   UNL     1      46.318   5.331  16.063  0.00  0.00    +0.000 HD
ENDBRANCH  19  26
ENDBRANCH  17  23
ENDBRANCH  16  17
ENDBRANCH   1  16
TORSDOF 6
ENDMDL
MODEL 2
REMARK VINA RESULT:    -8.183      3.991      6.843
REMARK INTER + INTRA:         -12.226
REMARK INTER:                 -11.490
REMARK INTRA:                  -0.736
REMARK UNBOUND:                -1.173
REMARK  Name = 
REMARK  6 active torsions:
REMARK  status: ('A' for Active; 'I' for Inactive)
REMARK    1  A    between atoms: C_2  and  C_4
REMARK    2  A    between atoms: C_8  and  N_9
REMARK    3  A    between atoms: N_9  and  C_10
REMARK    4  A    between atoms: C_10  and  C_11
REMARK    5  A    between atoms: C_11  and  C_12
REMARK    6  A    between atoms: C_16  and  C_17
REMARK                            x       y       z     vdW  Elec       q    Type
REMARK                         _______ _______ _______ _____ _____    ______ ____
ROOT
ATOM      1  C   UNL     1      44.223   3.665  12.551  0.00  0.00    +0.000 C 
ENDROOT
BRANCH   1   2
ATOM      2  C   UNL     1      44.740   5.067  12.306  0.00  0.00    +0.000 A 
ATOM      3  C   UNL     1      43.886   6.034  11.792  0.00  0.00    +0.000 A 
ATOM      4  N   UNL     1      44.247   7.313  11.553  0.00  0.00    +0.000 NA
ATOM      5  C   UNL     1      45.527   7.653  11.841  0.00  0.00    +0.000 A 
ATOM      6  C   UNL     1      46.496   6.785  12.346  0.00  0.00    +0.000 A 
ATOM      7  C   UNL     1      46.062   5.470  12.568  0.00  0.00    +0.000 A 
BRANCH   6   8
ATOM      8  C   UNL     1      47.883   7.213  12.633  0.00  0.00    +0.000 A 
ATOM      9  C   UNL     1      48.649   7.896  11.671  0.00  0.00    +0.000 A 
ATOM     10  C   UNL     1      49.951   8.328  11.947  0.00  0.00    +0.000 A 
ATOM     11  C   UNL     1      50.530   8.076  13.190  0.00  0.00    +0.000 A 
ATOM     12 CL   UNL     1      52.133   8.652  13.466  0.00  0.00    +0.000 Cl
ATOM     13  C   UNL     1      49.803   7.379  14.155  0.00  0.00    +0.000 A 
ATOM     14 CL   UNL     1      50.452   7.006  15.713  0.00  0.00    +0.000 Cl
ATOM     15  C   UNL     1      48.494   6.958  13.877  0.00  0.00    +0.000 A 
ENDBRANCH   6   8
ENDBRANCH   1   2
BRANCH   1  16
ATOM     16  C   UNL     1      43.373   3.106  11.405  0.00  0.00    +0.000 C 
BRANCH  16  17
ATOM     17  N   UNL     1      44.087   2.117  10.597  0.00  0.00    +0.000 N 
ATOM     18  H   UNL     1      43.486   1.351  10.296  0.00  0.00    +0.000 HD
BRANCH  17  23
ATOM     19  C   UNL     1      46.452   2.285   7.730  0.00  0.00    +0.000 A 
ATOM     20  C   UNL     1      46.370   3.631   7.360  0.00  0.00    +0.000 A 
ATOM     21  C   UNL     1      45.547   4.489   8.080  0.00  0.00    +0.000 A 
ATOM     22  C   UNL     1      44.792   3.999   9.149  0.00  0.00    +0.000 A 
ATOM     23  C   UNL     1      44.807   2.639   9.500  0.00  0.00    +0.000 A 
ATOM     24  C   UNL     1      45.679   1.798   8.795  0.00  0.00    +0.000 A 
BRANCH  19  26
ATOM     25  N   UNL     1      48.440   1.847   6.394  0.00  0.00    +0.000 N 
ATOM     26  C   UNL     1      47.328   1.334   7.002  0.00  0.00    +0.000 C 
ATOM     27  O   UNL     1      47.088   0.133   6.968  0.00  0.00    +0.000 OA
ATOM     28  H   UNL     1      49.080   1.176   5.992  0.00  0.00    +0.000 HD
ATOM     29  H   UNL     1      48.799   2.768   6.610  0.00  0.00    +0.000 HD
ENDBRANCH  19  26
ENDBRANCH  17  23
ENDBRANCH  16  17
ENDBRANCH   1  16
TORSDOF 6
ENDMDL
MODEL 3
REMARK VINA RESULT:    -7.788      1.614      1.992
REMARK INTER + INTRA:         -11.692
REMARK INTER:                 -11.152
REMARK INTRA:                  -0.540
REMARK UNBOUND:                -1.173
REMARK  Name = 
REMARK  6 active torsions:
REMARK  status: ('A' for Active; 'I' for Inactive)
REMARK    1  A    between atoms: C_2  and  C_4
REMARK    2  A    between atoms: C_8  and  N_9
REMARK    3  A    between atoms: N_9  and  C_10
REMARK    4  A    between atoms: C_10  and  C_11
REMARK    5  A    between atoms: C_11  and  C_12
REMARK    6  A    between atoms: C_16  and  C_17
REMARK                            x       y       z     vdW  Elec       q    Type
REMARK                         _______ _______ _______ _____ _____    ______ ____
ROOT
ATOM      1  C   UNL     1      44.521   6.598  12.792  0.00  0.00    +0.000 C 
ENDROOT
BRANCH   1   2
ATOM      2  C   UNL     1      44.301   5.283  12.074  0.00  0.00    +0.000 A 
ATOM      3  C   UNL     1      43.368   4.380  12.567  0.00  0.00    +0.000 A 
ATOM      4  N   UNL     1      43.089   3.190  11.992  0.00  0.00    +0.000 NA
ATOM      5  C   UNL     1      43.773   2.878  10.864  0.00  0.00    +0.000 A 
ATOM      6  C   UNL     1      44.746   3.680  10.267  0.00  0.00    +0.000 A 
ATOM      7  C   UNL     1      44.995   4.899  10.913  0.00  0.00    +0.000 A 
BRANCH   6   8
ATOM      8  C   UNL     1      45.467   3.281   9.038  0.00  0.00    +0.000 A 
ATOM      9  C   UNL     1      45.860   4.235   8.081  0.00  0.00    +0.000 A 
ATOM     10  C   UNL     1      46.566   3.867   6.930  0.00  0.00    +0.000 A 
ATOM     11  C   UNL     1      46.888   2.531   6.696  0.00  0.00    +0.000 A 
ATOM     12 CL   UNL     1      47.774   2.152   5.265  0.00  0.00    +0.000 Cl
ATOM     13  C   UNL     1      46.490   1.559   7.616  0.00  0.00    +0.000 A 
ATOM     14 CL   UNL     1      46.829  -0.121   7.393  0.00  0.00    +0.000 Cl
ATOM     15  C   UNL     1      45.792   1.935   8.773  0.00  0.00    +0.000 A 
ENDBRANCH   6   8
ENDBRANCH   1   2
BRANCH   1  16
ATOM     16  C   UNL     1      45.921   7.190  12.590  0.00  0.00    +0.000 C 
BRANCH  16  17
ATOM     17  N   UNL     1      46.980   6.184  12.664  0.00  0.00    +0.000 N 
ATOM     18  H   UNL     1      47.699   6.321  11.955  0.00  0.00    +0.000 HD
BRANCH  17  23
ATOM     19  C   UNL     1      47.823   4.665  15.953  0.00  0.00    +0.000 A 
ATOM     20  C   UNL     1      48.614   5.656  16.540  0.00  0.00    +0.000 A 
ATOM     21  C   UNL     1      48.848   6.841  15.852  0.00  0.00    +0.000 A 
ATOM     22  C   UNL     1      48.311   7.024  14.575  0.00  0.00    +0.000 A 
ATOM     23  C   UNL     1      47.568   6.019  13.937  0.00  0.00    +0.000 A 
ATOM     24  C   UNL     1      47.301   4.850  14.664  0.00  0.00    +0.000 A 
BRANCH  19  26
ATOM     25  N   UNL     1      48.456   2.388  16.541  0.00  0.00    +0.000 N 
ATOM     26  C   UNL     1      47.533   3.389  16.655  0.00  0.00    +0.000 C 
ATOM     27  O   UNL     1      46.525   3.243  17.335  0.00  0.00    +0.000 OA
ATOM     28  H   UNL     1      48.297   1.566  17.106  0.00  0.00    +0.000 HD
ATOM     29  H   UNL     1      49.398   2.555  16.208  0.00  0.00    +0.000 HD
ENDBRANCH  19  26
ENDBRANCH  17  23
ENDBRANCH  16  17
ENDBRANCH   1  16
TORSDOF 6
ENDMDL
MODEL 4
REMARK VINA RESULT:    -7.394      3.968      7.179
REMARK INTER + INTRA:         -11.161
REMARK INTER:                 -10.371
REMARK INTRA:                  -0.790
REMARK UNBOUND:                -1.173
REMARK  Name = 
REMARK  6 active torsions:
REMARK  status: ('A' for Active; 'I' for Inactive)
REMARK    1  A    between atoms: C_2  and  C_4
REMARK    2  A    between atoms: C_8  and  N_9
REMARK    3  A    between atoms: N_9  and  C_10
REMARK    4  A    between atoms: C_10  and  C_11
REMARK    5  A    between atoms: C_11  and  C_12
REMARK    6  A    between atoms: C_16  and  C_17
REMARK                            x       y       z     vdW  Elec       q    Type
REMARK                         _______ _______ _______ _____ _____    ______ ____
ROOT
ATOM      1  C   UNL     1      45.659   5.262  11.805  0.00  0.00    +0.000 C 
ENDROOT
BRANCH   1   2
ATOM      2  C   UNL     1      46.259   6.619  12.110  0.00  0.00    +0.000 A 
ATOM      3  C   UNL     1      45.532   7.539  12.854  0.00  0.00    +0.000 A 
ATOM      4  N   UNL     1      45.984   8.767  13.190  0.00  0.00    +0.000 NA
ATOM      5  C   UNL     1      47.227   9.100  12.766  0.00  0.00    +0.000 A 
ATOM      6  C   UNL     1      48.062   8.284  12.002  0.00  0.00    +0.000 A 
ATOM      7  C   UNL     1      47.535   7.026  11.680  0.00  0.00    +0.000 A 
BRANCH   6   8
ATOM      8  C   UNL     1      49.409   8.707  11.560  0.00  0.00    +0.000 A 
ATOM      9  C   UNL     1      49.764  10.067  11.503  0.00  0.00    +0.000 A 
ATOM     10  C   UNL     1      51.046  10.472  11.113  0.00  0.00    +0.000 A 
ATOM     11  C   UNL     1      52.006   9.527  10.755  0.00  0.00    +0.000 A 
ATOM     12 CL   UNL     1      53.571  10.097  10.301  0.00  0.00    +0.000 Cl
ATOM     13  C   UNL     1      51.676   8.172  10.780  0.00  0.00    +0.000 A 
ATOM     14 CL   UNL     1      52.799   6.937  10.333  0.00  0.00    +0.000 Cl
ATOM     15  C   UNL     1      50.392   7.771  11.182  0.00  0.00    +0.000 A 
ENDBRANCH   6   8
ENDBRANCH   1   2
BRANCH   1  16
ATOM     16  C   UNL     1      44.407   5.320  10.924  0.00  0.00    +0.000 C 
BRANCH  16  17
ATOM     17  N   UNL     1      44.708   5.196   9.498  0.00  0.00    +0.000 N 
ATOM     18  H   UNL     1      45.370   5.901   9.176  0.00  0.00    +0.000 HD
BRANCH  17  23
ATOM     19  C   UNL     1      46.473   2.544   7.578  0.00  0.00    +0.000 A 
ATOM     20  C   UNL     1      45.898   1.377   8.092  0.00  0.00    +0.000 A 
ATOM     21  C   UNL     1      44.905   1.473   9.059  0.00  0.00    +0.000 A 
ATOM     22  C   UNL     1      44.505   2.728   9.527  0.00  0.00    +0.000 A 
ATOM     23  C   UNL     1      45.112   3.911   9.075  0.00  0.00    +0.000 A 
ATOM     24  C   UNL     1      46.077   3.798   8.065  0.00  0.00    +0.000 A 
BRANCH  19  26
ATOM     25  N   UNL     1      47.374   3.311   5.450  0.00  0.00    +0.000 N 
ATOM     26  C   UNL     1      47.526   2.492   6.533  0.00  0.00    +0.000 C 
ATOM     27  O   UNL     1      48.510   1.770   6.646  0.00  0.00    +0.000 OA
ATOM     28  H   UNL     1      48.147   3.342   4.800  0.00  0.00    +0.000 HD
ATOM     29  H   UNL     1      46.724   4.087   5.444  0.00  0.00    +0.000 HD
ENDBRANCH  19  26
ENDBRANCH  17  23
ENDBRANCH  16  17
ENDBRANCH   1  16
TORSDOF 6
ENDMDL
MODEL 5
REMARK VINA RESULT:    -7.250      1.958      2.110
REMARK INTER + INTRA:         -10.967
REMARK INTER:                  -9.974
REMARK INTRA:                  -0.992
REMARK UNBOUND:                -1.173
REMARK  Name = 
REMARK  6 active torsions:
REMARK  status: ('A' for Active; 'I' for Inactive)
REMARK    1  A    between atoms: C_2  and  C_4
REMARK    2  A    between atoms: C_8  and  N_9
REMARK    3  A    between atoms: N_9  and  C_10
REMARK    4  A    between atoms: C_10  and  C_11
REMARK    5  A    between atoms: C_11  and  C_12
REMARK    6  A    between atoms: C_16  and  C_17
REMARK                            x       y       z     vdW  Elec       q    Type
REMARK                         _______ _______ _______ _____ _____    ______ ____
ROOT
ATOM      1  C   UNL     1      44.566   6.784  12.704  0.00  0.00    +0.000 C 
ENDROOT
BRANCH   1   2
ATOM      2  C   UNL     1      44.353   5.439  12.043  0.00  0.00    +0.000 A 
ATOM      3  C   UNL     1      43.435   4.546  12.582  0.00  0.00    +0.000 A 
ATOM      4  N   UNL     1      43.164   3.331  12.059  0.00  0.00    +0.000 NA
ATOM      5  C   UNL     1      43.838   2.982  10.937  0.00  0.00    +0.000 A 
ATOM      6  C   UNL     1      44.796   3.769  10.296  0.00  0.00    +0.000 A 
ATOM      7  C   UNL     1      45.038   5.016  10.890  0.00  0.00    +0.000 A 
BRANCH   6   8
ATOM      8  C   UNL     1      45.507   3.329   9.076  0.00  0.00    +0.000 A 
ATOM      9  C   UNL     1      45.928   4.254   8.103  0.00  0.00    +0.000 A 
ATOM     10  C   UNL     1      46.626   3.847   6.961  0.00  0.00    +0.000 A 
ATOM     11  C   UNL     1      46.911   2.499   6.750  0.00  0.00    +0.000 A 
ATOM     12 CL   UNL     1      47.789   2.070   5.328  0.00  0.00    +0.000 Cl
ATOM     13  C   UNL     1      46.485   1.555   7.687  0.00  0.00    +0.000 A 
ATOM     14 CL   UNL     1      46.778  -0.137   7.494  0.00  0.00    +0.000 Cl
ATOM     15  C   UNL     1      45.795   1.971   8.836  0.00  0.00    +0.000 A 
ENDBRANCH   6   8
ENDBRANCH   1   2
BRANCH   1  16
ATOM     16  C   UNL     1      44.894   7.914  11.722  0.00  0.00    +0.000 C 
BRANCH  16  17
ATOM     17  N   UNL     1      45.852   8.878  12.263  0.00  0.00    +0.000 N 
ATOM     18  H   UNL     1      45.438   9.486  12.969  0.00  0.00    +0.000 HD
BRANCH  17  23
ATOM     19  C   UNL     1      48.662   8.077  14.564  0.00  0.00    +0.000 A 
ATOM     20  C   UNL     1      49.524   7.353  13.735  0.00  0.00    +0.000 A 
ATOM     21  C   UNL     1      49.182   7.153  12.403  0.00  0.00    +0.000 A 
ATOM     22  C   UNL     1      47.974   7.653  11.909  0.00  0.00    +0.000 A 
ATOM     23  C   UNL     1      47.062   8.326  12.737  0.00  0.00    +0.000 A 
ATOM     24  C   UNL     1      47.445   8.563  14.065  0.00  0.00    +0.000 A 
BRANCH  19  26
ATOM     25  N   UNL     1      48.357   7.560  16.924  0.00  0.00    +0.000 N 
ATOM     26  C   UNL     1      48.991   8.330  15.990  0.00  0.00    +0.000 C 
ATOM     27  O   UNL     1      49.819   9.170  16.320  0.00  0.00    +0.000 OA
ATOM     28  H   UNL     1      48.667   7.671  17.879  0.00  0.00    +0.000 HD
ATOM     29  H   UNL     1      47.872   6.705  16.684  0.00  0.00    +0.000 HD
ENDBRANCH  19  26
ENDBRANCH  17  23
ENDBRANCH  16  17
ENDBRANCH   1  16
TORSDOF 6
ENDMDL
MODEL 6
REMARK VINA RESULT:    -7.163      4.979      8.340
REMARK INTER + INTRA:         -10.848
REMARK INTER:                 -10.150
REMARK INTRA:                  -0.698
REMARK UNBOUND:                -1.173
REMARK  Name = 
REMARK  6 active torsions:
REMARK  status: ('A' for Active; 'I' for Inactive)
REMARK    1  A    between atoms: C_2  and  C_4
REMARK    2  A    between atoms: C_8  and  N_9
REMARK    3  A    between atoms: N_9  and  C_10
REMARK    4  A    between atoms: C_10  and  C_11
REMARK    5  A    between atoms: C_11  and  C_12
REMARK    6  A    between atoms: C_16  and  C_17
REMARK                            x       y       z     vdW  Elec       q    Type
REMARK                         _______ _______ _______ _____ _____    ______ ____
ROOT
ATOM      1  C   UNL     1      45.566   5.257  11.788  0.00  0.00    +0.000 C 
ENDROOT
BRANCH   1   2
ATOM      2  C   UNL     1      46.679   5.783  12.669  0.00  0.00    +0.000 A 
ATOM      3  C   UNL     1      47.576   6.714  12.161  0.00  0.00    +0.000 A 
ATOM      4  N   UNL     1      48.592   7.253  12.871  0.00  0.00    +0.000 NA
ATOM      5  C   UNL     1      48.723   6.848  14.157  0.00  0.00    +0.000 A 
ATOM      6  C   UNL     1      47.907   5.912  14.794  0.00  0.00    +0.000 A 
ATOM      7  C   UNL     1      46.876   5.385  14.004  0.00  0.00    +0.000 A 
BRANCH   6   8
ATOM      8  C   UNL     1      48.106   5.502  16.201  0.00  0.00    +0.000 A 
ATOM      9  C   UNL     1      47.745   4.217  16.645  0.00  0.00    +0.000 A 
ATOM     10  C   UNL     1      47.957   3.814  17.968  0.00  0.00    +0.000 A 
ATOM     11  C   UNL     1      48.523   4.692  18.891  0.00  0.00    +0.000 A 
ATOM     12 CL   UNL     1      48.770   4.124  20.501  0.00  0.00    +0.000 Cl
ATOM     13  C   UNL     1      48.869   5.982  18.486  0.00  0.00    +0.000 A 
ATOM     14 CL   UNL     1      49.556   7.140  19.570  0.00  0.00    +0.000 Cl
ATOM     15  C   UNL     1      48.664   6.377  17.155  0.00  0.00    +0.000 A 
ENDBRANCH   6   8
ENDBRANCH   1   2
BRANCH   1  16
ATOM     16  C   UNL     1      45.568   5.839  10.370  0.00  0.00    +0.000 C 
BRANCH  16  17
ATOM     17  N   UNL     1      44.662   5.134   9.464  0.00  0.00    +0.000 N 
ATOM     18  H   UNL     1      44.388   5.702   8.664  0.00  0.00    +0.000 HD
BRANCH  17  23
ATOM     19  C   UNL     1      46.515   2.545   7.540  0.00  0.00    +0.000 A 
ATOM     20  C   UNL     1      45.968   1.359   8.040  0.00  0.00    +0.000 A 
ATOM     21  C   UNL     1      44.965   1.421   9.000  0.00  0.00    +0.000 A 
ATOM     22  C   UNL     1      44.527   2.661   9.474  0.00  0.00    +0.000 A 
ATOM     23  C   UNL     1      45.105   3.863   9.036  0.00  0.00    +0.000 A 
ATOM     24  C   UNL     1      46.081   3.785   8.032  0.00  0.00    +0.000 A 
BRANCH  19  26
ATOM     25  N   UNL     1      47.293   3.123   5.306  0.00  0.00    +0.000 N 
ATOM     26  C   UNL     1      47.578   2.530   6.504  0.00  0.00    +0.000 C 
ATOM     27  O   UNL     1      48.678   2.036   6.718  0.00  0.00    +0.000 OA
ATOM     28  H   UNL     1      48.057   3.196   4.650  0.00  0.00    +0.000 HD
ATOM     29  H   UNL     1      46.507   3.750   5.185  0.00  0.00    +0.000 HD
ENDBRANCH  19  26
ENDBRANCH  17  23
ENDBRANCH  16  17
ENDBRANCH   1  16
TORSDOF 6
ENDMDL
MODEL 7
REMARK VINA RESULT:    -7.004      2.730      3.711
REMARK INTER + INTRA:         -10.634
REMARK INTER:                 -10.079
REMARK INTRA:                  -0.555
REMARK UNBOUND:                -1.173
REMARK  Name = 
REMARK  6 active torsions:
REMARK  status: ('A' for Active; 'I' for Inactive)
REMARK    1  A    between atoms: C_2  and  C_4
REMARK    2  A    between atoms: C_8  and  N_9
REMARK    3  A    between atoms: N_9  and  C_10
REMARK    4  A    between atoms: C_10  and  C_11
REMARK    5  A    between atoms: C_11  and  C_12
REMARK    6  A    between atoms: C_16  and  C_17
REMARK                            x       y       z     vdW  Elec       q    Type
REMARK                         _______ _______ _______ _____ _____    ______ ____
ROOT
ATOM      1  C   UNL     1      45.530   5.441  13.740  0.00  0.00    +0.000 C 
ENDROOT
BRANCH   1   2
ATOM      2  C   UNL     1      44.831   4.959  12.487  0.00  0.00    +0.000 A 
ATOM      3  C   UNL     1      43.445   5.007  12.412  0.00  0.00    +0.000 A 
ATOM      4  N   UNL     1      42.731   4.614  11.334  0.00  0.00    +0.000 NA
ATOM      5  C   UNL     1      43.431   4.150  10.271  0.00  0.00    +0.000 A 
ATOM      6  C   UNL     1      44.820   4.032  10.211  0.00  0.00    +0.000 A 
ATOM      7  C   UNL     1      45.504   4.450  11.362  0.00  0.00    +0.000 A 
BRANCH   6   8
ATOM      8  C   UNL     1      45.528   3.509   9.023  0.00  0.00    +0.000 A 
ATOM      9  C   UNL     1      45.995   4.371   8.013  0.00  0.00    +0.000 A 
ATOM     10  C   UNL     1      46.690   3.885   6.901  0.00  0.00    +0.000 A 
ATOM     11  C   UNL     1      46.926   2.518   6.758  0.00  0.00    +0.000 A 
ATOM     12 CL   UNL     1      47.804   1.990   5.369  0.00  0.00    +0.000 Cl
ATOM     13  C   UNL     1      46.455   1.636   7.732  0.00  0.00    +0.000 A 
ATOM     14 CL   UNL     1      46.687  -0.073   7.622  0.00  0.00    +0.000 Cl
ATOM     15  C   UNL     1      45.768   2.131   8.851  0.00  0.00    +0.000 A 
ENDBRANCH   6   8
ENDBRANCH   1   2
BRANCH   1  16
ATOM     16  C   UNL     1      47.056   5.305  13.693  0.00  0.00    +0.000 C 
BRANCH  16  17
ATOM     17  N   UNL     1      47.719   5.929  14.837  0.00  0.00    +0.000 N 
ATOM     18  H   UNL     1      47.270   6.799  15.122  0.00  0.00    +0.000 HD
BRANCH  17  23
ATOM     19  C   UNL     1      48.900   4.758  18.164  0.00  0.00    +0.000 A 
ATOM     20  C   UNL     1      48.450   3.434  18.186  0.00  0.00    +0.000 A 
ATOM     21  C   UNL     1      47.775   2.923  17.084  0.00  0.00    +0.000 A 
ATOM     22  C   UNL     1      47.531   3.738  15.975  0.00  0.00    +0.000 A 
ATOM     23  C   UNL     1      47.915   5.088  15.955  0.00  0.00    +0.000 A 
ATOM     24  C   UNL     1      48.637   5.574  17.054  0.00  0.00    +0.000 A 
BRANCH  19  26
ATOM     25  N   UNL     1      50.061   4.486  20.287  0.00  0.00    +0.000 N 
ATOM     26  C   UNL     1      49.638   5.344  19.311  0.00  0.00    +0.000 C 
ATOM     27  O   UNL     1      49.888   6.541  19.372  0.00  0.00    +0.000 OA
ATOM     28  H   UNL     1      50.650   4.881  21.006  0.00  0.00    +0.000 HD
ATOM     29  H   UNL     1      50.097   3.483  20.149  0.00  0.00    +0.000 HD
ENDBRANCH  19  26
ENDBRANCH  17  23
ENDBRANCH  16  17
ENDBRANCH   1  16
TORSDOF 6
ENDMDL
MODEL 8
REMARK VINA RESULT:    -6.755      4.585      7.136
REMARK INTER + INTRA:         -10.297
REMARK INTER:                  -8.458
REMARK INTRA:                  -1.839
REMARK UNBOUND:                -1.173
REMARK  Name = 
REMARK  6 active torsions:
REMARK  status: ('A' for Active; 'I' for Inactive)
REMARK    1  A    between atoms: C_2  and  C_4
REMARK    2  A    between atoms: C_8  and  N_9
REMARK    3  A    between atoms: N_9  and  C_10
REMARK    4  A    between atoms: C_10  and  C_11
REMARK    5  A    between atoms: C_11  and  C_12
REMARK    6  A    between atoms: C_16  and  C_17
REMARK                            x       y       z     vdW  Elec       q    Type
REMARK                         _______ _______ _______ _____ _____    ______ ____
ROOT
ATOM      1  C   UNL     1      51.023   7.662  16.812  0.00  0.00    +0.000 C 
ENDROOT
BRANCH   1   2
ATOM      2  C   UNL     1      50.409   7.604  15.429  0.00  0.00    +0.000 A 
ATOM      3  C   UNL     1      51.083   8.170  14.355  0.00  0.00    +0.000 A 
ATOM      4  N   UNL     1      50.626   8.157  13.083  0.00  0.00    +0.000 NA
ATOM      5  C   UNL     1      49.436   7.546  12.865  0.00  0.00    +0.000 A 
ATOM      6  C   UNL     1      48.646   6.950  13.848  0.00  0.00    +0.000 A 
ATOM      7  C   UNL     1      49.170   7.001  15.148  0.00  0.00    +0.000 A 
BRANCH   6   8
ATOM      8  C   UNL     1      47.349   6.304  13.550  0.00  0.00    +0.000 A 
ATOM      9  C   UNL     1      47.024   5.041  14.078  0.00  0.00    +0.000 A 
ATOM     10  C   UNL     1      45.787   4.438  13.822  0.00  0.00    +0.000 A 
ATOM     11  C   UNL     1      44.844   5.076  13.017  0.00  0.00    +0.000 A 
ATOM     12 CL   UNL     1      43.334   4.282  12.757  0.00  0.00    +0.000 Cl
ATOM     13  C   UNL     1      45.148   6.319  12.460  0.00  0.00    +0.000 A 
ATOM     14 CL   UNL     1      44.045   7.169  11.435  0.00  0.00    +0.000 Cl
ATOM     15  C   UNL     1      46.385   6.924  12.729  0.00  0.00    +0.000 A 
ENDBRANCH   6   8
ENDBRANCH   1   2
BRANCH   1  16
ATOM     16  C   UNL     1      50.000   7.844  17.939  0.00  0.00    +0.000 C 
BRANCH  16  17
ATOM     17  N   UNL     1      49.952   6.704  18.853  0.00  0.00    +0.000 N 
ATOM     18  H   UNL     1      49.646   6.966  19.790  0.00  0.00    +0.000 HD
BRANCH  17  23
ATOM     19  C   UNL     1      49.225   3.354  17.408  0.00  0.00    +0.000 A 
ATOM     20  C   UNL     1      47.829   3.359  17.342  0.00  0.00    +0.000 A 
ATOM     21  C   UNL     1      47.129   4.487  17.754  0.00  0.00    +0.000 A 
ATOM     22  C   UNL     1      47.821   5.595  18.252  0.00  0.00    +0.000 A 
ATOM     23  C   UNL     1      49.218   5.589  18.390  0.00  0.00    +0.000 A 
ATOM     24  C   UNL     1      49.911   4.464  17.924  0.00  0.00    +0.000 A 
BRANCH  19  26
ATOM     25  N   UNL     1      51.048   1.780  17.768  0.00  0.00    +0.000 N 
ATOM     26  C   UNL     1      50.017   2.179  16.965  0.00  0.00    +0.000 C 
ATOM     27  O   UNL     1      49.742   1.568  15.939  0.00  0.00    +0.000 OA
ATOM     28  H   UNL     1      51.510   0.920  17.508  0.00  0.00    +0.000 HD
ATOM     29  H   UNL     1      51.142   2.093  18.726  0.00  0.00    +0.000 HD
ENDBRANCH  19  26
ENDBRANCH  17  23
ENDBRANCH  16  17
ENDBRANCH   1  16
TORSDOF 6
ENDMDL
MODEL 9
REMARK VINA RESULT:    -6.640      2.461      4.521
REMARK INTER + INTRA:         -10.142
REMARK INTER:                  -9.058
REMARK INTRA:                  -1.085
REMARK UNBOUND:                -1.173
REMARK  Name = 
REMARK  6 active torsions:
REMARK  status: ('A' for Active; 'I' for Inactive)
REMARK    1  A    between atoms: C_2  and  C_4
REMARK    2  A    between atoms: C_8  and  N_9
REMARK    3  A    between atoms: N_9  and  C_10
REMARK    4  A    between atoms: C_10  and  C_11
REMARK    5  A    between atoms: C_11  and  C_12
REMARK    6  A    between atoms: C_16  and  C_17
REMARK                            x       y       z     vdW  Elec       q    Type
REMARK                         _______ _______ _______ _____ _____    ______ ____
ROOT
ATOM      1  C   UNL     1      48.796   8.559  13.005  0.00  0.00    +0.000 C 
ENDROOT
BRANCH   1   2
ATOM      2  C   UNL     1      47.424   8.225  12.458  0.00  0.00    +0.000 A 
ATOM      3  C   UNL     1      46.417   9.181  12.500  0.00  0.00    +0.000 A 
ATOM      4  N   UNL     1      45.167   8.985  12.026  0.00  0.00    +0.000 NA
ATOM      5  C   UNL     1      44.902   7.774  11.478  0.00  0.00    +0.000 A 
ATOM      6  C   UNL     1      45.809   6.718  11.383  0.00  0.00    +0.000 A 
ATOM      7  C   UNL     1      47.087   6.981  11.898  0.00  0.00    +0.000 A 
BRANCH   6   8
ATOM      8  C   UNL     1      45.458   5.413  10.781  0.00  0.00    +0.000 A 
ATOM      9  C   UNL     1      44.842   4.402  11.541  0.00  0.00    +0.000 A 
ATOM     10  C   UNL     1      44.482   3.176  10.971  0.00  0.00    +0.000 A 
ATOM     11  C   UNL     1      44.741   2.920   9.625  0.00  0.00    +0.000 A 
ATOM     12 CL   UNL     1      44.255   1.393   8.984  0.00  0.00    +0.000 Cl
ATOM     13  C   UNL     1      45.372   3.896   8.852  0.00  0.00    +0.000 A 
ATOM     14 CL   UNL     1      45.749   3.654   7.182  0.00  0.00    +0.000 Cl
ATOM     15  C   UNL     1      45.721   5.127   9.427  0.00  0.00    +0.000 A 
ENDBRANCH   6   8
ENDBRANCH   1   2
BRANCH   1  16
ATOM     16  C   UNL     1      49.301   7.573  14.064  0.00  0.00    +0.000 C 
BRANCH  16  17
ATOM     17  N   UNL     1      48.345   7.367  15.151  0.00  0.00    +0.000 N 
ATOM     18  H   UNL     1      47.464   7.856  14.995  0.00  0.00    +0.000 HD
BRANCH  17  23
ATOM     19  C   UNL     1      48.527   4.154  17.016  0.00  0.00    +0.000 A 
ATOM     20  C   UNL     1      47.769   3.302  16.208  0.00  0.00    +0.000 A 
ATOM     21  C   UNL     1      47.218   3.789  15.029  0.00  0.00    +0.000 A 
ATOM     22  C   UNL     1      47.404   5.128  14.672  0.00  0.00    +0.000 A 
ATOM     23  C   UNL     1      48.105   6.020  15.499  0.00  0.00    +0.000 A 
ATOM     24  C   UNL     1      48.696   5.500  16.658  0.00  0.00    +0.000 A 
BRANCH  19  26
ATOM     25  N   UNL     1      48.317   3.148  19.223  0.00  0.00    +0.000 N 
ATOM     26  C   UNL     1      49.149   3.675  18.276  0.00  0.00    +0.000 C 
ATOM     27  O   UNL     1      50.361   3.719  18.453  0.00  0.00    +0.000 OA
ATOM     28  H   UNL     1      48.763   2.733  20.029  0.00  0.00    +0.000 HD
ATOM     29  H   UNL     1      47.368   2.867  19.015  0.00  0.00    +0.000 HD
ENDBRANCH  19  26
ENDBRANCH  17  23
ENDBRANCH  16  17
ENDBRANCH   1  16
TORSDOF 6
ENDMDL
