MODEL 1
REMARK VINA RESULT:    -6.912      0.000      0.000
REMARK INTER + INTRA:         -11.907
REMARK INTER:                 -10.549
REMARK INTRA:                  -1.358
REMARK UNBOUND:                -1.358
REMARK  Name = 
REMARK  10 active torsions:
REMARK  status: ('A' for Active; 'I' for Inactive)
REMARK    1  A    between atoms: C_1  and  C_2
REMARK    2  A    between atoms: C_2  and  C_3
REMARK    3  A    between atoms: C_3  and  N_4
REMARK    4  A    between atoms: C_3  and  C_20
REMARK    5  A    between atoms: N_4  and  C_5
REMARK    6  A    between atoms: C_5  and  C_6
REMARK    7  A    between atoms: C_9  and  C_10
REMARK    8  A    between atoms: C_10  and  N_11
REMARK    9  A    between atoms: N_11  and  C_12
REMARK   10  A    between atoms: C_12  and  C_13
REMARK                            x       y       z     vdW  Elec       q    Type
REMARK                         _______ _______ _______ _____ _____    ______ ____
ROOT
ATOM      1  C   UNL     1      49.573   6.903  15.138  0.00  0.00    +0.000 C 
ENDROOT
BRANCH   1   2
ATOM      2  C   UNL     1      48.396   7.111  14.217  0.00  0.00    +0.000 A 
ATOM      3  C   UNL     1      47.662   8.299  14.260  0.00  0.00    +0.000 A 
ATOM      4  C   UNL     1      46.570   8.483  13.417  0.00  0.00    +0.000 A 
ATOM      5  C   UNL     1      46.214   7.493  12.490  0.00  0.00    +0.000 A 
ATOM      6  C   UNL     1      46.959   6.310  12.434  0.00  0.00    +0.000 A 
ATOM      7  C   UNL     1      48.039   6.116  13.293  0.00  0.00    +0.000 A 
BRANCH   5   8
ATOM      8  C   UNL     1      45.040   7.698  11.570  0.00  0.00    +0.000 C 
BRANCH   8   9
ATOM      9  N   UNL     1      44.822   6.513  10.744  0.00  0.00    +0.000 NA
ATOM     10  H   UNL     1      45.622   5.888  10.849  0.00  0.00    +0.000 HD
BRANCH   9  11
ATOM     11  C   UNL     1      43.600   5.815  11.153  0.00  0.00    +0.000 C 
BRANCH  11  12
ATOM     12  C   UNL     1      43.576   4.384  10.563  0.00  0.00    +0.000 C 
ATOM     13  C   UNL     1      44.946   3.725  10.581  0.00  0.00    +0.000 C 
ATOM     14  C   UNL     1      45.069   3.225  12.006  0.00  0.00    +0.000 C 
ATOM     15  C   UNL     1      43.633   2.960  12.446  0.00  0.00    +0.000 C 
ATOM     16  N   UNL     1      42.768   3.454  11.370  0.00  0.00    +0.000 NA
ATOM     17  H   UNL     1      41.972   3.969  11.755  0.00  0.00    +0.000 HD
ENDBRANCH  11  12
ENDBRANCH   9  11
ENDBRANCH   8   9
ENDBRANCH   5   8
ENDBRANCH   1   2
BRANCH   1  18
ATOM     18  N   UNL     1      49.136   6.518  16.479  0.00  0.00    +0.000 NA
ATOM     19  H   UNL     1      49.778   6.895  17.171  0.00  0.00    +0.000 HD
BRANCH  18  20
ATOM     20  C   UNL     1      48.960   5.082  16.702  0.00  0.00    +0.000 C 
BRANCH  20  21
ATOM     21  C   UNL     1      50.134   4.598  17.547  0.00  0.00    +0.000 A 
ATOM     22  C   UNL     1      50.861   5.412  18.405  0.00  0.00    +0.000 A 
ATOM     23  S   UNL     1      52.225   4.652  19.083  0.00  0.00    +0.000 S 
ATOM     24  C   UNL     1      51.877   3.195  18.274  0.00  0.00    +0.000 A 
ATOM     25  N   UNL     1      52.710   2.126  18.397  0.00  0.00    +0.000 NA
ATOM     26  C   UNL     1      52.344   1.100  17.708  0.00  0.00    +0.000 A 
ATOM     27  N   UNL     1      51.216   1.034  16.929  0.00  0.00    +0.000 N 
ATOM     28  C   UNL     1      50.309   2.074  16.822  0.00  0.00    +0.000 A 
ATOM     29  O   UNL     1      49.241   1.927  16.236  0.00  0.00    +0.000 OA
ATOM     30  C   UNL     1      50.721   3.271  17.525  0.00  0.00    +0.000 A 
ATOM     31  H   UNL     1      50.958   0.178  16.458  0.00  0.00    +0.000 HD
ENDBRANCH  20  21
BRANCH  20  33
ATOM     32  C   UNL     1      47.133   5.400  18.552  0.00  0.00    +0.000 C 
ATOM     33  C   UNL     1      47.598   4.657  17.307  0.00  0.00    +0.000 C 
ENDBRANCH  20  33
ENDBRANCH  18  20
ENDBRANCH   1  18
TORSDOF 9
ENDMDL
MODEL 2
REMARK VINA RESULT:    -6.849      1.437      1.955
REMARK INTER + INTRA:         -11.811
REMARK INTER:                 -11.134
REMARK INTRA:                  -0.677
REMARK UNBOUND:                -1.358
REMARK  Name = 
REMARK  10 active torsions:
REMARK  status: ('A' for Active; 'I' for Inactive)
REMARK    1  A    between atoms: C_1  and  C_2
REMARK    2  A    between atoms: C_2  and  C_3
REMARK    3  A    between atoms: C_3  and  N_4
REMARK    4  A    between atoms: C_3  and  C_20
REMARK    5  A    between atoms: N_4  and  C_5
REMARK    6  A    between atoms: C_5  and  C_6
REMARK    7  A    between atoms: C_9  and  C_10
REMARK    8  A    between atoms: C_10  and  N_11
REMARK    9  A    between atoms: N_11  and  C_12
REMARK   10  A    between atoms: C_12  and  C_13
REMARK                            x       y       z     vdW  Elec       q    Type
REMARK                         _______ _______ _______ _____ _____    ______ ____
ROOT
ATOM      1  C   UNL     1      48.906   6.565  14.917  0.00  0.00    +0.000 C 
ENDROOT
BRANCH   1   2
ATOM      2  C   UNL     1      47.694   6.286  14.063  0.00  0.00    +0.000 A 
ATOM      3  C   UNL     1      47.125   5.010  14.035  0.00  0.00    +0.000 A 
ATOM      4  C   UNL     1      46.013   4.752  13.238  0.00  0.00    +0.000 A 
ATOM      5  C   UNL     1      45.430   5.778  12.480  0.00  0.00    +0.000 A 
ATOM      6  C   UNL     1      45.990   7.060  12.520  0.00  0.00    +0.000 A 
ATOM      7  C   UNL     1      47.115   7.313  13.301  0.00  0.00    +0.000 A 
BRANCH   5   8
ATOM      8  C   UNL     1      44.220   5.501  11.627  0.00  0.00    +0.000 C 
BRANCH   8   9
ATOM      9  N   UNL     1      44.527   5.715  10.215  0.00  0.00    +0.000 NA
ATOM     10  H   UNL     1      44.998   6.615  10.114  0.00  0.00    +0.000 HD
BRANCH   9  11
ATOM     11  C   UNL     1      45.395   4.650   9.707  0.00  0.00    +0.000 C 
BRANCH  11  12
ATOM     12  C   UNL     1      44.717   3.927   8.518  0.00  0.00    +0.000 C 
ATOM     13  C   UNL     1      45.709   3.531   7.437  0.00  0.00    +0.000 C 
ATOM     14  C   UNL     1      46.316   2.251   7.977  0.00  0.00    +0.000 C 
ATOM     15  C   UNL     1      45.219   1.642   8.843  0.00  0.00    +0.000 C 
ATOM     16  N   UNL     1      44.135   2.629   8.903  0.00  0.00    +0.000 NA
ATOM     17  H   UNL     1      43.773   2.709   9.856  0.00  0.00    +0.000 HD
ENDBRANCH  11  12
ENDBRANCH   9  11
ENDBRANCH   8   9
ENDBRANCH   5   8
ENDBRANCH   1   2
BRANCH   1  18
ATOM     18  N   UNL     1      48.600   6.415  16.338  0.00  0.00    +0.000 NA
ATOM     19  H   UNL     1      49.282   6.929  16.891  0.00  0.00    +0.000 HD
BRANCH  18  20
ATOM     20  C   UNL     1      48.506   5.039  16.828  0.00  0.00    +0.000 C 
BRANCH  20  21
ATOM     21  C   UNL     1      49.798   4.724  17.575  0.00  0.00    +0.000 A 
ATOM     22  C   UNL     1      50.514   5.654  18.316  0.00  0.00    +0.000 A 
ATOM     23  S   UNL     1      52.007   5.075  18.891  0.00  0.00    +0.000 S 
ATOM     24  C   UNL     1      51.739   3.546  18.190  0.00  0.00    +0.000 A 
ATOM     25  N   UNL     1      52.687   2.574  18.281  0.00  0.00    +0.000 NA
ATOM     26  C   UNL     1      52.368   1.479  17.681  0.00  0.00    +0.000 A 
ATOM     27  N   UNL     1      51.185   1.257  17.022  0.00  0.00    +0.000 N 
ATOM     28  C   UNL     1      50.168   2.192  16.956  0.00  0.00    +0.000 A 
ATOM     29  O   UNL     1      49.072   1.907  16.486  0.00  0.00    +0.000 OA
ATOM     30  C   UNL     1      50.516   3.463  17.557  0.00  0.00    +0.000 A 
ATOM     31  H   UNL     1      50.976   0.354  16.620  0.00  0.00    +0.000 HD
ENDBRANCH  20  21
BRANCH  20  33
ATOM     32  C   UNL     1      46.955   5.634  18.853  0.00  0.00    +0.000 C 
ATOM     33  C   UNL     1      47.253   4.712  17.678  0.00  0.00    +0.000 C 
ENDBRANCH  20  33
ENDBRANCH  18  20
ENDBRANCH   1  18
TORSDOF 9
ENDMDL
MODEL 3
REMARK VINA RESULT:    -6.542      3.001      4.430
REMARK INTER + INTRA:         -11.342
REMARK INTER:                 -10.302
REMARK INTRA:                  -1.040
REMARK UNBOUND:                -1.358
REMARK  Name = 
REMARK  10 active torsions:
REMARK  status: ('A' for Active; 'I' for Inactive)
REMARK    1  A    between atoms: C_1  and  C_2
REMARK    2  A    between atoms: C_2  and  C_3
REMARK    3  A    between atoms: C_3  and  N_4
REMARK    4  A    between atoms: C_3  and  C_20
REMARK    5  A    between atoms: N_4  and  C_5
REMARK    6  A    between atoms: C_5  and  C_6
REMARK    7  A    between atoms: C_9  and  C_10
REMARK    8  A    between atoms: C_10  and  N_11
REMARK    9  A    between atoms: N_11  and  C_12
REMARK   10  A    between atoms: C_12  and  C_13
REMARK                            x       y       z     vdW  Elec       q    Type
REMARK                         _______ _______ _______ _____ _____    ______ ____
ROOT
ATOM      1  C   UNL     1      48.020   6.570  13.507  0.00  0.00    +0.000 C 
ENDROOT
BRANCH   1   2
ATOM      2  C   UNL     1      46.970   5.932  12.632  0.00  0.00    +0.000 A 
ATOM      3  C   UNL     1      46.626   6.504  11.404  0.00  0.00    +0.000 A 
ATOM      4  C   UNL     1      45.649   5.920  10.603  0.00  0.00    +0.000 A 
ATOM      5  C   UNL     1      45.021   4.732  11.003  0.00  0.00    +0.000 A 
ATOM      6  C   UNL     1      45.376   4.149  12.225  0.00  0.00    +0.000 A 
ATOM      7  C   UNL     1      46.339   4.745  13.037  0.00  0.00    +0.000 A 
BRANCH   5   8
ATOM      8  C   UNL     1      43.972   4.094  10.131  0.00  0.00    +0.000 C 
BRANCH   8   9
ATOM      9  N   UNL     1      44.227   4.389   8.723  0.00  0.00    +0.000 NA
ATOM     10  H   UNL     1      44.911   5.144   8.665  0.00  0.00    +0.000 HD
BRANCH   9  11
ATOM     11  C   UNL     1      44.743   3.206   8.031  0.00  0.00    +0.000 C 
BRANCH  11  12
ATOM     12  C   UNL     1      46.290   3.242   7.989  0.00  0.00    +0.000 C 
ATOM     13  C   UNL     1      46.893   1.886   7.659  0.00  0.00    +0.000 C 
ATOM     14  C   UNL     1      46.771   1.813   6.149  0.00  0.00    +0.000 C 
ATOM     15  C   UNL     1      46.825   3.265   5.688  0.00  0.00    +0.000 C 
ATOM     16  N   UNL     1      46.807   4.091   6.901  0.00  0.00    +0.000 NA
ATOM     17  H   UNL     1      46.174   4.886   6.786  0.00  0.00    +0.000 HD
ENDBRANCH  11  12
ENDBRANCH   9  11
ENDBRANCH   8   9
ENDBRANCH   5   8
ENDBRANCH   1   2
BRANCH   1  18
ATOM     18  N   UNL     1      47.624   6.548  14.914  0.00  0.00    +0.000 NA
ATOM     19  H   UNL     1      46.862   7.204  15.065  0.00  0.00    +0.000 HD
BRANCH  18  20
ATOM     20  C   UNL     1      48.694   6.804  15.880  0.00  0.00    +0.000 C 
BRANCH  20  21
ATOM     21  C   UNL     1      48.679   5.668  16.898  0.00  0.00    +0.000 A 
ATOM     22  C   UNL     1      48.353   4.354  16.592  0.00  0.00    +0.000 A 
ATOM     23  S   UNL     1      48.243   3.337  17.952  0.00  0.00    +0.000 S 
ATOM     24  C   UNL     1      48.653   4.614  19.001  0.00  0.00    +0.000 A 
ATOM     25  N   UNL     1      48.691   4.412  20.346  0.00  0.00    +0.000 NA
ATOM     26  C   UNL     1      48.985   5.469  21.022  0.00  0.00    +0.000 A 
ATOM     27  N   UNL     1      49.267   6.698  20.482  0.00  0.00    +0.000 N 
ATOM     28  C   UNL     1      49.301   6.936  19.120  0.00  0.00    +0.000 A 
ATOM     29  O   UNL     1      49.699   8.006  18.671  0.00  0.00    +0.000 OA
ATOM     30  C   UNL     1      48.906   5.791  18.326  0.00  0.00    +0.000 A 
ATOM     31  H   UNL     1      49.545   7.473  21.068  0.00  0.00    +0.000 HD
ENDBRANCH  20  21
BRANCH  20  33
ATOM     32  C   UNL     1      50.675   8.432  15.345  0.00  0.00    +0.000 C 
ATOM     33  C   UNL     1      50.105   7.022  15.278  0.00  0.00    +0.000 C 
ENDBRANCH  20  33
ENDBRANCH  18  20
ENDBRANCH   1  18
TORSDOF 9
ENDMDL
MODEL 4
REMARK VINA RESULT:    -6.541      3.326      7.969
REMARK INTER + INTRA:         -11.340
REMARK INTER:                  -9.920
REMARK INTRA:                  -1.420
REMARK UNBOUND:                -1.358
REMARK  Name = 
REMARK  10 active torsions:
REMARK  status: ('A' for Active; 'I' for Inactive)
REMARK    1  A    between atoms: C_1  and  C_2
REMARK    2  A    between atoms: C_2  and  C_3
REMARK    3  A    between atoms: C_3  and  N_4
REMARK    4  A    between atoms: C_3  and  C_20
REMARK    5  A    between atoms: N_4  and  C_5
REMARK    6  A    between atoms: C_5  and  C_6
REMARK    7  A    between atoms: C_9  and  C_10
REMARK    8  A    between atoms: C_10  and  N_11
REMARK    9  A    between atoms: N_11  and  C_12
REMARK   10  A    between atoms: C_12  and  C_13
REMARK                            x       y       z     vdW  Elec       q    Type
REMARK                         _______ _______ _______ _____ _____    ______ ____
ROOT
ATOM      1  C   UNL     1      48.277   7.691  11.843  0.00  0.00    +0.000 C 
ENDROOT
BRANCH   1   2
ATOM      2  C   UNL     1      48.930   7.440  13.180  0.00  0.00    +0.000 A 
ATOM      3  C   UNL     1      48.295   6.651  14.143  0.00  0.00    +0.000 A 
ATOM      4  C   UNL     1      48.894   6.430  15.379  0.00  0.00    +0.000 A 
ATOM      5  C   UNL     1      50.157   6.970  15.662  0.00  0.00    +0.000 A 
ATOM      6  C   UNL     1      50.801   7.747  14.693  0.00  0.00    +0.000 A 
ATOM      7  C   UNL     1      50.192   7.986  13.463  0.00  0.00    +0.000 A 
BRANCH   5   8
ATOM      8  C   UNL     1      50.810   6.721  16.996  0.00  0.00    +0.000 C 
BRANCH   8   9
ATOM      9  N   UNL     1      49.800   6.524  18.033  0.00  0.00    +0.000 NA
ATOM     10  H   UNL     1      48.875   6.644  17.618  0.00  0.00    +0.000 HD
BRANCH   9  11
ATOM     11  C   UNL     1      49.905   5.182  18.610  0.00  0.00    +0.000 C 
BRANCH  11  12
ATOM     12  C   UNL     1      48.570   4.780  19.283  0.00  0.00    +0.000 C 
ATOM     13  C   UNL     1      47.358   5.238  18.488  0.00  0.00    +0.000 C 
ATOM     14  C   UNL     1      47.231   4.178  17.412  0.00  0.00    +0.000 C 
ATOM     15  C   UNL     1      47.812   2.918  18.043  0.00  0.00    +0.000 C 
ATOM     16  N   UNL     1      48.380   3.320  19.334  0.00  0.00    +0.000 NA
ATOM     17  H   UNL     1      49.293   2.881  19.479  0.00  0.00    +0.000 HD
ENDBRANCH  11  12
ENDBRANCH   9  11
ENDBRANCH   8   9
ENDBRANCH   5   8
ENDBRANCH   1   2
BRANCH   1  18
ATOM     18  N   UNL     1      47.254   6.686  11.555  0.00  0.00    +0.000 NA
ATOM     19  H   UNL     1      47.482   6.204  10.689  0.00  0.00    +0.000 HD
BRANCH  18  20
ATOM     20  C   UNL     1      45.877   7.179  11.497  0.00  0.00    +0.000 C 
BRANCH  20  21
ATOM     21  C   UNL     1      44.949   5.981  11.667  0.00  0.00    +0.000 A 
ATOM     22  C   UNL     1      44.149   5.770  12.782  0.00  0.00    +0.000 A 
ATOM     23  S   UNL     1      43.354   4.266  12.784  0.00  0.00    +0.000 S 
ATOM     24  C   UNL     1      44.031   3.851  11.277  0.00  0.00    +0.000 A 
ATOM     25  N   UNL     1      43.777   2.634  10.723  0.00  0.00    +0.000 NA
ATOM     26  C   UNL     1      44.377   2.440   9.598  0.00  0.00    +0.000 A 
ATOM     27  N   UNL     1      45.184   3.353   8.967  0.00  0.00    +0.000 N 
ATOM     28  C   UNL     1      45.422   4.622   9.463  0.00  0.00    +0.000 A 
ATOM     29  O   UNL     1      46.028   5.459   8.801  0.00  0.00    +0.000 OA
ATOM     30  C   UNL     1      44.824   4.855  10.761  0.00  0.00    +0.000 A 
ATOM     31  H   UNL     1      45.580   3.156   8.059  0.00  0.00    +0.000 HD
ENDBRANCH  20  21
BRANCH  20  33
ATOM     32  C   UNL     1      45.100   9.652  11.876  0.00  0.00    +0.000 C 
ATOM     33  C   UNL     1      45.531   8.324  12.482  0.00  0.00    +0.000 C 
ENDBRANCH  20  33
ENDBRANCH  18  20
ENDBRANCH   1  18
TORSDOF 9
ENDMDL
MODEL 5
REMARK VINA RESULT:    -6.531      2.787      4.174
REMARK INTER + INTRA:         -11.326
REMARK INTER:                 -10.325
REMARK INTRA:                  -1.001
REMARK UNBOUND:                -1.358
REMARK  Name = 
REMARK  10 active torsions:
REMARK  status: ('A' for Active; 'I' for Inactive)
REMARK    1  A    between atoms: C_1  and  C_2
REMARK    2  A    between atoms: C_2  and  C_3
REMARK    3  A    between atoms: C_3  and  N_4
REMARK    4  A    between atoms: C_3  and  C_20
REMARK    5  A    between atoms: N_4  and  C_5
REMARK    6  A    between atoms: C_5  and  C_6
REMARK    7  A    between atoms: C_9  and  C_10
REMARK    8  A    between atoms: C_10  and  N_11
REMARK    9  A    between atoms: N_11  and  C_12
REMARK   10  A    between atoms: C_12  and  C_13
REMARK                            x       y       z     vdW  Elec       q    Type
REMARK                         _______ _______ _______ _____ _____    ______ ____
ROOT
ATOM      1  C   UNL     1      47.774   7.260  13.569  0.00  0.00    +0.000 C 
ENDROOT
BRANCH   1   2
ATOM      2  C   UNL     1      46.881   6.366  12.745  0.00  0.00    +0.000 A 
ATOM      3  C   UNL     1      46.352   5.194  13.291  0.00  0.00    +0.000 A 
ATOM      4  C   UNL     1      45.537   4.365  12.525  0.00  0.00    +0.000 A 
ATOM      5  C   UNL     1      45.210   4.713  11.207  0.00  0.00    +0.000 A 
ATOM      6  C   UNL     1      45.726   5.895  10.664  0.00  0.00    +0.000 A 
ATOM      7  C   UNL     1      46.559   6.714  11.423  0.00  0.00    +0.000 A 
BRANCH   5   8
ATOM      8  C   UNL     1      44.319   3.822  10.383  0.00  0.00    +0.000 C 
BRANCH   8   9
ATOM      9  N   UNL     1      44.209   4.327   9.017  0.00  0.00    +0.000 NA
ATOM     10  H   UNL     1      44.763   5.181   8.937  0.00  0.00    +0.000 HD
BRANCH   9  11
ATOM     11  C   UNL     1      44.698   3.336   8.056  0.00  0.00    +0.000 C 
BRANCH  11  12
ATOM     12  C   UNL     1      46.246   3.326   8.035  0.00  0.00    +0.000 C 
ATOM     13  C   UNL     1      46.814   1.954   7.711  0.00  0.00    +0.000 C 
ATOM     14  C   UNL     1      46.710   1.886   6.200  0.00  0.00    +0.000 C 
ATOM     15  C   UNL     1      46.812   3.336   5.742  0.00  0.00    +0.000 C 
ATOM     16  N   UNL     1      46.801   4.161   6.955  0.00  0.00    +0.000 NA
ATOM     17  H   UNL     1      46.194   4.974   6.832  0.00  0.00    +0.000 HD
ENDBRANCH  11  12
ENDBRANCH   9  11
ENDBRANCH   8   9
ENDBRANCH   5   8
ENDBRANCH   1   2
BRANCH   1  18
ATOM     18  N   UNL     1      47.996   6.705  14.903  0.00  0.00    +0.000 NA
ATOM     19  H   UNL     1      47.111   6.639  15.398  0.00  0.00    +0.000 HD
BRANCH  18  20
ATOM     20  C   UNL     1      48.973   7.412  15.732  0.00  0.00    +0.000 C 
BRANCH  20  21
ATOM     21  C   UNL     1      48.574   7.212  17.190  0.00  0.00    +0.000 A 
ATOM     22  C   UNL     1      48.252   8.248  18.057  0.00  0.00    +0.000 A 
ATOM     23  S   UNL     1      48.022   7.750  19.668  0.00  0.00    +0.000 S 
ATOM     24  C   UNL     1      48.319   6.124  19.260  0.00  0.00    +0.000 A 
ATOM     25  N   UNL     1      48.317   5.164  20.224  0.00  0.00    +0.000 NA
ATOM     26  C   UNL     1      48.586   3.983  19.782  0.00  0.00    +0.000 A 
ATOM     27  N   UNL     1      48.832   3.669  18.469  0.00  0.00    +0.000 N 
ATOM     28  C   UNL     1      48.785   4.601  17.447  0.00  0.00    +0.000 A 
ATOM     29  O   UNL     1      48.864   4.259  16.272  0.00  0.00    +0.000 OA
ATOM     30  C   UNL     1      48.556   5.953  17.912  0.00  0.00    +0.000 A 
ATOM     31  H   UNL     1      48.982   2.712  18.183  0.00  0.00    +0.000 HD
ENDBRANCH  20  21
BRANCH  20  33
ATOM     32  C   UNL     1      51.306   8.060  14.730  0.00  0.00    +0.000 C 
ATOM     33  C   UNL     1      50.457   7.043  15.483  0.00  0.00    +0.000 C 
ENDBRANCH  20  33
ENDBRANCH  18  20
ENDBRANCH   1  18
TORSDOF 9
ENDMDL
MODEL 6
REMARK VINA RESULT:    -6.403      1.474      2.005
REMARK INTER + INTRA:         -11.131
REMARK INTER:                  -9.479
REMARK INTRA:                  -1.652
REMARK UNBOUND:                -1.358
REMARK  Name = 
REMARK  10 active torsions:
REMARK  status: ('A' for Active; 'I' for Inactive)
REMARK    1  A    between atoms: C_1  and  C_2
REMARK    2  A    between atoms: C_2  and  C_3
REMARK    3  A    between atoms: C_3  and  N_4
REMARK    4  A    between atoms: C_3  and  C_20
REMARK    5  A    between atoms: N_4  and  C_5
REMARK    6  A    between atoms: C_5  and  C_6
REMARK    7  A    between atoms: C_9  and  C_10
REMARK    8  A    between atoms: C_10  and  N_11
REMARK    9  A    between atoms: N_11  and  C_12
REMARK   10  A    between atoms: C_12  and  C_13
REMARK                            x       y       z     vdW  Elec       q    Type
REMARK                         _______ _______ _______ _____ _____    ______ ____
ROOT
ATOM      1  C   UNL     1      49.629   7.333  14.921  0.00  0.00    +0.000 C 
ENDROOT
BRANCH   1   2
ATOM      2  C   UNL     1      48.382   7.424  14.076  0.00  0.00    +0.000 A 
ATOM      3  C   UNL     1      47.926   6.313  13.362  0.00  0.00    +0.000 A 
ATOM      4  C   UNL     1      46.781   6.402  12.575  0.00  0.00    +0.000 A 
ATOM      5  C   UNL     1      46.053   7.599  12.515  0.00  0.00    +0.000 A 
ATOM      6  C   UNL     1      46.500   8.708  13.243  0.00  0.00    +0.000 A 
ATOM      7  C   UNL     1      47.657   8.625  14.014  0.00  0.00    +0.000 A 
BRANCH   5   8
ATOM      8  C   UNL     1      44.809   7.692  11.673  0.00  0.00    +0.000 C 
BRANCH   8   9
ATOM      9  N   UNL     1      44.685   6.520  10.809  0.00  0.00    +0.000 NA
ATOM     10  H   UNL     1      45.516   5.939  10.923  0.00  0.00    +0.000 HD
BRANCH   9  11
ATOM     11  C   UNL     1      43.493   5.744  11.156  0.00  0.00    +0.000 C 
BRANCH  11  12
ATOM     12  C   UNL     1      43.590   4.317  10.562  0.00  0.00    +0.000 C 
ATOM     13  C   UNL     1      44.999   3.751  10.638  0.00  0.00    +0.000 C 
ATOM     14  C   UNL     1      45.094   3.252  12.066  0.00  0.00    +0.000 C 
ATOM     15  C   UNL     1      43.662   2.890  12.443  0.00  0.00    +0.000 C 
ATOM     16  N   UNL     1      42.812   3.331  11.332  0.00  0.00    +0.000 NA
ATOM     17  H   UNL     1      41.968   3.790  11.684  0.00  0.00    +0.000 HD
ENDBRANCH  11  12
ENDBRANCH   9  11
ENDBRANCH   8   9
ENDBRANCH   5   8
ENDBRANCH   1   2
BRANCH   1  18
ATOM     18  N   UNL     1      49.434   7.963  16.225  0.00  0.00    +0.000 NA
ATOM     19  H   UNL     1      50.331   8.262  16.598  0.00  0.00    +0.000 HD
BRANCH  18  20
ATOM     20  C   UNL     1      48.729   7.157  17.222  0.00  0.00    +0.000 C 
BRANCH  20  21
ATOM     21  C   UNL     1      49.614   5.962  17.560  0.00  0.00    +0.000 A 
ATOM     22  C   UNL     1      50.863   6.063  18.158  0.00  0.00    +0.000 A 
ATOM     23  S   UNL     1      51.703   4.586  18.253  0.00  0.00    +0.000 S 
ATOM     24  C   UNL     1      50.413   3.749  17.521  0.00  0.00    +0.000 A 
ATOM     25  N   UNL     1      50.517   2.417  17.265  0.00  0.00    +0.000 NA
ATOM     26  C   UNL     1      49.482   1.917  16.681  0.00  0.00    +0.000 A 
ATOM     27  N   UNL     1      48.349   2.616  16.352  0.00  0.00    +0.000 N 
ATOM     28  C   UNL     1      48.174   3.957  16.646  0.00  0.00    +0.000 A 
ATOM     29  O   UNL     1      47.094   4.510  16.469  0.00  0.00    +0.000 OA
ATOM     30  C   UNL     1      49.343   4.573  17.238  0.00  0.00    +0.000 A 
ATOM     31  H   UNL     1      47.550   2.150  15.944  0.00  0.00    +0.000 HD
ENDBRANCH  20  21
BRANCH  20  33
ATOM     32  C   UNL     1      47.845   9.365  18.319  0.00  0.00    +0.000 C 
ATOM     33  C   UNL     1      48.269   7.913  18.494  0.00  0.00    +0.000 C 
ENDBRANCH  20  33
ENDBRANCH  18  20
ENDBRANCH   1  18
TORSDOF 9
ENDMDL
MODEL 7
REMARK VINA RESULT:    -6.322      2.030      2.557
REMARK INTER + INTRA:         -11.007
REMARK INTER:                  -9.951
REMARK INTRA:                  -1.055
REMARK UNBOUND:                -1.358
REMARK  Name = 
REMARK  10 active torsions:
REMARK  status: ('A' for Active; 'I' for Inactive)
REMARK    1  A    between atoms: C_1  and  C_2
REMARK    2  A    between atoms: C_2  and  C_3
REMARK    3  A    between atoms: C_3  and  N_4
REMARK    4  A    between atoms: C_3  and  C_20
REMARK    5  A    between atoms: N_4  and  C_5
REMARK    6  A    between atoms: C_5  and  C_6
REMARK    7  A    between atoms: C_9  and  C_10
REMARK    8  A    between atoms: C_10  and  N_11
REMARK    9  A    between atoms: N_11  and  C_12
REMARK   10  A    between atoms: C_12  and  C_13
REMARK                            x       y       z     vdW  Elec       q    Type
REMARK                         _______ _______ _______ _____ _____    ______ ____
ROOT
ATOM      1  C   UNL     1      48.973   6.829  14.851  0.00  0.00    +0.000 C 
ENDROOT
BRANCH   1   2
ATOM      2  C   UNL     1      47.793   6.610  13.936  0.00  0.00    +0.000 A 
ATOM      3  C   UNL     1      47.160   5.365  13.881  0.00  0.00    +0.000 A 
ATOM      4  C   UNL     1      46.079   5.163  13.028  0.00  0.00    +0.000 A 
ATOM      5  C   UNL     1      45.591   6.214  12.239  0.00  0.00    +0.000 A 
ATOM      6  C   UNL     1      46.214   7.465  12.305  0.00  0.00    +0.000 A 
ATOM      7  C   UNL     1      47.310   7.662  13.143  0.00  0.00    +0.000 A 
BRANCH   5   8
ATOM      8  C   UNL     1      44.414   5.997  11.325  0.00  0.00    +0.000 C 
BRANCH   8   9
ATOM      9  N   UNL     1      44.495   4.687  10.686  0.00  0.00    +0.000 NA
ATOM     10  H   UNL     1      43.560   4.411  10.382  0.00  0.00    +0.000 HD
BRANCH   9  11
ATOM     11  C   UNL     1      45.392   4.730   9.529  0.00  0.00    +0.000 C 
BRANCH  11  12
ATOM     12  C   UNL     1      44.780   3.940   8.345  0.00  0.00    +0.000 C 
ATOM     13  C   UNL     1      45.822   3.537   7.315  0.00  0.00    +0.000 C 
ATOM     14  C   UNL     1      46.449   2.299   7.925  0.00  0.00    +0.000 C 
ATOM     15  C   UNL     1      45.342   1.687   8.776  0.00  0.00    +0.000 C 
ATOM     16  N   UNL     1      44.226   2.639   8.760  0.00  0.00    +0.000 NA
ATOM     17  H   UNL     1      43.828   2.743   9.697  0.00  0.00    +0.000 HD
ENDBRANCH  11  12
ENDBRANCH   9  11
ENDBRANCH   8   9
ENDBRANCH   5   8
ENDBRANCH   1   2
BRANCH   1  18
ATOM     18  N   UNL     1      48.631   7.725  15.954  0.00  0.00    +0.000 NA
ATOM     19  H   UNL     1      49.358   8.427  16.063  0.00  0.00    +0.000 HD
BRANCH  18  20
ATOM     20  C   UNL     1      48.373   7.079  17.242  0.00  0.00    +0.000 C 
BRANCH  20  21
ATOM     21  C   UNL     1      49.548   6.154  17.540  0.00  0.00    +0.000 A 
ATOM     22  C   UNL     1      50.815   6.596  17.895  0.00  0.00    +0.000 A 
ATOM     23  S   UNL     1      51.976   5.355  17.991  0.00  0.00    +0.000 S 
ATOM     24  C   UNL     1      50.817   4.174  17.587  0.00  0.00    +0.000 A 
ATOM     25  N   UNL     1      51.184   2.870  17.455  0.00  0.00    +0.000 NA
ATOM     26  C   UNL     1      50.216   2.090  17.116  0.00  0.00    +0.000 A 
ATOM     27  N   UNL     1      48.917   2.483  16.921  0.00  0.00    +0.000 N 
ATOM     28  C   UNL     1      48.486   3.785  17.102  0.00  0.00    +0.000 A 
ATOM     29  O   UNL     1      47.293   4.071  17.062  0.00  0.00    +0.000 OA
ATOM     30  C   UNL     1      49.557   4.708  17.414  0.00  0.00    +0.000 A 
ATOM     31  H   UNL     1      48.195   1.809  16.710  0.00  0.00    +0.000 HD
ENDBRANCH  20  21
BRANCH  20  33
ATOM     32  C   UNL     1      48.078   9.528  18.125  0.00  0.00    +0.000 C 
ATOM     33  C   UNL     1      48.076   8.035  18.425  0.00  0.00    +0.000 C 
ENDBRANCH  20  33
ENDBRANCH  18  20
ENDBRANCH   1  18
TORSDOF 9
ENDMDL
MODEL 8
REMARK VINA RESULT:    -6.190      3.276      7.888
REMARK INTER + INTRA:         -10.805
REMARK INTER:                  -9.066
REMARK INTRA:                  -1.738
REMARK UNBOUND:                -1.358
REMARK  Name = 
REMARK  10 active torsions:
REMARK  status: ('A' for Active; 'I' for Inactive)
REMARK    1  A    between atoms: C_1  and  C_2
REMARK    2  A    between atoms: C_2  and  C_3
REMARK    3  A    between atoms: C_3  and  N_4
REMARK    4  A    between atoms: C_3  and  C_20
REMARK    5  A    between atoms: N_4  and  C_5
REMARK    6  A    between atoms: C_5  and  C_6
REMARK    7  A    between atoms: C_9  and  C_10
REMARK    8  A    between atoms: C_10  and  N_11
REMARK    9  A    between atoms: N_11  and  C_12
REMARK   10  A    between atoms: C_12  and  C_13
REMARK                            x       y       z     vdW  Elec       q    Type
REMARK                         _______ _______ _______ _____ _____    ______ ____
ROOT
ATOM      1  C   UNL     1      48.382   7.459  12.660  0.00  0.00    +0.000 C 
ENDROOT
BRANCH   1   2
ATOM      2  C   UNL     1      48.727   7.653  14.117  0.00  0.00    +0.000 A 
ATOM      3  C   UNL     1      49.827   7.000  14.679  0.00  0.00    +0.000 A 
ATOM      4  C   UNL     1      50.136   7.173  16.025  0.00  0.00    +0.000 A 
ATOM      5  C   UNL     1      49.367   8.029  16.826  0.00  0.00    +0.000 A 
ATOM      6  C   UNL     1      48.275   8.696  16.260  0.00  0.00    +0.000 A 
ATOM      7  C   UNL     1      47.952   8.508  14.918  0.00  0.00    +0.000 A 
BRANCH   5   8
ATOM      8  C   UNL     1      49.710   8.224  18.279  0.00  0.00    +0.000 C 
BRANCH   8   9
ATOM      9  N   UNL     1      48.799   7.460  19.128  0.00  0.00    +0.000 NA
ATOM     10  H   UNL     1      47.889   7.408  18.669  0.00  0.00    +0.000 HD
BRANCH   9  11
ATOM     11  C   UNL     1      49.312   6.106  19.350  0.00  0.00    +0.000 C 
BRANCH  11  12
ATOM     12  C   UNL     1      48.145   5.090  19.392  0.00  0.00    +0.000 C 
ATOM     13  C   UNL     1      47.285   5.140  18.140  0.00  0.00    +0.000 C 
ATOM     14  C   UNL     1      48.077   4.315  17.145  0.00  0.00    +0.000 C 
ATOM     15  C   UNL     1      48.847   3.315  18.000  0.00  0.00    +0.000 C 
ATOM     16  N   UNL     1      48.612   3.692  19.398  0.00  0.00    +0.000 NA
ATOM     17  H   UNL     1      49.482   3.646  19.935  0.00  0.00    +0.000 HD
ENDBRANCH  11  12
ENDBRANCH   9  11
ENDBRANCH   8   9
ENDBRANCH   5   8
ENDBRANCH   1   2
BRANCH   1  18
ATOM     18  N   UNL     1      47.229   6.575  12.501  0.00  0.00    +0.000 NA
ATOM     19  H   UNL     1      47.546   5.635  12.278  0.00  0.00    +0.000 HD
BRANCH  18  20
ATOM     20  C   UNL     1      46.230   7.003  11.521  0.00  0.00    +0.000 C 
BRANCH  20  21
ATOM     21  C   UNL     1      45.732   5.759  10.793  0.00  0.00    +0.000 A 
ATOM     22  C   UNL     1      45.859   5.555   9.426  0.00  0.00    +0.000 A 
ATOM     23  S   UNL     1      45.056   4.165   8.860  0.00  0.00    +0.000 S 
ATOM     24  C   UNL     1      44.529   3.770  10.430  0.00  0.00    +0.000 A 
ATOM     25  N   UNL     1      43.736   2.684  10.634  0.00  0.00    +0.000 NA
ATOM     26  C   UNL     1      43.386   2.519  11.864  0.00  0.00    +0.000 A 
ATOM     27  N   UNL     1      43.773   3.321  12.908  0.00  0.00    +0.000 N 
ATOM     28  C   UNL     1      44.627   4.399  12.758  0.00  0.00    +0.000 A 
ATOM     29  O   UNL     1      45.066   5.002  13.732  0.00  0.00    +0.000 OA
ATOM     30  C   UNL     1      44.986   4.661  11.379  0.00  0.00    +0.000 A 
ATOM     31  H   UNL     1      43.507   3.103  13.858  0.00  0.00    +0.000 HD
ENDBRANCH  20  21
BRANCH  20  33
ATOM     32  C   UNL     1      45.325   9.337  12.295  0.00  0.00    +0.000 C 
ATOM     33  C   UNL     1      45.061   7.852  12.080  0.00  0.00    +0.000 C 
ENDBRANCH  20  33
ENDBRANCH  18  20
ENDBRANCH   1  18
TORSDOF 9
ENDMDL
MODEL 9
REMARK VINA RESULT:    -6.113      2.146      3.188
REMARK INTER + INTRA:         -10.688
REMARK INTER:                  -9.965
REMARK INTRA:                  -0.723
REMARK UNBOUND:                -1.358
REMARK  Name = 
REMARK  10 active torsions:
REMARK  status: ('A' for Active; 'I' for Inactive)
REMARK    1  A    between atoms: C_1  and  C_2
REMARK    2  A    between atoms: C_2  and  C_3
REMARK    3  A    between atoms: C_3  and  N_4
REMARK    4  A    between atoms: C_3  and  C_20
REMARK    5  A    between atoms: N_4  and  C_5
REMARK    6  A    between atoms: C_5  and  C_6
REMARK    7  A    between atoms: C_9  and  C_10
REMARK    8  A    between atoms: C_10  and  N_11
REMARK    9  A    between atoms: N_11  and  C_12
REMARK   10  A    between atoms: C_12  and  C_13
REMARK                            x       y       z     vdW  Elec       q    Type
REMARK                         _______ _______ _______ _____ _____    ______ ____
ROOT
ATOM      1  C   UNL     1      48.738   7.485  12.653  0.00  0.00    +0.000 C 
ENDROOT
BRANCH   1   2
ATOM      2  C   UNL     1      47.472   6.668  12.730  0.00  0.00    +0.000 A 
ATOM      3  C   UNL     1      46.383   6.967  11.907  0.00  0.00    +0.000 A 
ATOM      4  C   UNL     1      45.212   6.219  11.987  0.00  0.00    +0.000 A 
ATOM      5  C   UNL     1      45.122   5.136  12.873  0.00  0.00    +0.000 A 
ATOM      6  C   UNL     1      46.217   4.825  13.687  0.00  0.00    +0.000 A 
ATOM      7  C   UNL     1      47.382   5.587  13.622  0.00  0.00    +0.000 A 
BRANCH   5   8
ATOM      8  C   UNL     1      43.859   4.320  12.952  0.00  0.00    +0.000 C 
BRANCH   8   9
ATOM      9  N   UNL     1      44.103   2.951  12.502  0.00  0.00    +0.000 NA
ATOM     10  H   UNL     1      43.211   2.525  12.250  0.00  0.00    +0.000 HD
BRANCH   9  11
ATOM     11  C   UNL     1      44.996   2.939  11.342  0.00  0.00    +0.000 C 
BRANCH  11  12
ATOM     12  C   UNL     1      44.177   2.800  10.036  0.00  0.00    +0.000 C 
ATOM     13  C   UNL     1      44.362   3.988   9.105  0.00  0.00    +0.000 C 
ATOM     14  C   UNL     1      45.676   3.682   8.413  0.00  0.00    +0.000 C 
ATOM     15  C   UNL     1      45.760   2.160   8.403  0.00  0.00    +0.000 C 
ATOM     16  N   UNL     1      44.630   1.673   9.202  0.00  0.00    +0.000 NA
ATOM     17  H   UNL     1      44.927   0.914   9.820  0.00  0.00    +0.000 HD
ENDBRANCH  11  12
ENDBRANCH   9  11
ENDBRANCH   8   9
ENDBRANCH   5   8
ENDBRANCH   1   2
BRANCH   1  18
ATOM     18  N   UNL     1      49.739   7.003  13.603  0.00  0.00    +0.000 NA
ATOM     19  H   UNL     1      49.828   5.993  13.525  0.00  0.00    +0.000 HD
BRANCH  18  20
ATOM     20  C   UNL     1      49.517   7.371  15.002  0.00  0.00    +0.000 C 
BRANCH  20  21
ATOM     21  C   UNL     1      50.753   6.953  15.793  0.00  0.00    +0.000 A 
ATOM     22  C   UNL     1      52.020   7.480  15.589  0.00  0.00    +0.000 A 
ATOM     23  S   UNL     1      53.241   6.704  16.485  0.00  0.00    +0.000 S 
ATOM     24  C   UNL     1      52.113   5.648  17.200  0.00  0.00    +0.000 A 
ATOM     25  N   UNL     1      52.529   4.678  18.059  0.00  0.00    +0.000 NA
ATOM     26  C   UNL     1      51.576   3.932  18.501  0.00  0.00    +0.000 A 
ATOM     27  N   UNL     1      50.249   4.078  18.187  0.00  0.00    +0.000 N 
ATOM     28  C   UNL     1      49.772   5.086  17.367  0.00  0.00    +0.000 A 
ATOM     29  O   UNL     1      48.568   5.274  17.227  0.00  0.00    +0.000 OA
ATOM     30  C   UNL     1      50.820   5.903  16.792  0.00  0.00    +0.000 A 
ATOM     31  H   UNL     1      49.545   3.491  18.614  0.00  0.00    +0.000 HD
ENDBRANCH  20  21
BRANCH  20  33
ATOM     32  C   UNL     1      48.584   9.200  16.630  0.00  0.00    +0.000 C 
ATOM     33  C   UNL     1      49.143   8.853  15.256  0.00  0.00    +0.000 C 
ENDBRANCH  20  33
ENDBRANCH  18  20
ENDBRANCH   1  18
TORSDOF 9
ENDMDL
