MODEL 1
REMARK VINA RESULT:    -7.831      0.000      0.000
REMARK INTER + INTRA:         -12.626
REMARK INTER:                 -11.494
REMARK INTRA:                  -1.132
REMARK UNBOUND:                -1.132
REMARK  Name = 
REMARK  9 active torsions:
REMARK  status: ('A' for Active; 'I' for Inactive)
REMARK    1  A    between atoms: C_1  and  O_2
REMARK    2  A    between atoms: O_2  and  C_3
REMARK    3  A    between atoms: C_10  and  C_11
REMARK    4  A    between atoms: N_13  and  C_14
REMARK    5  A    between atoms: C_14  and  C_15
REMARK    6  A    between atoms: C_18  and  O_19
REMARK    7  A    between atoms: O_19  and  C_20
REMARK    8  A    between atoms: C_20  and  C_21
REMARK    9  A    between atoms: C_21  and  N_22
REMARK                            x       y       z     vdW  Elec       q    Type
REMARK                         _______ _______ _______ _____ _____    ______ ____
ROOT
ATOM      1  C   UNL     1      48.165   7.071  14.382  0.00  0.00    +0.000 A 
ATOM      2  C   UNL     1      47.681   5.755  14.452  0.00  0.00    +0.000 A 
ATOM      3  C   UNL     1      46.948   5.202  13.392  0.00  0.00    +0.000 A 
ATOM      4  C   UNL     1      46.680   5.965  12.257  0.00  0.00    +0.000 A 
ATOM      5  C   UNL     1      47.140   7.281  12.191  0.00  0.00    +0.000 A 
ATOM      6  C   UNL     1      47.874   7.833  13.243  0.00  0.00    +0.000 A 
ENDROOT
BRANCH   1   7
ATOM      7  C   UNL     1      49.053   7.624  15.465  0.00  0.00    +0.000 C 
BRANCH   7  10
ATOM      8  C   UNL     1      50.132   6.236  17.179  0.00  0.00    +0.000 C 
ATOM      9  O   UNL     1      49.389   6.709  18.043  0.00  0.00    +0.000 OA
ATOM     10  N   UNL     1      50.034   6.644  15.877  0.00  0.00    +0.000 N 
ATOM     11  H   UNL     1      50.674   6.284  15.181  0.00  0.00    +0.000 HD
BRANCH   8  19
ATOM     12  C   UNL     1      50.203   2.782  17.035  0.00  0.00    +0.000 A 
ATOM     13  N   UNL     1      50.500   1.467  17.124  0.00  0.00    +0.000 NA
ATOM     14  C   UNL     1      51.699   1.116  17.592  0.00  0.00    +0.000 A 
ATOM     15  N   UNL     1      52.663   1.932  18.001  0.00  0.00    +0.000 NA
ATOM     16  C   UNL     1      52.330   3.231  17.912  0.00  0.00    +0.000 A 
ATOM     17  S   UNL     1      53.452   4.410  18.393  0.00  0.00    +0.000 S 
ATOM     18  C   UNL     1      52.368   5.660  18.014  0.00  0.00    +0.000 A 
ATOM     19  C   UNL     1      51.145   5.222  17.517  0.00  0.00    +0.000 A 
ATOM     20  C   UNL     1      51.128   3.762  17.448  0.00  0.00    +0.000 A 
BRANCH  12  22
ATOM     21  C   UNL     1      47.928   3.124  17.480  0.00  0.00    +0.000 C 
ATOM     22  O   UNL     1      48.978   3.141  16.511  0.00  0.00    +0.000 OA
ENDBRANCH  12  22
ENDBRANCH   8  19
ENDBRANCH   7  10
ENDBRANCH   1   7
BRANCH   4  23
ATOM     23  O   UNL     1      46.028   5.524  11.138  0.00  0.00    +0.000 OA
BRANCH  23  24
ATOM     24  C   UNL     1      44.774   4.862  11.344  0.00  0.00    +0.000 C 
BRANCH  24  25
ATOM     25  C   UNL     1      44.917   3.428  10.801  0.00  0.00    +0.000 C 
BRANCH  25  26
ATOM     26  N   UNL     1      44.228   3.144   9.527  0.00  0.00    +0.000 NA
ATOM     27  C   UNL     1      44.563   1.776   9.048  0.00  0.00    +0.000 C 
ATOM     28  C   UNL     1      46.004   1.607   8.512  0.00  0.00    +0.000 C 
ATOM     29  N   UNL     1      46.350   2.643   7.531  0.00  0.00    +0.000 N 
ATOM     30  C   UNL     1      47.045   2.279   6.408  0.00  0.00    +0.000 C 
ATOM     31  N   UNL     1      47.315   3.259   5.512  0.00  0.00    +0.000 N 
ATOM     32  O   UNL     1      47.395   1.133   6.150  0.00  0.00    +0.000 OA
ATOM     33  C   UNL     1      46.004   4.008   7.934  0.00  0.00    +0.000 C 
ATOM     34  C   UNL     1      44.554   4.093   8.441  0.00  0.00    +0.000 C 
ATOM     35  H   UNL     1      47.530   4.186   5.837  0.00  0.00    +0.000 HD
ATOM     36  H   UNL     1      47.892   2.938   4.745  0.00  0.00    +0.000 HD
ENDBRANCH  25  26
ENDBRANCH  24  25
ENDBRANCH  23  24
ENDBRANCH   4  23
TORSDOF 8
ENDMDL
MODEL 2
REMARK VINA RESULT:    -7.592      2.290      2.829
REMARK INTER + INTRA:         -12.274
REMARK INTER:                 -11.550
REMARK INTRA:                  -0.724
REMARK UNBOUND:                -1.132
REMARK  Name = 
REMARK  9 active torsions:
REMARK  status: ('A' for Active; 'I' for Inactive)
REMARK    1  A    between atoms: C_1  and  O_2
REMARK    2  A    between atoms: O_2  and  C_3
REMARK    3  A    between atoms: C_10  and  C_11
REMARK    4  A    between atoms: N_13  and  C_14
REMARK    5  A    between atoms: C_14  and  C_15
REMARK    6  A    between atoms: C_18  and  O_19
REMARK    7  A    between atoms: O_19  and  C_20
REMARK    8  A    between atoms: C_20  and  C_21
REMARK    9  A    between atoms: C_21  and  N_22
REMARK                            x       y       z     vdW  Elec       q    Type
REMARK                         _______ _______ _______ _____ _____    ______ ____
ROOT
ATOM      1  C   UNL     1      46.890   7.397  12.984  0.00  0.00    +0.000 A 
ATOM      2  C   UNL     1      45.914   7.980  12.162  0.00  0.00    +0.000 A 
ATOM      3  C   UNL     1      44.817   7.234  11.708  0.00  0.00    +0.000 A 
ATOM      4  C   UNL     1      44.693   5.891  12.063  0.00  0.00    +0.000 A 
ATOM      5  C   UNL     1      45.672   5.300  12.862  0.00  0.00    +0.000 A 
ATOM      6  C   UNL     1      46.764   6.042  13.319  0.00  0.00    +0.000 A 
ENDROOT
BRANCH   1   7
ATOM      7  C   UNL     1      48.002   8.228  13.569  0.00  0.00    +0.000 C 
BRANCH   7  10
ATOM      8  C   UNL     1      48.987   7.322  15.627  0.00  0.00    +0.000 C 
ATOM      9  O   UNL     1      49.827   6.706  14.964  0.00  0.00    +0.000 OA
ATOM     10  N   UNL     1      48.042   8.094  15.009  0.00  0.00    +0.000 N 
ATOM     11  H   UNL     1      47.331   8.563  15.554  0.00  0.00    +0.000 HD
BRANCH   8  19
ATOM     12  C   UNL     1      48.800   4.718  17.894  0.00  0.00    +0.000 A 
ATOM     13  N   UNL     1      48.703   3.929  18.986  0.00  0.00    +0.000 NA
ATOM     14  C   UNL     1      48.712   4.504  20.190  0.00  0.00    +0.000 A 
ATOM     15  N   UNL     1      48.798   5.803  20.449  0.00  0.00    +0.000 NA
ATOM     16  C   UNL     1      48.880   6.559  19.343  0.00  0.00    +0.000 A 
ATOM     17  S   UNL     1      48.999   8.245  19.497  0.00  0.00    +0.000 S 
ATOM     18  C   UNL     1      49.046   8.441  17.812  0.00  0.00    +0.000 A 
ATOM     19  C   UNL     1      48.975   7.249  17.097  0.00  0.00    +0.000 A 
ATOM     20  C   UNL     1      48.885   6.120  18.021  0.00  0.00    +0.000 A 
BRANCH  12  22
ATOM     21  C   UNL     1      47.539   3.738  16.180  0.00  0.00    +0.000 C 
ATOM     22  O   UNL     1      48.832   4.115  16.653  0.00  0.00    +0.000 OA
ENDBRANCH  12  22
ENDBRANCH   8  19
ENDBRANCH   7  10
ENDBRANCH   1   7
BRANCH   4  23
ATOM     23  O   UNL     1      43.647   5.074  11.733  0.00  0.00    +0.000 OA
BRANCH  23  24
ATOM     24  C   UNL     1      43.842   3.668  11.929  0.00  0.00    +0.000 C 
BRANCH  24  25
ATOM     25  C   UNL     1      44.771   3.173  10.804  0.00  0.00    +0.000 C 
BRANCH  25  26
ATOM     26  N   UNL     1      44.140   2.950   9.489  0.00  0.00    +0.000 NA
ATOM     27  C   UNL     1      44.524   1.619   8.946  0.00  0.00    +0.000 C 
ATOM     28  C   UNL     1      45.988   1.510   8.460  0.00  0.00    +0.000 C 
ATOM     29  N   UNL     1      46.349   2.608   7.556  0.00  0.00    +0.000 N 
ATOM     30  C   UNL     1      47.096   2.325   6.443  0.00  0.00    +0.000 C 
ATOM     31  N   UNL     1      47.380   3.360   5.617  0.00  0.00    +0.000 N 
ATOM     32  O   UNL     1      47.481   1.203   6.134  0.00  0.00    +0.000 OA
ATOM     33  C   UNL     1      45.958   3.941   8.022  0.00  0.00    +0.000 C 
ATOM     34  C   UNL     1      44.488   3.967   8.474  0.00  0.00    +0.000 C 
ATOM     35  H   UNL     1      47.562   4.271   6.003  0.00  0.00    +0.000 HD
ATOM     36  H   UNL     1      47.993   3.096   4.857  0.00  0.00    +0.000 HD
ENDBRANCH  25  26
ENDBRANCH  24  25
ENDBRANCH  23  24
ENDBRANCH   4  23
TORSDOF 8
ENDMDL
MODEL 3
REMARK VINA RESULT:    -7.317      1.785      2.228
REMARK INTER + INTRA:         -11.871
REMARK INTER:                 -10.902
REMARK INTRA:                  -0.969
REMARK UNBOUND:                -1.132
REMARK  Name = 
REMARK  9 active torsions:
REMARK  status: ('A' for Active; 'I' for Inactive)
REMARK    1  A    between atoms: C_1  and  O_2
REMARK    2  A    between atoms: O_2  and  C_3
REMARK    3  A    between atoms: C_10  and  C_11
REMARK    4  A    between atoms: N_13  and  C_14
REMARK    5  A    between atoms: C_14  and  C_15
REMARK    6  A    between atoms: C_18  and  O_19
REMARK    7  A    between atoms: O_19  and  C_20
REMARK    8  A    between atoms: C_20  and  C_21
REMARK    9  A    between atoms: C_21  and  N_22
REMARK                            x       y       z     vdW  Elec       q    Type
REMARK                         _______ _______ _______ _____ _____    ______ ____
ROOT
ATOM      1  C   UNL     1      47.346   6.637  13.164  0.00  0.00    +0.000 A 
ATOM      2  C   UNL     1      47.592   5.355  13.677  0.00  0.00    +0.000 A 
ATOM      3  C   UNL     1      46.573   4.392  13.722  0.00  0.00    +0.000 A 
ATOM      4  C   UNL     1      45.294   4.709  13.267  0.00  0.00    +0.000 A 
ATOM      5  C   UNL     1      45.038   5.990  12.778  0.00  0.00    +0.000 A 
ATOM      6  C   UNL     1      46.052   6.950  12.727  0.00  0.00    +0.000 A 
ENDROOT
BRANCH   1   7
ATOM      7  C   UNL     1      48.467   7.630  13.004  0.00  0.00    +0.000 C 
BRANCH   7  10
ATOM      8  C   UNL     1      50.024   7.821  14.892  0.00  0.00    +0.000 C 
ATOM      9  O   UNL     1      49.379   8.774  15.339  0.00  0.00    +0.000 OA
ATOM     10  N   UNL     1      49.641   7.204  13.734  0.00  0.00    +0.000 N 
ATOM     11  H   UNL     1      50.197   6.451  13.350  0.00  0.00    +0.000 HD
BRANCH   8  19
ATOM     12  C   UNL     1      50.603   5.203  17.075  0.00  0.00    +0.000 A 
ATOM     13  N   UNL     1      51.110   4.306  17.949  0.00  0.00    +0.000 NA
ATOM     14  C   UNL     1      52.407   4.377  18.254  0.00  0.00    +0.000 A 
ATOM     15  N   UNL     1      53.284   5.258  17.791  0.00  0.00    +0.000 NA
ATOM     16  C   UNL     1      52.746   6.143  16.935  0.00  0.00    +0.000 A 
ATOM     17  S   UNL     1      53.733   7.339  16.247  0.00  0.00    +0.000 S 
ATOM     18  C   UNL     1      52.425   7.986  15.381  0.00  0.00    +0.000 A 
ATOM     19  C   UNL     1      51.221   7.319  15.587  0.00  0.00    +0.000 A 
ATOM     20  C   UNL     1      51.419   6.206  16.514  0.00  0.00    +0.000 A 
BRANCH  12  22
ATOM     21  C   UNL     1      48.400   5.733  17.669  0.00  0.00    +0.000 C 
ATOM     22  O   UNL     1      49.271   5.099  16.731  0.00  0.00    +0.000 OA
ENDBRANCH  12  22
ENDBRANCH   8  19
ENDBRANCH   7  10
ENDBRANCH   1   7
BRANCH   4  23
ATOM     23  O   UNL     1      44.234   3.846  13.207  0.00  0.00    +0.000 OA
BRANCH  23  24
ATOM     24  C   UNL     1      43.529   3.780  11.961  0.00  0.00    +0.000 C 
BRANCH  24  25
ATOM     25  C   UNL     1      44.533   3.315  10.889  0.00  0.00    +0.000 C 
BRANCH  25  26
ATOM     26  N   UNL     1      43.982   3.081   9.540  0.00  0.00    +0.000 NA
ATOM     27  C   UNL     1      44.359   1.727   9.051  0.00  0.00    +0.000 C 
ATOM     28  C   UNL     1      45.848   1.564   8.666  0.00  0.00    +0.000 C 
ATOM     29  N   UNL     1      46.302   2.630   7.765  0.00  0.00    +0.000 N 
ATOM     30  C   UNL     1      47.111   2.300   6.710  0.00  0.00    +0.000 C 
ATOM     31  N   UNL     1      47.480   3.308   5.884  0.00  0.00    +0.000 N 
ATOM     32  O   UNL     1      47.480   1.160   6.450  0.00  0.00    +0.000 OA
ATOM     33  C   UNL     1      45.923   3.984   8.177  0.00  0.00    +0.000 C 
ATOM     34  C   UNL     1      44.427   4.064   8.529  0.00  0.00    +0.000 C 
ATOM     35  H   UNL     1      47.664   4.221   6.262  0.00  0.00    +0.000 HD
ATOM     36  H   UNL     1      48.134   3.009   5.171  0.00  0.00    +0.000 HD
ENDBRANCH  25  26
ENDBRANCH  24  25
ENDBRANCH  23  24
ENDBRANCH   4  23
TORSDOF 8
ENDMDL
MODEL 4
REMARK VINA RESULT:    -6.828      2.938      4.093
REMARK INTER + INTRA:         -11.153
REMARK INTER:                 -10.517
REMARK INTRA:                  -0.636
REMARK UNBOUND:                -1.132
REMARK  Name = 
REMARK  9 active torsions:
REMARK  status: ('A' for Active; 'I' for Inactive)
REMARK    1  A    between atoms: C_1  and  O_2
REMARK    2  A    between atoms: O_2  and  C_3
REMARK    3  A    between atoms: C_10  and  C_11
REMARK    4  A    between atoms: N_13  and  C_14
REMARK    5  A    between atoms: C_14  and  C_15
REMARK    6  A    between atoms: C_18  and  O_19
REMARK    7  A    between atoms: O_19  and  C_20
REMARK    8  A    between atoms: C_20  and  C_21
REMARK    9  A    between atoms: C_21  and  N_22
REMARK                            x       y       z     vdW  Elec       q    Type
REMARK                         _______ _______ _______ _____ _____    ______ ____
ROOT
ATOM      1  C   UNL     1      46.485   7.035  13.334  0.00  0.00    +0.000 A 
ATOM      2  C   UNL     1      47.312   5.936  13.610  0.00  0.00    +0.000 A 
ATOM      3  C   UNL     1      46.823   4.625  13.511  0.00  0.00    +0.000 A 
ATOM      4  C   UNL     1      45.495   4.403  13.148  0.00  0.00    +0.000 A 
ATOM      5  C   UNL     1      44.662   5.493  12.895  0.00  0.00    +0.000 A 
ATOM      6  C   UNL     1      45.148   6.800  12.988  0.00  0.00    +0.000 A 
ENDROOT
BRANCH   1   7
ATOM      7  C   UNL     1      47.043   8.434  13.322  0.00  0.00    +0.000 C 
BRANCH   7  10
ATOM      8  C   UNL     1      48.663   9.442  14.866  0.00  0.00    +0.000 C 
ATOM      9  O   UNL     1      49.438   9.654  13.929  0.00  0.00    +0.000 OA
ATOM     10  N   UNL     1      47.458   8.834  14.649  0.00  0.00    +0.000 N 
ATOM     11  H   UNL     1      46.845   8.625  15.426  0.00  0.00    +0.000 HD
BRANCH   8  19
ATOM     12  C   UNL     1      48.846   7.738  17.869  0.00  0.00    +0.000 A 
ATOM     13  N   UNL     1      48.962   7.354  19.159  0.00  0.00    +0.000 NA
ATOM     14  C   UNL     1      49.310   8.268  20.066  0.00  0.00    +0.000 A 
ATOM     15  N   UNL     1      49.554   9.554  19.845  0.00  0.00    +0.000 NA
ATOM     16  C   UNL     1      49.417   9.905  18.556  0.00  0.00    +0.000 A 
ATOM     17  S   UNL     1      49.697  11.515  18.101  0.00  0.00    +0.000 S 
ATOM     18  C   UNL     1      49.341  11.166  16.479  0.00  0.00    +0.000 A 
ATOM     19  C   UNL     1      49.008   9.836  16.243  0.00  0.00    +0.000 A 
ATOM     20  C   UNL     1      49.063   9.079  17.492  0.00  0.00    +0.000 A 
BRANCH  12  22
ATOM     21  C   UNL     1      49.247   5.560  17.105  0.00  0.00    +0.000 C 
ATOM     22  O   UNL     1      48.526   6.780  16.928  0.00  0.00    +0.000 OA
ENDBRANCH  12  22
ENDBRANCH   8  19
ENDBRANCH   7  10
ENDBRANCH   1   7
BRANCH   4  23
ATOM     23  O   UNL     1      44.915   3.178  12.963  0.00  0.00    +0.000 OA
BRANCH  23  24
ATOM     24  C   UNL     1      44.028   3.049  11.845  0.00  0.00    +0.000 C 
BRANCH  24  25
ATOM     25  C   UNL     1      44.754   3.625  10.614  0.00  0.00    +0.000 C 
BRANCH  25  26
ATOM     26  N   UNL     1      44.212   3.237   9.298  0.00  0.00    +0.000 NA
ATOM     27  C   UNL     1      44.591   1.835   8.972  0.00  0.00    +0.000 C 
ATOM     28  C   UNL     1      46.083   1.629   8.617  0.00  0.00    +0.000 C 
ATOM     29  N   UNL     1      46.543   2.583   7.602  0.00  0.00    +0.000 N 
ATOM     30  C   UNL     1      47.358   2.133   6.597  0.00  0.00    +0.000 C 
ATOM     31  N   UNL     1      47.734   3.038   5.662  0.00  0.00    +0.000 N 
ATOM     32  O   UNL     1      47.728   0.971   6.473  0.00  0.00    +0.000 OA
ATOM     33  C   UNL     1      46.162   3.976   7.852  0.00  0.00    +0.000 C 
ATOM     34  C   UNL     1      44.665   4.096   8.183  0.00  0.00    +0.000 C 
ATOM     35  H   UNL     1      47.916   3.989   5.933  0.00  0.00    +0.000 HD
ATOM     36  H   UNL     1      48.391   2.658   4.993  0.00  0.00    +0.000 HD
ENDBRANCH  25  26
ENDBRANCH  24  25
ENDBRANCH  23  24
ENDBRANCH   4  23
TORSDOF 8
ENDMDL
MODEL 5
REMARK VINA RESULT:    -6.790      1.526      2.469
REMARK INTER + INTRA:         -11.098
REMARK INTER:                 -10.199
REMARK INTRA:                  -0.899
REMARK UNBOUND:                -1.132
REMARK  Name = 
REMARK  9 active torsions:
REMARK  status: ('A' for Active; 'I' for Inactive)
REMARK    1  A    between atoms: C_1  and  O_2
REMARK    2  A    between atoms: O_2  and  C_3
REMARK    3  A    between atoms: C_10  and  C_11
REMARK    4  A    between atoms: N_13  and  C_14
REMARK    5  A    between atoms: C_14  and  C_15
REMARK    6  A    between atoms: C_18  and  O_19
REMARK    7  A    between atoms: O_19  and  C_20
REMARK    8  A    between atoms: C_20  and  C_21
REMARK    9  A    between atoms: C_21  and  N_22
REMARK                            x       y       z     vdW  Elec       q    Type
REMARK                         _______ _______ _______ _____ _____    ______ ____
ROOT
ATOM      1  C   UNL     1      47.942   5.877  15.347  0.00  0.00    +0.000 A 
ATOM      2  C   UNL     1      47.105   4.765  15.171  0.00  0.00    +0.000 A 
ATOM      3  C   UNL     1      46.474   4.528  13.941  0.00  0.00    +0.000 A 
ATOM      4  C   UNL     1      46.664   5.411  12.879  0.00  0.00    +0.000 A 
ATOM      5  C   UNL     1      47.477   6.531  13.056  0.00  0.00    +0.000 A 
ATOM      6  C   UNL     1      48.111   6.767  14.277  0.00  0.00    +0.000 A 
ENDROOT
BRANCH   1   7
ATOM      7  C   UNL     1      48.715   6.065  16.626  0.00  0.00    +0.000 C 
BRANCH   7  10
ATOM      8  C   UNL     1      49.933   4.288  17.802  0.00  0.00    +0.000 C 
ATOM      9  O   UNL     1      49.135   4.349  18.741  0.00  0.00    +0.000 OA
ATOM     10  N   UNL     1      49.798   5.112  16.719  0.00  0.00    +0.000 N 
ATOM     11  H   UNL     1      50.480   5.087  15.972  0.00  0.00    +0.000 HD
BRANCH   8  19
ATOM     12  C   UNL     1      53.275   4.524  18.659  0.00  0.00    +0.000 A 
ATOM     13  N   UNL     1      54.593   4.330  18.881  0.00  0.00    +0.000 NA
ATOM     14  C   UNL     1      55.105   3.118  18.656  0.00  0.00    +0.000 A 
ATOM     15  N   UNL     1      54.452   2.049  18.218  0.00  0.00    +0.000 NA
ATOM     16  C   UNL     1      53.147   2.280  17.995  0.00  0.00    +0.000 A 
ATOM     17  S   UNL     1      52.165   1.015  17.434  0.00  0.00    +0.000 S 
ATOM     18  C   UNL     1      50.802   2.026  17.404  0.00  0.00    +0.000 A 
ATOM     19  C   UNL     1      51.053   3.332  17.815  0.00  0.00    +0.000 A 
ATOM     20  C   UNL     1      52.461   3.478  18.179  0.00  0.00    +0.000 A 
BRANCH  12  22
ATOM     21  C   UNL     1      53.521   6.840  18.397  0.00  0.00    +0.000 C 
ATOM     22  O   UNL     1      52.743   5.768  18.932  0.00  0.00    +0.000 OA
ENDBRANCH  12  22
ENDBRANCH   8  19
ENDBRANCH   7  10
ENDBRANCH   1   7
BRANCH   4  23
ATOM     23  O   UNL     1      46.151   5.262  11.619  0.00  0.00    +0.000 OA
BRANCH  23  24
ATOM     24  C   UNL     1      44.829   4.717  11.523  0.00  0.00    +0.000 C 
BRANCH  24  25
ATOM     25  C   UNL     1      44.955   3.318  10.891  0.00  0.00    +0.000 C 
BRANCH  25  26
ATOM     26  N   UNL     1      44.253   3.119   9.608  0.00  0.00    +0.000 NA
ATOM     27  C   UNL     1      44.552   1.771   9.055  0.00  0.00    +0.000 C 
ATOM     28  C   UNL     1      45.986   1.595   8.502  0.00  0.00    +0.000 C 
ATOM     29  N   UNL     1      46.353   2.673   7.576  0.00  0.00    +0.000 N 
ATOM     30  C   UNL     1      47.034   2.354   6.431  0.00  0.00    +0.000 C 
ATOM     31  N   UNL     1      47.325   3.372   5.588  0.00  0.00    +0.000 N 
ATOM     32  O   UNL     1      47.354   1.214   6.110  0.00  0.00    +0.000 OA
ATOM     33  C   UNL     1      46.044   4.024   8.053  0.00  0.00    +0.000 C 
ATOM     34  C   UNL     1      44.599   4.117   8.572  0.00  0.00    +0.000 C 
ATOM     35  H   UNL     1      47.564   4.275   5.960  0.00  0.00    +0.000 HD
ATOM     36  H   UNL     1      47.890   3.079   4.801  0.00  0.00    +0.000 HD
ENDBRANCH  25  26
ENDBRANCH  24  25
ENDBRANCH  23  24
ENDBRANCH   4  23
TORSDOF 8
ENDMDL
MODEL 6
REMARK VINA RESULT:    -6.691      3.900      9.208
REMARK INTER + INTRA:         -10.953
REMARK INTER:                  -9.482
REMARK INTRA:                  -1.471
REMARK UNBOUND:                -1.132
REMARK  Name = 
REMARK  9 active torsions:
REMARK  status: ('A' for Active; 'I' for Inactive)
REMARK    1  A    between atoms: C_1  and  O_2
REMARK    2  A    between atoms: O_2  and  C_3
REMARK    3  A    between atoms: C_10  and  C_11
REMARK    4  A    between atoms: N_13  and  C_14
REMARK    5  A    between atoms: C_14  and  C_15
REMARK    6  A    between atoms: C_18  and  O_19
REMARK    7  A    between atoms: O_19  and  C_20
REMARK    8  A    between atoms: C_20  and  C_21
REMARK    9  A    between atoms: C_21  and  N_22
REMARK                            x       y       z     vdW  Elec       q    Type
REMARK                         _______ _______ _______ _____ _____    ______ ____
ROOT
ATOM      1  C   UNL     1      48.864   3.182  17.451  0.00  0.00    +0.000 A 
ATOM      2  C   UNL     1      49.462   4.198  18.210  0.00  0.00    +0.000 A 
ATOM      3  C   UNL     1      50.842   4.194  18.458  0.00  0.00    +0.000 A 
ATOM      4  C   UNL     1      51.636   3.162  17.957  0.00  0.00    +0.000 A 
ATOM      5  C   UNL     1      51.043   2.136  17.221  0.00  0.00    +0.000 A 
ATOM      6  C   UNL     1      49.669   2.141  16.969  0.00  0.00    +0.000 A 
ENDROOT
BRANCH   1   7
ATOM      7  C   UNL     1      47.405   3.251  17.084  0.00  0.00    +0.000 C 
BRANCH   7  10
ATOM      8  C   UNL     1      47.139   4.191  14.832  0.00  0.00    +0.000 C 
ATOM      9  O   UNL     1      47.361   3.084  14.334  0.00  0.00    +0.000 OA
ATOM     10  N   UNL     1      47.151   4.359  16.189  0.00  0.00    +0.000 N 
ATOM     11  H   UNL     1      47.010   5.276  16.590  0.00  0.00    +0.000 HD
BRANCH   8  19
ATOM     12  C   UNL     1      44.503   5.085  12.781  0.00  0.00    +0.000 A 
ATOM     13  N   UNL     1      43.658   5.668  11.903  0.00  0.00    +0.000 NA
ATOM     14  C   UNL     1      43.995   6.850  11.384  0.00  0.00    +0.000 A 
ATOM     15  N   UNL     1      45.103   7.538  11.630  0.00  0.00    +0.000 NA
ATOM     16  C   UNL     1      45.927   6.925  12.495  0.00  0.00    +0.000 A 
ATOM     17  S   UNL     1      47.389   7.672  12.921  0.00  0.00    +0.000 S 
ATOM     18  C   UNL     1      47.804   6.381  13.942  0.00  0.00    +0.000 A 
ATOM     19  C   UNL     1      46.856   5.364  13.987  0.00  0.00    +0.000 A 
ATOM     20  C   UNL     1      45.725   5.698  13.124  0.00  0.00    +0.000 A 
BRANCH  12  22
ATOM     21  C   UNL     1      43.669   2.931  12.386  0.00  0.00    +0.000 C 
ATOM     22  O   UNL     1      44.130   3.883  13.346  0.00  0.00    +0.000 OA
ENDBRANCH  12  22
ENDBRANCH   8  19
ENDBRANCH   7  10
ENDBRANCH   1   7
BRANCH   4  23
ATOM     23  O   UNL     1      52.995   3.073  18.081  0.00  0.00    +0.000 OA
BRANCH  23  24
ATOM     24  C   UNL     1      53.668   4.218  18.618  0.00  0.00    +0.000 C 
BRANCH  24  25
ATOM     25  C   UNL     1      54.364   4.934  17.445  0.00  0.00    +0.000 C 
BRANCH  25  26
ATOM     26  N   UNL     1      54.439   6.405  17.533  0.00  0.00    +0.000 NA
ATOM     27  C   UNL     1      53.080   6.987  17.703  0.00  0.00    +0.000 C 
ATOM     28  C   UNL     1      52.183   6.930  16.444  0.00  0.00    +0.000 C 
ATOM     29  N   UNL     1      52.870   7.452  15.257  0.00  0.00    +0.000 N 
ATOM     30  C   UNL     1      52.173   8.257  14.395  0.00  0.00    +0.000 C 
ATOM     31  N   UNL     1      52.852   8.746  13.330  0.00  0.00    +0.000 N 
ATOM     32  O   UNL     1      51.003   8.589  14.549  0.00  0.00    +0.000 OA
ATOM     33  C   UNL     1      54.230   6.944  15.062  0.00  0.00    +0.000 C 
ATOM     34  C   UNL     1      55.058   7.048  16.354  0.00  0.00    +0.000 C 
ATOM     35  H   UNL     1      53.547   8.177  12.877  0.00  0.00    +0.000 HD
ATOM     36  H   UNL     1      52.262   9.270  12.697  0.00  0.00    +0.000 HD
ENDBRANCH  25  26
ENDBRANCH  24  25
ENDBRANCH  23  24
ENDBRANCH   4  23
TORSDOF 8
ENDMDL
MODEL 7
REMARK VINA RESULT:    -6.610      2.747      3.667
REMARK INTER + INTRA:         -10.834
REMARK INTER:                  -9.578
REMARK INTRA:                  -1.255
REMARK UNBOUND:                -1.132
REMARK  Name = 
REMARK  9 active torsions:
REMARK  status: ('A' for Active; 'I' for Inactive)
REMARK    1  A    between atoms: C_1  and  O_2
REMARK    2  A    between atoms: O_2  and  C_3
REMARK    3  A    between atoms: C_10  and  C_11
REMARK    4  A    between atoms: N_13  and  C_14
REMARK    5  A    between atoms: C_14  and  C_15
REMARK    6  A    between atoms: C_18  and  O_19
REMARK    7  A    between atoms: O_19  and  C_20
REMARK    8  A    between atoms: C_20  and  C_21
REMARK    9  A    between atoms: C_21  and  N_22
REMARK                            x       y       z     vdW  Elec       q    Type
REMARK                         _______ _______ _______ _____ _____    ______ ____
ROOT
ATOM      1  C   UNL     1      49.668   8.117  16.550  0.00  0.00    +0.000 A 
ATOM      2  C   UNL     1      50.130   7.332  15.483  0.00  0.00    +0.000 A 
ATOM      3  C   UNL     1      49.551   7.437  14.210  0.00  0.00    +0.000 A 
ATOM      4  C   UNL     1      48.493   8.321  13.997  0.00  0.00    +0.000 A 
ATOM      5  C   UNL     1      48.015   9.087  15.060  0.00  0.00    +0.000 A 
ATOM      6  C   UNL     1      48.593   8.988  16.328  0.00  0.00    +0.000 A 
ENDROOT
BRANCH   1   7
ATOM      7  C   UNL     1      50.368   8.092  17.884  0.00  0.00    +0.000 C 
BRANCH   7  10
ATOM      8  C   UNL     1      50.882   5.866  18.782  0.00  0.00    +0.000 C 
ATOM      9  O   UNL     1      49.834   5.877  19.433  0.00  0.00    +0.000 OA
ATOM     10  N   UNL     1      51.223   6.931  17.995  0.00  0.00    +0.000 N 
ATOM     11  H   UNL     1      52.103   6.935  17.497  0.00  0.00    +0.000 HD
BRANCH   8  19
ATOM     12  C   UNL     1      50.811   2.694  17.408  0.00  0.00    +0.000 A 
ATOM     13  N   UNL     1      51.035   1.412  17.045  0.00  0.00    +0.000 NA
ATOM     14  C   UNL     1      52.149   0.815  17.471  0.00  0.00    +0.000 A 
ATOM     15  N   UNL     1      53.090   1.346  18.241  0.00  0.00    +0.000 NA
ATOM     16  C   UNL     1      52.831   2.616  18.595  0.00  0.00    +0.000 A 
ATOM     17  S   UNL     1      53.938   3.445  19.578  0.00  0.00    +0.000 S 
ATOM     18  C   UNL     1      52.968   4.839  19.571  0.00  0.00    +0.000 A 
ATOM     19  C   UNL     1      51.797   4.713  18.830  0.00  0.00    +0.000 A 
ATOM     20  C   UNL     1      51.722   3.379  18.237  0.00  0.00    +0.000 A 
BRANCH  12  22
ATOM     21  C   UNL     1      48.524   3.080  17.737  0.00  0.00    +0.000 C 
ATOM     22  O   UNL     1      49.678   3.320  16.930  0.00  0.00    +0.000 OA
ENDBRANCH  12  22
ENDBRANCH   8  19
ENDBRANCH   7  10
ENDBRANCH   1   7
BRANCH   4  23
ATOM     23  O   UNL     1      47.883   8.556  12.795  0.00  0.00    +0.000 OA
BRANCH  23  24
ATOM     24  C   UNL     1      46.503   8.938  12.839  0.00  0.00    +0.000 C 
BRANCH  24  25
ATOM     25  C   UNL     1      45.671   7.699  12.459  0.00  0.00    +0.000 C 
BRANCH  25  26
ATOM     26  N   UNL     1      46.435   6.483  12.117  0.00  0.00    +0.000 NA
ATOM     27  C   UNL     1      46.005   5.953  10.794  0.00  0.00    +0.000 C 
ATOM     28  C   UNL     1      44.606   5.294  10.778  0.00  0.00    +0.000 C 
ATOM     29  N   UNL     1      44.452   4.307  11.853  0.00  0.00    +0.000 N 
ATOM     30  C   UNL     1      43.823   3.122  11.572  0.00  0.00    +0.000 C 
ATOM     31  N   UNL     1      43.731   2.225  12.582  0.00  0.00    +0.000 N 
ATOM     32  O   UNL     1      43.383   2.815  10.470  0.00  0.00    +0.000 OA
ATOM     33  C   UNL     1      44.898   4.761  13.172  0.00  0.00    +0.000 C 
ATOM     34  C   UNL     1      46.300   5.390  13.104  0.00  0.00    +0.000 C 
ATOM     35  H   UNL     1      43.584   2.546  13.524  0.00  0.00    +0.000 HD
ATOM     36  H   UNL     1      43.193   1.406  12.329  0.00  0.00    +0.000 HD
ENDBRANCH  25  26
ENDBRANCH  24  25
ENDBRANCH  23  24
ENDBRANCH   4  23
TORSDOF 8
ENDMDL
MODEL 8
REMARK VINA RESULT:    -6.569      3.025      8.724
REMARK INTER + INTRA:         -10.774
REMARK INTER:                  -9.385
REMARK INTRA:                  -1.389
REMARK UNBOUND:                -1.132
REMARK  Name = 
REMARK  9 active torsions:
REMARK  status: ('A' for Active; 'I' for Inactive)
REMARK    1  A    between atoms: C_1  and  O_2
REMARK    2  A    between atoms: O_2  and  C_3
REMARK    3  A    between atoms: C_10  and  C_11
REMARK    4  A    between atoms: N_13  and  C_14
REMARK    5  A    between atoms: C_14  and  C_15
REMARK    6  A    between atoms: C_18  and  O_19
REMARK    7  A    between atoms: O_19  and  C_20
REMARK    8  A    between atoms: C_20  and  C_21
REMARK    9  A    between atoms: C_21  and  N_22
REMARK                            x       y       z     vdW  Elec       q    Type
REMARK                         _______ _______ _______ _____ _____    ______ ____
ROOT
ATOM      1  C   UNL     1      48.485   8.223  13.360  0.00  0.00    +0.000 A 
ATOM      2  C   UNL     1      49.676   7.550  13.671  0.00  0.00    +0.000 A 
ATOM      3  C   UNL     1      50.254   7.665  14.943  0.00  0.00    +0.000 A 
ATOM      4  C   UNL     1      49.652   8.466  15.913  0.00  0.00    +0.000 A 
ATOM      5  C   UNL     1      48.480   9.155  15.601  0.00  0.00    +0.000 A 
ATOM      6  C   UNL     1      47.899   9.040  14.336  0.00  0.00    +0.000 A 
ENDROOT
BRANCH   1   7
ATOM      7  C   UNL     1      47.800   8.005  12.036  0.00  0.00    +0.000 C 
BRANCH   7  10
ATOM      8  C   UNL     1      45.731   6.730  11.687  0.00  0.00    +0.000 C 
ATOM      9  O   UNL     1      45.138   7.763  11.365  0.00  0.00    +0.000 OA
ATOM     10  N   UNL     1      47.052   6.767  12.041  0.00  0.00    +0.000 N 
ATOM     11  H   UNL     1      47.522   5.924  12.344  0.00  0.00    +0.000 HD
BRANCH   8  19
ATOM     12  C   UNL     1      45.301   4.224   9.344  0.00  0.00    +0.000 A 
ATOM     13  N   UNL     1      44.945   3.126   8.642  0.00  0.00    +0.000 NA
ATOM     14  C   UNL     1      44.201   2.198   9.246  0.00  0.00    +0.000 A 
ATOM     15  N   UNL     1      43.747   2.231  10.493  0.00  0.00    +0.000 NA
ATOM     16  C   UNL     1      44.108   3.341  11.158  0.00  0.00    +0.000 A 
ATOM     17  S   UNL     1      43.612   3.541  12.769  0.00  0.00    +0.000 S 
ATOM     18  C   UNL     1      44.393   5.045  12.870  0.00  0.00    +0.000 A 
ATOM     19  C   UNL     1      45.043   5.429  11.700  0.00  0.00    +0.000 A 
ATOM     20  C   UNL     1      44.878   4.398  10.677  0.00  0.00    +0.000 A 
BRANCH  12  22
ATOM     21  C   UNL     1      46.812   4.638   7.602  0.00  0.00    +0.000 C 
ATOM     22  O   UNL     1      46.105   5.161   8.727  0.00  0.00    +0.000 OA
ENDBRANCH  12  22
ENDBRANCH   8  19
ENDBRANCH   7  10
ENDBRANCH   1   7
BRANCH   4  23
ATOM     23  O   UNL     1      50.085   8.615  17.202  0.00  0.00    +0.000 OA
BRANCH  23  24
ATOM     24  C   UNL     1      49.188   8.186  18.235  0.00  0.00    +0.000 C 
BRANCH  24  25
ATOM     25  C   UNL     1      49.704   6.833  18.757  0.00  0.00    +0.000 C 
BRANCH  25  26
ATOM     26  N   UNL     1      48.676   5.819  19.065  0.00  0.00    +0.000 NA
ATOM     27  C   UNL     1      49.295   4.471  19.190  0.00  0.00    +0.000 C 
ATOM     28  C   UNL     1      49.769   3.845  17.857  0.00  0.00    +0.000 C 
ATOM     29  N   UNL     1      48.723   3.887  16.828  0.00  0.00    +0.000 N 
ATOM     30  C   UNL     1      48.541   2.789  16.030  0.00  0.00    +0.000 C 
ATOM     31  N   UNL     1      47.544   2.855  15.115  0.00  0.00    +0.000 N 
ATOM     32  O   UNL     1      49.188   1.751  16.120  0.00  0.00    +0.000 OA
ATOM     33  C   UNL     1      48.051   5.182  16.689  0.00  0.00    +0.000 C 
ATOM     34  C   UNL     1      47.600   5.728  18.054  0.00  0.00    +0.000 C 
ATOM     35  H   UNL     1      47.350   3.726  14.652  0.00  0.00    +0.000 HD
ATOM     36  H   UNL     1      47.512   2.043  14.513  0.00  0.00    +0.000 HD
ENDBRANCH  25  26
ENDBRANCH  24  25
ENDBRANCH  23  24
ENDBRANCH   4  23
TORSDOF 8
ENDMDL
MODEL 9
REMARK VINA RESULT:    -6.370      4.244      9.101
REMARK INTER + INTRA:         -10.481
REMARK INTER:                  -8.507
REMARK INTRA:                  -1.974
REMARK UNBOUND:                -1.132
REMARK  Name = 
REMARK  9 active torsions:
REMARK  status: ('A' for Active; 'I' for Inactive)
REMARK    1  A    between atoms: C_1  and  O_2
REMARK    2  A    between atoms: O_2  and  C_3
REMARK    3  A    between atoms: C_10  and  C_11
REMARK    4  A    between atoms: N_13  and  C_14
REMARK    5  A    between atoms: C_14  and  C_15
REMARK    6  A    between atoms: C_18  and  O_19
REMARK    7  A    between atoms: O_19  and  C_20
REMARK    8  A    between atoms: C_20  and  C_21
REMARK    9  A    between atoms: C_21  and  N_22
REMARK                            x       y       z     vdW  Elec       q    Type
REMARK                         _______ _______ _______ _____ _____    ______ ____
ROOT
ATOM      1  C   UNL     1      48.756   3.330  17.326  0.00  0.00    +0.000 A 
ATOM      2  C   UNL     1      49.534   4.363  17.870  0.00  0.00    +0.000 A 
ATOM      3  C   UNL     1      50.915   4.205  18.050  0.00  0.00    +0.000 A 
ATOM      4  C   UNL     1      51.530   3.003  17.701  0.00  0.00    +0.000 A 
ATOM      5  C   UNL     1      50.758   1.964  17.181  0.00  0.00    +0.000 A 
ATOM      6  C   UNL     1      49.382   2.121  16.995  0.00  0.00    +0.000 A 
ENDROOT
BRANCH   1   7
ATOM      7  C   UNL     1      47.297   3.543  17.020  0.00  0.00    +0.000 C 
BRANCH   7  10
ATOM      8  C   UNL     1      47.144   4.118  14.638  0.00  0.00    +0.000 C 
ATOM      9  O   UNL     1      47.316   2.935  14.332  0.00  0.00    +0.000 OA
ATOM     10  N   UNL     1      47.130   4.502  15.951  0.00  0.00    +0.000 N 
ATOM     11  H   UNL     1      47.031   5.479  16.194  0.00  0.00    +0.000 HD
BRANCH   8  19
ATOM     12  C   UNL     1      48.636   7.171  13.996  0.00  0.00    +0.000 A 
ATOM     13  N   UNL     1      48.997   8.387  13.532  0.00  0.00    +0.000 NA
ATOM     14  C   UNL     1      48.367   8.873  12.461  0.00  0.00    +0.000 A 
ATOM     15  N   UNL     1      47.390   8.286  11.780  0.00  0.00    +0.000 NA
ATOM     16  C   UNL     1      47.047   7.085  12.275  0.00  0.00    +0.000 A 
ATOM     17  S   UNL     1      45.813   6.198  11.519  0.00  0.00    +0.000 S 
ATOM     18  C   UNL     1      45.970   4.936  12.643  0.00  0.00    +0.000 A 
ATOM     19  C   UNL     1      46.950   5.151  13.607  0.00  0.00    +0.000 A 
ATOM     20  C   UNL     1      47.602   6.439  13.377  0.00  0.00    +0.000 A 
BRANCH  12  22
ATOM     21  C   UNL     1      49.392   7.563  16.179  0.00  0.00    +0.000 C 
ATOM     22  O   UNL     1      49.319   6.655  15.078  0.00  0.00    +0.000 OA
ENDBRANCH  12  22
ENDBRANCH   8  19
ENDBRANCH   7  10
ENDBRANCH   1   7
BRANCH   4  23
ATOM     23  O   UNL     1      52.871   2.744  17.775  0.00  0.00    +0.000 OA
BRANCH  23  24
ATOM     24  C   UNL     1      53.686   3.751  18.389  0.00  0.00    +0.000 C 
BRANCH  24  25
ATOM     25  C   UNL     1      54.613   4.319  17.298  0.00  0.00    +0.000 C 
BRANCH  25  26
ATOM     26  N   UNL     1      54.962   5.748  17.421  0.00  0.00    +0.000 NA
ATOM     27  C   UNL     1      53.730   6.579  17.514  0.00  0.00    +0.000 C 
ATOM     28  C   UNL     1      52.927   6.704  16.198  0.00  0.00    +0.000 C 
ATOM     29  N   UNL     1      53.781   7.094  15.069  0.00  0.00    +0.000 N 
ATOM     30  C   UNL     1      53.311   8.024  14.180  0.00  0.00    +0.000 C 
ATOM     31  N   UNL     1      54.142   8.381  13.171  0.00  0.00    +0.000 N 
ATOM     32  O   UNL     1      52.218   8.573  14.264  0.00  0.00    +0.000 OA
ATOM     33  C   UNL     1      55.029   6.335  14.952  0.00  0.00    +0.000 C 
ATOM     34  C   UNL     1      55.771   6.269  16.298  0.00  0.00    +0.000 C 
ATOM     35  H   UNL     1      54.744   7.692  12.754  0.00  0.00    +0.000 HD
ATOM     36  H   UNL     1      53.707   9.013  12.512  0.00  0.00    +0.000 HD
ENDBRANCH  25  26
ENDBRANCH  24  25
ENDBRANCH  23  24
ENDBRANCH   4  23
TORSDOF 8
ENDMDL
