MODEL 1
REMARK VINA RESULT:    -7.534      0.000      0.000
REMARK INTER + INTRA:         -13.309
REMARK INTER:                 -11.719
REMARK INTRA:                  -1.590
REMARK UNBOUND:                -1.590
REMARK  Name = 
REMARK  11 active torsions:
REMARK  status: ('A' for Active; 'I' for Inactive)
REMARK    1  A    between atoms: C_1  and  C_2
REMARK    2  A    between atoms: C_2  and  C_3
REMARK    3  A    between atoms: C_3  and  N_4
REMARK    4  A    between atoms: C_3  and  C_20
REMARK    5  A    between atoms: N_4  and  C_5
REMARK    6  A    between atoms: C_5  and  C_6
REMARK    7  A    between atoms: C_9  and  C_10
REMARK    8  A    between atoms: C_10  and  O_11
REMARK    9  A    between atoms: C_10  and  C_12
REMARK   10  A    between atoms: C_12  and  N_13
REMARK   11  A    between atoms: C_20  and  C_22
REMARK                            x       y       z     vdW  Elec       q    Type
REMARK                         _______ _______ _______ _____ _____    ______ ____
ROOT
ATOM      1  N   UNL     1      46.733   6.593  11.730  0.00  0.00    +0.000 NA
ATOM      2  H   UNL     1      47.119   6.338  10.823  0.00  0.00    +0.000 HD
ENDROOT
BRANCH   1   3
ATOM      3  C   UNL     1      45.567   7.484  11.544  0.00  0.00    +0.000 C 
BRANCH   3   5
ATOM      4  C   UNL     1      45.282   9.977  12.160  0.00  0.00    +0.000 C 
ATOM      5  C   UNL     1      45.390   8.542  12.655  0.00  0.00    +0.000 C 
ENDBRANCH   3   5
BRANCH   3   6
ATOM      6  C   UNL     1      44.240   6.705  11.315  0.00  0.00    +0.000 C 
ATOM      7  O   UNL     1      43.194   7.318  11.084  0.00  0.00    +0.000 OA
BRANCH   6   8
ATOM      8  C   UNL     1      44.206   5.233  11.397  0.00  0.00    +0.000 A 
ATOM      9  C   UNL     1      43.713   4.517  12.474  0.00  0.00    +0.000 A 
ATOM     10  S   UNL     1      43.547   2.845  12.154  0.00  0.00    +0.000 S 
ATOM     11  C   UNL     1      44.192   3.023  10.590  0.00  0.00    +0.000 A 
ATOM     12  N   UNL     1      44.279   1.968   9.735  0.00  0.00    +0.000 NA
ATOM     13  C   UNL     1      44.794   2.261   8.587  0.00  0.00    +0.000 A 
ATOM     14  N   UNL     1      45.262   3.500   8.228  0.00  0.00    +0.000 N 
ATOM     15  C   UNL     1      45.315   4.559   9.110  0.00  0.00    +0.000 A 
ATOM     16  O   UNL     1      46.006   5.545   8.877  0.00  0.00    +0.000 OA
ATOM     17  C   UNL     1      44.601   4.321  10.350  0.00  0.00    +0.000 A 
ATOM     18  H   UNL     1      45.758   3.627   7.359  0.00  0.00    +0.000 HD
ENDBRANCH   6   8
ENDBRANCH   3   6
ENDBRANCH   1   3
BRANCH   1  19
ATOM     19  C   UNL     1      47.811   7.119  12.565  0.00  0.00    +0.000 C 
BRANCH  19  20
ATOM     20  C   UNL     1      47.835   6.374  13.886  0.00  0.00    +0.000 A 
ATOM     21  C   UNL     1      48.641   6.807  14.947  0.00  0.00    +0.000 A 
ATOM     22  C   UNL     1      48.701   6.075  16.142  0.00  0.00    +0.000 A 
ATOM     23  C   UNL     1      47.965   4.888  16.301  0.00  0.00    +0.000 A 
ATOM     24  C   UNL     1      47.147   4.477  15.240  0.00  0.00    +0.000 A 
ATOM     25  C   UNL     1      47.091   5.199  14.048  0.00  0.00    +0.000 A 
BRANCH  23  26
ATOM     26  C   UNL     1      48.064   4.111  17.604  0.00  0.00    +0.000 C 
BRANCH  26  27
ATOM     27  O   UNL     1      46.738   3.764  18.025  0.00  0.00    +0.000 OA
ATOM     28  H   UNL     1      46.567   2.861  17.704  0.00  0.00    +0.000 HD
ENDBRANCH  26  27
BRANCH  26  29
ATOM     29  C   UNL     1      48.906   2.802  17.564  0.00  0.00    +0.000 C 
BRANCH  29  30
ATOM     30  N   UNL     1      50.297   2.952  17.114  0.00  0.00    +0.000 NA
ATOM     31  C   UNL     1      51.066   3.886  17.950  0.00  0.00    +0.000 C 
ATOM     32  C   UNL     1      52.371   3.156  18.223  0.00  0.00    +0.000 C 
ATOM     33  N   UNL     1      51.961   1.750  18.229  0.00  0.00    +0.000 NA
ATOM     34  C   UNL     1      51.024   1.689  17.115  0.00  0.00    +0.000 C 
ATOM     35  H   UNL     1      51.421   1.577  19.074  0.00  0.00    +0.000 HD
ENDBRANCH  29  30
ENDBRANCH  26  29
ENDBRANCH  23  26
ENDBRANCH  19  20
ENDBRANCH   1  19
TORSDOF 10
ENDMDL
MODEL 2
REMARK VINA RESULT:    -7.345      2.698      8.772
REMARK INTER + INTRA:         -13.015
REMARK INTER:                 -12.196
REMARK INTRA:                  -0.819
REMARK UNBOUND:                -1.590
REMARK  Name = 
REMARK  11 active torsions:
REMARK  status: ('A' for Active; 'I' for Inactive)
REMARK    1  A    between atoms: C_1  and  C_2
REMARK    2  A    between atoms: C_2  and  C_3
REMARK    3  A    between atoms: C_3  and  N_4
REMARK    4  A    between atoms: C_3  and  C_20
REMARK    5  A    between atoms: N_4  and  C_5
REMARK    6  A    between atoms: C_5  and  C_6
REMARK    7  A    between atoms: C_9  and  C_10
REMARK    8  A    between atoms: C_10  and  O_11
REMARK    9  A    between atoms: C_10  and  C_12
REMARK   10  A    between atoms: C_12  and  N_13
REMARK   11  A    between atoms: C_20  and  C_22
REMARK                            x       y       z     vdW  Elec       q    Type
REMARK                         _______ _______ _______ _____ _____    ______ ____
ROOT
ATOM      1  N   UNL     1      48.247   5.153  15.572  0.00  0.00    +0.000 NA
ATOM      2  H   UNL     1      47.554   4.433  15.371  0.00  0.00    +0.000 HD
ENDROOT
BRANCH   1   3
ATOM      3  C   UNL     1      48.190   5.513  17.006  0.00  0.00    +0.000 C 
BRANCH   3   5
ATOM      4  C   UNL     1      48.166   7.578  18.557  0.00  0.00    +0.000 C 
ATOM      5  C   UNL     1      48.774   6.904  17.336  0.00  0.00    +0.000 C 
ENDBRANCH   3   5
BRANCH   3   6
ATOM      6  C   UNL     1      48.814   4.426  17.928  0.00  0.00    +0.000 C 
ATOM      7  O   UNL     1      48.085   3.698  18.606  0.00  0.00    +0.000 OA
BRANCH   6   8
ATOM      8  C   UNL     1      50.277   4.269  18.025  0.00  0.00    +0.000 A 
ATOM      9  C   UNL     1      51.139   5.226  18.529  0.00  0.00    +0.000 A 
ATOM     10  S   UNL     1      52.728   4.643  18.774  0.00  0.00    +0.000 S 
ATOM     11  C   UNL     1      52.323   3.113  18.152  0.00  0.00    +0.000 A 
ATOM     12  N   UNL     1      53.226   2.096  18.128  0.00  0.00    +0.000 NA
ATOM     13  C   UNL     1      52.770   0.997  17.624  0.00  0.00    +0.000 A 
ATOM     14  N   UNL     1      51.509   0.832  17.108  0.00  0.00    +0.000 N 
ATOM     15  C   UNL     1      50.611   1.874  16.991  0.00  0.00    +0.000 A 
ATOM     16  O   UNL     1      49.629   1.786  16.263  0.00  0.00    +0.000 OA
ATOM     17  C   UNL     1      51.021   3.077  17.691  0.00  0.00    +0.000 A 
ATOM     18  H   UNL     1      51.261  -0.017  16.624  0.00  0.00    +0.000 HD
ENDBRANCH   6   8
ENDBRANCH   3   6
ENDBRANCH   1   3
BRANCH   1  19
ATOM     19  C   UNL     1      48.063   6.255  14.630  0.00  0.00    +0.000 C 
BRANCH  19  20
ATOM     20  C   UNL     1      47.171   5.801  13.491  0.00  0.00    +0.000 A 
ATOM     21  C   UNL     1      47.059   6.554  12.314  0.00  0.00    +0.000 A 
ATOM     22  C   UNL     1      46.184   6.155  11.293  0.00  0.00    +0.000 A 
ATOM     23  C   UNL     1      45.394   5.000  11.426  0.00  0.00    +0.000 A 
ATOM     24  C   UNL     1      45.531   4.245  12.598  0.00  0.00    +0.000 A 
ATOM     25  C   UNL     1      46.394   4.642  13.619  0.00  0.00    +0.000 A 
BRANCH  23  26
ATOM     26  C   UNL     1      44.446   4.604  10.306  0.00  0.00    +0.000 C 
BRANCH  26  27
ATOM     27  O   UNL     1      43.298   5.461  10.361  0.00  0.00    +0.000 OA
ATOM     28  H   UNL     1      43.298   5.988   9.543  0.00  0.00    +0.000 HD
ENDBRANCH  26  27
BRANCH  26  29
ATOM     29  C   UNL     1      45.020   4.677   8.860  0.00  0.00    +0.000 C 
BRANCH  29  30
ATOM     30  N   UNL     1      44.954   3.430   8.085  0.00  0.00    +0.000 NA
ATOM     31  C   UNL     1      46.245   3.069   7.480  0.00  0.00    +0.000 C 
ATOM     32  C   UNL     1      46.409   1.592   7.800  0.00  0.00    +0.000 C 
ATOM     33  N   UNL     1      45.716   1.460   9.084  0.00  0.00    +0.000 NA
ATOM     34  C   UNL     1      44.535   2.292   8.893  0.00  0.00    +0.000 C 
ATOM     35  H   UNL     1      46.279   1.914   9.800  0.00  0.00    +0.000 HD
ENDBRANCH  29  30
ENDBRANCH  26  29
ENDBRANCH  23  26
ENDBRANCH  19  20
ENDBRANCH   1  19
TORSDOF 10
ENDMDL
MODEL 3
REMARK VINA RESULT:    -7.183      2.972      7.438
REMARK INTER + INTRA:         -12.763
REMARK INTER:                 -11.257
REMARK INTRA:                  -1.506
REMARK UNBOUND:                -1.590
REMARK  Name = 
REMARK  11 active torsions:
REMARK  status: ('A' for Active; 'I' for Inactive)
REMARK    1  A    between atoms: C_1  and  C_2
REMARK    2  A    between atoms: C_2  and  C_3
REMARK    3  A    between atoms: C_3  and  N_4
REMARK    4  A    between atoms: C_3  and  C_20
REMARK    5  A    between atoms: N_4  and  C_5
REMARK    6  A    between atoms: C_5  and  C_6
REMARK    7  A    between atoms: C_9  and  C_10
REMARK    8  A    between atoms: C_10  and  O_11
REMARK    9  A    between atoms: C_10  and  C_12
REMARK   10  A    between atoms: C_12  and  N_13
REMARK   11  A    between atoms: C_20  and  C_22
REMARK                            x       y       z     vdW  Elec       q    Type
REMARK                         _______ _______ _______ _____ _____    ______ ____
ROOT
ATOM      1  N   UNL     1      46.345   8.473  13.836  0.00  0.00    +0.000 NA
ATOM      2  H   UNL     1      46.030   9.153  14.527  0.00  0.00    +0.000 HD
ENDROOT
BRANCH   1   3
ATOM      3  C   UNL     1      47.743   8.765  13.451  0.00  0.00    +0.000 C 
BRANCH   3   5
ATOM      4  C   UNL     1      49.167  10.190  11.833  0.00  0.00    +0.000 C 
ATOM      5  C   UNL     1      47.901   9.370  12.039  0.00  0.00    +0.000 C 
ENDBRANCH   3   5
BRANCH   3   6
ATOM      6  C   UNL     1      48.687   7.542  13.629  0.00  0.00    +0.000 C 
ATOM      7  O   UNL     1      49.215   7.019  12.644  0.00  0.00    +0.000 OA
BRANCH   6   8
ATOM      8  C   UNL     1      48.943   6.975  14.967  0.00  0.00    +0.000 A 
ATOM      9  C   UNL     1      49.768   7.549  15.918  0.00  0.00    +0.000 A 
ATOM     10  S   UNL     1      49.636   6.813  17.457  0.00  0.00    +0.000 S 
ATOM     11  C   UNL     1      48.522   5.667  16.876  0.00  0.00    +0.000 A 
ATOM     12  N   UNL     1      47.949   4.753  17.705  0.00  0.00    +0.000 NA
ATOM     13  C   UNL     1      47.127   3.949  17.116  0.00  0.00    +0.000 A 
ATOM     14  N   UNL     1      46.854   3.950  15.771  0.00  0.00    +0.000 N 
ATOM     15  C   UNL     1      47.514   4.770  14.878  0.00  0.00    +0.000 A 
ATOM     16  O   UNL     1      47.485   4.549  13.673  0.00  0.00    +0.000 OA
ATOM     17  C   UNL     1      48.320   5.795  15.515  0.00  0.00    +0.000 A 
ATOM     18  H   UNL     1      46.292   3.218  15.362  0.00  0.00    +0.000 HD
ENDBRANCH   6   8
ENDBRANCH   3   6
ENDBRANCH   1   3
BRANCH   1  19
ATOM     19  C   UNL     1      45.376   8.437  12.743  0.00  0.00    +0.000 C 
BRANCH  19  20
ATOM     20  C   UNL     1      45.261   7.018  12.218  0.00  0.00    +0.000 A 
ATOM     21  C   UNL     1      45.876   6.638  11.017  0.00  0.00    +0.000 A 
ATOM     22  C   UNL     1      45.712   5.340  10.512  0.00  0.00    +0.000 A 
ATOM     23  C   UNL     1      44.923   4.394  11.189  0.00  0.00    +0.000 A 
ATOM     24  C   UNL     1      44.331   4.780  12.399  0.00  0.00    +0.000 A 
ATOM     25  C   UNL     1      44.486   6.072  12.901  0.00  0.00    +0.000 A 
BRANCH  23  26
ATOM     26  C   UNL     1      44.755   3.000  10.606  0.00  0.00    +0.000 C 
BRANCH  26  27
ATOM     27  O   UNL     1      43.480   2.489  11.017  0.00  0.00    +0.000 OA
ATOM     28  H   UNL     1      42.808   2.933  10.470  0.00  0.00    +0.000 HD
ENDBRANCH  26  27
BRANCH  26  29
ATOM     29  C   UNL     1      44.832   2.888   9.054  0.00  0.00    +0.000 C 
BRANCH  29  30
ATOM     30  N   UNL     1      46.182   2.745   8.492  0.00  0.00    +0.000 NA
ATOM     31  C   UNL     1      46.425   1.406   7.935  0.00  0.00    +0.000 C 
ATOM     32  C   UNL     1      47.062   1.674   6.581  0.00  0.00    +0.000 C 
ATOM     33  N   UNL     1      46.447   2.942   6.179  0.00  0.00    +0.000 NA
ATOM     34  C   UNL     1      46.446   3.700   7.423  0.00  0.00    +0.000 C 
ATOM     35  H   UNL     1      45.473   2.765   5.944  0.00  0.00    +0.000 HD
ENDBRANCH  29  30
ENDBRANCH  26  29
ENDBRANCH  23  26
ENDBRANCH  19  20
ENDBRANCH   1  19
TORSDOF 10
ENDMDL
MODEL 4
REMARK VINA RESULT:    -7.130      2.325      8.016
REMARK INTER + INTRA:         -12.679
REMARK INTER:                 -11.000
REMARK INTRA:                  -1.679
REMARK UNBOUND:                -1.590
REMARK  Name = 
REMARK  11 active torsions:
REMARK  status: ('A' for Active; 'I' for Inactive)
REMARK    1  A    between atoms: C_1  and  C_2
REMARK    2  A    between atoms: C_2  and  C_3
REMARK    3  A    between atoms: C_3  and  N_4
REMARK    4  A    between atoms: C_3  and  C_20
REMARK    5  A    between atoms: N_4  and  C_5
REMARK    6  A    between atoms: C_5  and  C_6
REMARK    7  A    between atoms: C_9  and  C_10
REMARK    8  A    between atoms: C_10  and  O_11
REMARK    9  A    between atoms: C_10  and  C_12
REMARK   10  A    between atoms: C_12  and  N_13
REMARK   11  A    between atoms: C_20  and  C_22
REMARK                            x       y       z     vdW  Elec       q    Type
REMARK                         _______ _______ _______ _____ _____    ______ ____
ROOT
ATOM      1  N   UNL     1      49.440   6.517  15.080  0.00  0.00    +0.000 NA
ATOM      2  H   UNL     1      48.892   5.693  15.322  0.00  0.00    +0.000 HD
ENDROOT
BRANCH   1   3
ATOM      3  C   UNL     1      49.554   7.405  16.258  0.00  0.00    +0.000 C 
BRANCH   3   5
ATOM      4  C   UNL     1      52.100   7.317  15.829  0.00  0.00    +0.000 C 
ATOM      5  C   UNL     1      50.926   8.099  16.401  0.00  0.00    +0.000 C 
ENDBRANCH   3   5
BRANCH   3   6
ATOM      6  C   UNL     1      49.158   6.701  17.587  0.00  0.00    +0.000 C 
ATOM      7  O   UNL     1      49.181   7.327  18.650  0.00  0.00    +0.000 OA
BRANCH   6   8
ATOM      8  C   UNL     1      48.776   5.276  17.601  0.00  0.00    +0.000 A 
ATOM      9  C   UNL     1      47.475   4.810  17.533  0.00  0.00    +0.000 A 
ATOM     10  S   UNL     1      47.374   3.121  17.282  0.00  0.00    +0.000 S 
ATOM     11  C   UNL     1      49.067   2.958  17.321  0.00  0.00    +0.000 A 
ATOM     12  N   UNL     1      49.667   1.756  17.108  0.00  0.00    +0.000 NA
ATOM     13  C   UNL     1      50.957   1.792  17.173  0.00  0.00    +0.000 A 
ATOM     14  N   UNL     1      51.699   2.909  17.468  0.00  0.00    +0.000 N 
ATOM     15  C   UNL     1      51.123   4.111  17.823  0.00  0.00    +0.000 A 
ATOM     16  O   UNL     1      51.778   4.990  18.373  0.00  0.00    +0.000 OA
ATOM     17  C   UNL     1      49.690   4.158  17.604  0.00  0.00    +0.000 A 
ATOM     18  H   UNL     1      52.694   2.837  17.618  0.00  0.00    +0.000 HD
ENDBRANCH   6   8
ENDBRANCH   3   6
ENDBRANCH   1   3
BRANCH   1  19
ATOM     19  C   UNL     1      48.868   7.123  13.879  0.00  0.00    +0.000 C 
BRANCH  19  20
ATOM     20  C   UNL     1      47.524   6.485  13.583  0.00  0.00    +0.000 A 
ATOM     21  C   UNL     1      46.488   7.220  12.993  0.00  0.00    +0.000 A 
ATOM     22  C   UNL     1      45.230   6.636  12.781  0.00  0.00    +0.000 A 
ATOM     23  C   UNL     1      44.976   5.306  13.161  0.00  0.00    +0.000 A 
ATOM     24  C   UNL     1      46.028   4.576  13.731  0.00  0.00    +0.000 A 
ATOM     25  C   UNL     1      47.277   5.156  13.950  0.00  0.00    +0.000 A 
BRANCH  23  26
ATOM     26  C   UNL     1      43.598   4.709  12.929  0.00  0.00    +0.000 C 
BRANCH  26  27
ATOM     27  O   UNL     1      42.614   5.672  13.330  0.00  0.00    +0.000 OA
ATOM     28  H   UNL     1      42.814   5.913  14.252  0.00  0.00    +0.000 HD
ENDBRANCH  26  27
BRANCH  26  29
ATOM     29  C   UNL     1      43.270   4.278  11.469  0.00  0.00    +0.000 C 
BRANCH  29  30
ATOM     30  N   UNL     1      44.420   3.856  10.656  0.00  0.00    +0.000 NA
ATOM     31  C   UNL     1      44.239   2.520  10.070  0.00  0.00    +0.000 C 
ATOM     32  C   UNL     1      44.650   2.690   8.616  0.00  0.00    +0.000 C 
ATOM     33  N   UNL     1      44.278   4.079   8.334  0.00  0.00    +0.000 NA
ATOM     34  C   UNL     1      44.687   4.768   9.551  0.00  0.00    +0.000 C 
ATOM     35  H   UNL     1      43.263   4.135   8.293  0.00  0.00    +0.000 HD
ENDBRANCH  29  30
ENDBRANCH  26  29
ENDBRANCH  23  26
ENDBRANCH  19  20
ENDBRANCH   1  19
TORSDOF 10
ENDMDL
MODEL 5
REMARK VINA RESULT:    -6.459      3.270      8.212
REMARK INTER + INTRA:         -11.637
REMARK INTER:                 -10.336
REMARK INTRA:                  -1.301
REMARK UNBOUND:                -1.590
REMARK  Name = 
REMARK  11 active torsions:
REMARK  status: ('A' for Active; 'I' for Inactive)
REMARK    1  A    between atoms: C_1  and  C_2
REMARK    2  A    between atoms: C_2  and  C_3
REMARK    3  A    between atoms: C_3  and  N_4
REMARK    4  A    between atoms: C_3  and  C_20
REMARK    5  A    between atoms: N_4  and  C_5
REMARK    6  A    between atoms: C_5  and  C_6
REMARK    7  A    between atoms: C_9  and  C_10
REMARK    8  A    between atoms: C_10  and  O_11
REMARK    9  A    between atoms: C_10  and  C_12
REMARK   10  A    between atoms: C_12  and  N_13
REMARK   11  A    between atoms: C_20  and  C_22
REMARK                            x       y       z     vdW  Elec       q    Type
REMARK                         _______ _______ _______ _____ _____    ______ ____
ROOT
ATOM      1  N   UNL     1      49.774   6.969  13.886  0.00  0.00    +0.000 NA
ATOM      2  H   UNL     1      49.323   6.201  14.379  0.00  0.00    +0.000 HD
ENDROOT
BRANCH   1   3
ATOM      3  C   UNL     1      50.545   7.793  14.843  0.00  0.00    +0.000 C 
BRANCH   3   5
ATOM      4  C   UNL     1      51.903   9.986  14.704  0.00  0.00    +0.000 C 
ATOM      5  C   UNL     1      51.732   8.555  14.215  0.00  0.00    +0.000 C 
ENDBRANCH   3   5
BRANCH   3   6
ATOM      6  C   UNL     1      51.010   6.992  16.093  0.00  0.00    +0.000 C 
ATOM      7  O   UNL     1      51.951   6.200  16.005  0.00  0.00    +0.000 OA
BRANCH   6   8
ATOM      8  C   UNL     1      50.319   7.147  17.388  0.00  0.00    +0.000 A 
ATOM      9  C   UNL     1      50.667   8.068  18.359  0.00  0.00    +0.000 A 
ATOM     10  S   UNL     1      49.511   8.198  19.613  0.00  0.00    +0.000 S 
ATOM     11  C   UNL     1      48.545   6.978  18.924  0.00  0.00    +0.000 A 
ATOM     12  N   UNL     1      47.351   6.626  19.473  0.00  0.00    +0.000 NA
ATOM     13  C   UNL     1      46.736   5.684  18.838  0.00  0.00    +0.000 A 
ATOM     14  N   UNL     1      47.222   5.036  17.729  0.00  0.00    +0.000 N 
ATOM     15  C   UNL     1      48.485   5.270  17.225  0.00  0.00    +0.000 A 
ATOM     16  O   UNL     1      49.012   4.484  16.445  0.00  0.00    +0.000 OA
ATOM     17  C   UNL     1      49.138   6.428  17.804  0.00  0.00    +0.000 A 
ATOM     18  H   UNL     1      46.743   4.230  17.357  0.00  0.00    +0.000 HD
ENDBRANCH   6   8
ENDBRANCH   3   6
ENDBRANCH   1   3
BRANCH   1  19
ATOM     19  C   UNL     1      48.765   7.679  13.103  0.00  0.00    +0.000 C 
BRANCH  19  20
ATOM     20  C   UNL     1      47.460   6.907  13.144  0.00  0.00    +0.000 A 
ATOM     21  C   UNL     1      47.420   5.575  13.576  0.00  0.00    +0.000 A 
ATOM     22  C   UNL     1      46.217   4.853  13.552  0.00  0.00    +0.000 A 
ATOM     23  C   UNL     1      45.028   5.444  13.088  0.00  0.00    +0.000 A 
ATOM     24  C   UNL     1      45.078   6.783  12.680  0.00  0.00    +0.000 A 
ATOM     25  C   UNL     1      46.273   7.501  12.695  0.00  0.00    +0.000 A 
BRANCH  23  26
ATOM     26  C   UNL     1      43.745   4.629  13.063  0.00  0.00    +0.000 C 
BRANCH  26  27
ATOM     27  O   UNL     1      42.652   5.497  13.393  0.00  0.00    +0.000 OA
ATOM     28  H   UNL     1      41.988   4.953  13.853  0.00  0.00    +0.000 HD
ENDBRANCH  26  27
BRANCH  26  29
ATOM     29  C   UNL     1      43.401   3.926  11.717  0.00  0.00    +0.000 C 
BRANCH  29  30
ATOM     30  N   UNL     1      44.514   3.791  10.766  0.00  0.00    +0.000 NA
ATOM     31  C   UNL     1      44.514   2.494  10.074  0.00  0.00    +0.000 C 
ATOM     32  C   UNL     1      44.730   2.849   8.612  0.00  0.00    +0.000 C 
ATOM     33  N   UNL     1      44.087   4.161   8.499  0.00  0.00    +0.000 NA
ATOM     34  C   UNL     1      44.493   4.819   9.733  0.00  0.00    +0.000 C 
ATOM     35  H   UNL     1      43.079   4.028   8.556  0.00  0.00    +0.000 HD
ENDBRANCH  29  30
ENDBRANCH  26  29
ENDBRANCH  23  26
ENDBRANCH  19  20
ENDBRANCH   1  19
TORSDOF 10
ENDMDL
MODEL 6
REMARK VINA RESULT:    -6.441      2.825      8.381
REMARK INTER + INTRA:         -11.608
REMARK INTER:                 -10.095
REMARK INTRA:                  -1.513
REMARK UNBOUND:                -1.590
REMARK  Name = 
REMARK  11 active torsions:
REMARK  status: ('A' for Active; 'I' for Inactive)
REMARK    1  A    between atoms: C_1  and  C_2
REMARK    2  A    between atoms: C_2  and  C_3
REMARK    3  A    between atoms: C_3  and  N_4
REMARK    4  A    between atoms: C_3  and  C_20
REMARK    5  A    between atoms: N_4  and  C_5
REMARK    6  A    between atoms: C_5  and  C_6
REMARK    7  A    between atoms: C_9  and  C_10
REMARK    8  A    between atoms: C_10  and  O_11
REMARK    9  A    between atoms: C_10  and  C_12
REMARK   10  A    between atoms: C_12  and  N_13
REMARK   11  A    between atoms: C_20  and  C_22
REMARK                            x       y       z     vdW  Elec       q    Type
REMARK                         _______ _______ _______ _____ _____    ______ ____
ROOT
ATOM      1  N   UNL     1      49.612   6.267  15.787  0.00  0.00    +0.000 NA
ATOM      2  H   UNL     1      49.342   5.399  15.327  0.00  0.00    +0.000 HD
ENDROOT
BRANCH   1   3
ATOM      3  C   UNL     1      48.788   6.468  16.999  0.00  0.00    +0.000 C 
BRANCH   3   5
ATOM      4  C   UNL     1      49.869   8.543  18.095  0.00  0.00    +0.000 C 
ATOM      5  C   UNL     1      48.638   7.944  17.429  0.00  0.00    +0.000 C 
ENDBRANCH   3   5
BRANCH   3   6
ATOM      6  C   UNL     1      49.252   5.594  18.199  0.00  0.00    +0.000 C 
ATOM      7  O   UNL     1      48.511   5.438  19.174  0.00  0.00    +0.000 OA
BRANCH   6   8
ATOM      8  C   UNL     1      50.586   4.964  18.202  0.00  0.00    +0.000 A 
ATOM      9  C   UNL     1      51.730   5.550  18.713  0.00  0.00    +0.000 A 
ATOM     10  S   UNL     1      53.049   4.466  18.830  0.00  0.00    +0.000 S 
ATOM     11  C   UNL     1      52.144   3.202  18.140  0.00  0.00    +0.000 A 
ATOM     12  N   UNL     1      52.664   1.953  18.001  0.00  0.00    +0.000 NA
ATOM     13  C   UNL     1      51.857   1.103  17.458  0.00  0.00    +0.000 A 
ATOM     14  N   UNL     1      50.594   1.396  17.007  0.00  0.00    +0.000 N 
ATOM     15  C   UNL     1      50.083   2.677  17.005  0.00  0.00    +0.000 A 
ATOM     16  O   UNL     1      49.101   2.968  16.331  0.00  0.00    +0.000 OA
ATOM     17  C   UNL     1      50.887   3.626  17.753  0.00  0.00    +0.000 A 
ATOM     18  H   UNL     1      50.065   0.712  16.486  0.00  0.00    +0.000 HD
ENDBRANCH   6   8
ENDBRANCH   3   6
ENDBRANCH   1   3
BRANCH   1  19
ATOM     19  C   UNL     1      49.575   7.348  14.804  0.00  0.00    +0.000 C 
BRANCH  19  20
ATOM     20  C   UNL     1      48.311   7.232  13.975  0.00  0.00    +0.000 A 
ATOM     21  C   UNL     1      47.473   8.337  13.774  0.00  0.00    +0.000 A 
ATOM     22  C   UNL     1      46.275   8.203  13.056  0.00  0.00    +0.000 A 
ATOM     23  C   UNL     1      45.882   6.960  12.530  0.00  0.00    +0.000 A 
ATOM     24  C   UNL     1      46.740   5.868  12.720  0.00  0.00    +0.000 A 
ATOM     25  C   UNL     1      47.927   5.996  13.439  0.00  0.00    +0.000 A 
BRANCH  23  26
ATOM     26  C   UNL     1      44.571   6.847  11.769  0.00  0.00    +0.000 C 
BRANCH  26  27
ATOM     27  O   UNL     1      44.389   8.044  11.002  0.00  0.00    +0.000 OA
ATOM     28  H   UNL     1      45.222   8.203  10.524  0.00  0.00    +0.000 HD
ENDBRANCH  26  27
BRANCH  26  29
ATOM     29  C   UNL     1      44.441   5.637  10.796  0.00  0.00    +0.000 C 
BRANCH  29  30
ATOM     30  N   UNL     1      43.411   4.648  11.144  0.00  0.00    +0.000 NA
ATOM     31  C   UNL     1      43.830   3.268  10.853  0.00  0.00    +0.000 C 
ATOM     32  C   UNL     1      43.462   2.493  12.107  0.00  0.00    +0.000 C 
ATOM     33  N   UNL     1      43.619   3.494  13.165  0.00  0.00    +0.000 NA
ATOM     34  C   UNL     1      43.051   4.689  12.555  0.00  0.00    +0.000 C 
ATOM     35  H   UNL     1      44.613   3.674  13.290  0.00  0.00    +0.000 HD
ENDBRANCH  29  30
ENDBRANCH  26  29
ENDBRANCH  23  26
ENDBRANCH  19  20
ENDBRANCH   1  19
TORSDOF 10
ENDMDL
MODEL 7
REMARK VINA RESULT:    -6.416      3.119      8.653
REMARK INTER + INTRA:         -11.570
REMARK INTER:                 -10.177
REMARK INTRA:                  -1.392
REMARK UNBOUND:                -1.590
REMARK  Name = 
REMARK  11 active torsions:
REMARK  status: ('A' for Active; 'I' for Inactive)
REMARK    1  A    between atoms: C_1  and  C_2
REMARK    2  A    between atoms: C_2  and  C_3
REMARK    3  A    between atoms: C_3  and  N_4
REMARK    4  A    between atoms: C_3  and  C_20
REMARK    5  A    between atoms: N_4  and  C_5
REMARK    6  A    between atoms: C_5  and  C_6
REMARK    7  A    between atoms: C_9  and  C_10
REMARK    8  A    between atoms: C_10  and  O_11
REMARK    9  A    between atoms: C_10  and  C_12
REMARK   10  A    between atoms: C_12  and  N_13
REMARK   11  A    between atoms: C_20  and  C_22
REMARK                            x       y       z     vdW  Elec       q    Type
REMARK                         _______ _______ _______ _____ _____    ______ ____
ROOT
ATOM      1  N   UNL     1      48.954   6.265  14.433  0.00  0.00    +0.000 NA
ATOM      2  H   UNL     1      49.688   5.559  14.429  0.00  0.00    +0.000 HD
ENDROOT
BRANCH   1   3
ATOM      3  C   UNL     1      49.411   7.458  15.180  0.00  0.00    +0.000 C 
BRANCH   3   5
ATOM      4  C   UNL     1      48.767   9.074  13.270  0.00  0.00    +0.000 C 
ATOM      5  C   UNL     1      49.818   8.650  14.287  0.00  0.00    +0.000 C 
ENDBRANCH   3   5
BRANCH   3   6
ATOM      6  C   UNL     1      50.535   7.135  16.206  0.00  0.00    +0.000 C 
ATOM      7  O   UNL     1      51.686   6.923  15.816  0.00  0.00    +0.000 OA
BRANCH   6   8
ATOM      8  C   UNL     1      50.238   7.051  17.648  0.00  0.00    +0.000 A 
ATOM      9  C   UNL     1      50.226   8.132  18.512  0.00  0.00    +0.000 A 
ATOM     10  S   UNL     1      49.571   7.762  20.048  0.00  0.00    +0.000 S 
ATOM     11  C   UNL     1      49.346   6.130  19.621  0.00  0.00    +0.000 A 
ATOM     12  N   UNL     1      48.759   5.249  20.476  0.00  0.00    +0.000 NA
ATOM     13  C   UNL     1      48.662   4.048  20.009  0.00  0.00    +0.000 A 
ATOM     14  N   UNL     1      49.130   3.639  18.785  0.00  0.00    +0.000 N 
ATOM     15  C   UNL     1      49.850   4.468  17.949  0.00  0.00    +0.000 A 
ATOM     16  O   UNL     1      50.513   4.015  17.024  0.00  0.00    +0.000 OA
ATOM     17  C   UNL     1      49.839   5.860  18.359  0.00  0.00    +0.000 A 
ATOM     18  H   UNL     1      49.126   2.661  18.537  0.00  0.00    +0.000 HD
ENDBRANCH   6   8
ENDBRANCH   3   6
ENDBRANCH   1   3
BRANCH   1  19
ATOM     19  C   UNL     1      47.717   5.650  14.909  0.00  0.00    +0.000 C 
BRANCH  19  20
ATOM     20  C   UNL     1      46.816   5.348  13.727  0.00  0.00    +0.000 A 
ATOM     21  C   UNL     1      46.328   4.054  13.500  0.00  0.00    +0.000 A 
ATOM     22  C   UNL     1      45.546   3.775  12.369  0.00  0.00    +0.000 A 
ATOM     23  C   UNL     1      45.239   4.780  11.435  0.00  0.00    +0.000 A 
ATOM     24  C   UNL     1      45.715   6.074  11.686  0.00  0.00    +0.000 A 
ATOM     25  C   UNL     1      46.500   6.353  12.804  0.00  0.00    +0.000 A 
BRANCH  23  26
ATOM     26  C   UNL     1      44.400   4.440  10.214  0.00  0.00    +0.000 C 
BRANCH  26  27
ATOM     27  O   UNL     1      43.262   5.311  10.191  0.00  0.00    +0.000 OA
ATOM     28  H   UNL     1      42.696   5.017   9.455  0.00  0.00    +0.000 HD
ENDBRANCH  26  27
BRANCH  26  29
ATOM     29  C   UNL     1      45.113   4.557   8.834  0.00  0.00    +0.000 C 
BRANCH  29  30
ATOM     30  N   UNL     1      45.077   3.351   7.994  0.00  0.00    +0.000 NA
ATOM     31  C   UNL     1      46.383   3.040   7.395  0.00  0.00    +0.000 C 
ATOM     32  C   UNL     1      46.563   1.550   7.641  0.00  0.00    +0.000 C 
ATOM     33  N   UNL     1      45.850   1.343   8.904  0.00  0.00    +0.000 NA
ATOM     34  C   UNL     1      44.661   2.167   8.735  0.00  0.00    +0.000 C 
ATOM     35  H   UNL     1      46.396   1.766   9.652  0.00  0.00    +0.000 HD
ENDBRANCH  29  30
ENDBRANCH  26  29
ENDBRANCH  23  26
ENDBRANCH  19  20
ENDBRANCH   1  19
TORSDOF 10
ENDMDL
MODEL 8
REMARK VINA RESULT:    -6.334      2.413      8.088
REMARK INTER + INTRA:         -11.441
REMARK INTER:                  -9.725
REMARK INTRA:                  -1.717
REMARK UNBOUND:                -1.590
REMARK  Name = 
REMARK  11 active torsions:
REMARK  status: ('A' for Active; 'I' for Inactive)
REMARK    1  A    between atoms: C_1  and  C_2
REMARK    2  A    between atoms: C_2  and  C_3
REMARK    3  A    between atoms: C_3  and  N_4
REMARK    4  A    between atoms: C_3  and  C_20
REMARK    5  A    between atoms: N_4  and  C_5
REMARK    6  A    between atoms: C_5  and  C_6
REMARK    7  A    between atoms: C_9  and  C_10
REMARK    8  A    between atoms: C_10  and  O_11
REMARK    9  A    between atoms: C_10  and  C_12
REMARK   10  A    between atoms: C_12  and  N_13
REMARK   11  A    between atoms: C_20  and  C_22
REMARK                            x       y       z     vdW  Elec       q    Type
REMARK                         _______ _______ _______ _____ _____    ______ ____
ROOT
ATOM      1  N   UNL     1      50.151   6.813  15.670  0.00  0.00    +0.000 NA
ATOM      2  H   UNL     1      49.517   6.030  15.519  0.00  0.00    +0.000 HD
ENDROOT
BRANCH   1   3
ATOM      3  C   UNL     1      49.940   7.371  17.024  0.00  0.00    +0.000 C 
BRANCH   3   5
ATOM      4  C   UNL     1      52.504   7.195  17.283  0.00  0.00    +0.000 C 
ATOM      5  C   UNL     1      51.223   7.902  17.700  0.00  0.00    +0.000 C 
ENDBRANCH   3   5
BRANCH   3   6
ATOM      6  C   UNL     1      49.188   6.393  17.972  0.00  0.00    +0.000 C 
ATOM      7  O   UNL     1      48.819   6.772  19.086  0.00  0.00    +0.000 OA
BRANCH   6   8
ATOM      8  C   UNL     1      48.932   4.998  17.566  0.00  0.00    +0.000 A 
ATOM      9  C   UNL     1      47.783   4.563  16.930  0.00  0.00    +0.000 A 
ATOM     10  S   UNL     1      47.903   2.963  16.338  0.00  0.00    +0.000 S 
ATOM     11  C   UNL     1      49.471   2.786  16.972  0.00  0.00    +0.000 A 
ATOM     12  N   UNL     1      50.193   1.651  16.770  0.00  0.00    +0.000 NA
ATOM     13  C   UNL     1      51.364   1.666  17.316  0.00  0.00    +0.000 A 
ATOM     14  N   UNL     1      51.864   2.694  18.077  0.00  0.00    +0.000 N 
ATOM     15  C   UNL     1      51.113   3.800  18.417  0.00  0.00    +0.000 A 
ATOM     16  O   UNL     1      51.456   4.543  19.330  0.00  0.00    +0.000 OA
ATOM     17  C   UNL     1      49.860   3.899  17.693  0.00  0.00    +0.000 A 
ATOM     18  H   UNL     1      52.737   2.587  18.570  0.00  0.00    +0.000 HD
ENDBRANCH   6   8
ENDBRANCH   3   6
ENDBRANCH   1   3
BRANCH   1  19
ATOM     19  C   UNL     1      50.003   7.755  14.563  0.00  0.00    +0.000 C 
BRANCH  19  20
ATOM     20  C   UNL     1      48.641   7.570  13.921  0.00  0.00    +0.000 A 
ATOM     21  C   UNL     1      47.766   8.652  13.754  0.00  0.00    +0.000 A 
ATOM     22  C   UNL     1      46.486   8.457  13.216  0.00  0.00    +0.000 A 
ATOM     23  C   UNL     1      46.046   7.176  12.839  0.00  0.00    +0.000 A 
ATOM     24  C   UNL     1      46.939   6.106  12.991  0.00  0.00    +0.000 A 
ATOM     25  C   UNL     1      48.210   6.295  13.534  0.00  0.00    +0.000 A 
BRANCH  23  26
ATOM     26  C   UNL     1      44.648   6.998  12.271  0.00  0.00    +0.000 C 
BRANCH  26  27
ATOM     27  O   UNL     1      44.213   8.256  11.738  0.00  0.00    +0.000 OA
ATOM     28  H   UNL     1      43.370   8.093  11.279  0.00  0.00    +0.000 HD
ENDBRANCH  26  27
BRANCH  26  29
ATOM     29  C   UNL     1      44.489   5.929  11.150  0.00  0.00    +0.000 C 
BRANCH  29  30
ATOM     30  N   UNL     1      43.426   4.937  11.361  0.00  0.00    +0.000 NA
ATOM     31  C   UNL     1      43.750   3.626  10.777  0.00  0.00    +0.000 C 
ATOM     32  C   UNL     1      43.406   2.632  11.875  0.00  0.00    +0.000 C 
ATOM     33  N   UNL     1      43.676   3.394  13.097  0.00  0.00    +0.000 NA
ATOM     34  C   UNL     1      43.144   4.711  12.773  0.00  0.00    +0.000 C 
ATOM     35  H   UNL     1      44.684   3.501  13.192  0.00  0.00    +0.000 HD
ENDBRANCH  29  30
ENDBRANCH  26  29
ENDBRANCH  23  26
ENDBRANCH  19  20
ENDBRANCH   1  19
TORSDOF 10
ENDMDL
MODEL 9
REMARK VINA RESULT:    -6.303      3.472      8.875
REMARK INTER + INTRA:         -11.394
REMARK INTER:                 -10.043
REMARK INTRA:                  -1.350
REMARK UNBOUND:                -1.590
REMARK  Name = 
REMARK  11 active torsions:
REMARK  status: ('A' for Active; 'I' for Inactive)
REMARK    1  A    between atoms: C_1  and  C_2
REMARK    2  A    between atoms: C_2  and  C_3
REMARK    3  A    between atoms: C_3  and  N_4
REMARK    4  A    between atoms: C_3  and  C_20
REMARK    5  A    between atoms: N_4  and  C_5
REMARK    6  A    between atoms: C_5  and  C_6
REMARK    7  A    between atoms: C_9  and  C_10
REMARK    8  A    between atoms: C_10  and  O_11
REMARK    9  A    between atoms: C_10  and  C_12
REMARK   10  A    between atoms: C_12  and  N_13
REMARK   11  A    between atoms: C_20  and  C_22
REMARK                            x       y       z     vdW  Elec       q    Type
REMARK                         _______ _______ _______ _____ _____    ______ ____
ROOT
ATOM      1  N   UNL     1      47.791   6.169  15.406  0.00  0.00    +0.000 NA
ATOM      2  H   UNL     1      47.654   7.107  15.777  0.00  0.00    +0.000 HD
ENDROOT
BRANCH   1   3
ATOM      3  C   UNL     1      48.669   5.396  16.312  0.00  0.00    +0.000 C 
BRANCH   3   5
ATOM      4  C   UNL     1      47.921   2.924  16.358  0.00  0.00    +0.000 C 
ATOM      5  C   UNL     1      47.953   4.264  17.080  0.00  0.00    +0.000 C 
ENDBRANCH   3   5
BRANCH   3   6
ATOM      6  C   UNL     1      49.471   6.299  17.292  0.00  0.00    +0.000 C 
ATOM      7  O   UNL     1      48.910   7.232  17.873  0.00  0.00    +0.000 OA
BRANCH   6   8
ATOM      8  C   UNL     1      50.910   6.071  17.521  0.00  0.00    +0.000 A 
ATOM      9  C   UNL     1      51.433   5.342  18.575  0.00  0.00    +0.000 A 
ATOM     10  S   UNL     1      53.104   5.018  18.409  0.00  0.00    +0.000 S 
ATOM     11  C   UNL     1      53.188   5.900  16.956  0.00  0.00    +0.000 A 
ATOM     12  N   UNL     1      54.342   5.978  16.241  0.00  0.00    +0.000 NA
ATOM     13  C   UNL     1      54.248   6.685  15.163  0.00  0.00    +0.000 A 
ATOM     14  N   UNL     1      53.119   7.350  14.755  0.00  0.00    +0.000 N 
ATOM     15  C   UNL     1      51.972   7.406  15.520  0.00  0.00    +0.000 A 
ATOM     16  O   UNL     1      51.101   8.240  15.297  0.00  0.00    +0.000 OA
ATOM     17  C   UNL     1      51.980   6.497  16.650  0.00  0.00    +0.000 A 
ATOM     18  H   UNL     1      53.152   7.979  13.967  0.00  0.00    +0.000 HD
ENDBRANCH   6   8
ENDBRANCH   3   6
ENDBRANCH   1   3
BRANCH   1  19
ATOM     19  C   UNL     1      48.241   6.275  14.019  0.00  0.00    +0.000 C 
BRANCH  19  20
ATOM     20  C   UNL     1      47.131   5.818  13.092  0.00  0.00    +0.000 A 
ATOM     21  C   UNL     1      46.421   4.635  13.340  0.00  0.00    +0.000 A 
ATOM     22  C   UNL     1      45.439   4.191  12.443  0.00  0.00    +0.000 A 
ATOM     23  C   UNL     1      45.149   4.913  11.272  0.00  0.00    +0.000 A 
ATOM     24  C   UNL     1      45.851   6.105  11.047  0.00  0.00    +0.000 A 
ATOM     25  C   UNL     1      46.833   6.545  11.933  0.00  0.00    +0.000 A 
BRANCH  23  26
ATOM     26  C   UNL     1      44.088   4.396  10.314  0.00  0.00    +0.000 C 
BRANCH  26  27
ATOM     27  O   UNL     1      43.038   5.370  10.234  0.00  0.00    +0.000 OA
ATOM     28  H   UNL     1      42.792   5.596  11.148  0.00  0.00    +0.000 HD
ENDBRANCH  26  27
BRANCH  26  29
ATOM     29  C   UNL     1      44.561   4.090   8.862  0.00  0.00    +0.000 C 
BRANCH  29  30
ATOM     30  N   UNL     1      45.853   3.399   8.745  0.00  0.00    +0.000 NA
ATOM     31  C   UNL     1      45.715   1.935   8.738  0.00  0.00    +0.000 C 
ATOM     32  C   UNL     1      46.592   1.481   7.583  0.00  0.00    +0.000 C 
ATOM     33  N   UNL     1      46.500   2.604   6.646  0.00  0.00    +0.000 NA
ATOM     34  C   UNL     1      46.571   3.760   7.529  0.00  0.00    +0.000 C 
ATOM     35  H   UNL     1      45.568   2.604   6.238  0.00  0.00    +0.000 HD
ENDBRANCH  29  30
ENDBRANCH  26  29
ENDBRANCH  23  26
ENDBRANCH  19  20
ENDBRANCH   1  19
TORSDOF 10
ENDMDL
