MODEL 1
REMARK VINA RESULT:    -9.275      0.000      0.000
REMARK INTER + INTRA:         -12.216
REMARK INTER:                 -11.443
REMARK INTRA:                  -0.773
REMARK UNBOUND:                -0.773
REMARK  Name = 
REMARK  4 active torsions:
REMARK  status: ('A' for Active; 'I' for Inactive)
REMARK    1  A    between atoms: C_2  and  C_4
REMARK    2  A    between atoms: N_8  and  C_9
REMARK    3  A    between atoms: C_9  and  C_10
REMARK    4  A    between atoms: C_14  and  C_15
REMARK                            x       y       z     vdW  Elec       q    Type
REMARK                         _______ _______ _______ _____ _____    ______ ____
ROOT
ATOM      1  C   UNL     1      43.500   4.823  11.062  0.00  0.00    +0.000 C 
ENDROOT
BRANCH   1   6
ATOM      2  C   UNL     1      46.398   2.302   7.695  0.00  0.00    +0.000 A 
ATOM      3  C   UNL     1      45.622   1.786   8.728  0.00  0.00    +0.000 A 
ATOM      4  C   UNL     1      44.760   2.638   9.419  0.00  0.00    +0.000 A 
ATOM      5  C   UNL     1      44.702   3.988   9.085  0.00  0.00    +0.000 A 
ATOM      6  N   UNL     1      43.796   4.867   9.643  0.00  0.00    +0.000 N 
ATOM      7  N   UNL     1      45.470   4.502   8.106  0.00  0.00    +0.000 NA
ATOM      8  C   UNL     1      46.302   3.660   7.435  0.00  0.00    +0.000 A 
ATOM      9  H   UNL     1      44.023   5.797   9.294  0.00  0.00    +0.000 HD
BRANCH   2  11
ATOM     10  N   UNL     1      48.418   2.071   6.366  0.00  0.00    +0.000 N 
ATOM     11  C   UNL     1      47.302   1.469   6.878  0.00  0.00    +0.000 C 
ATOM     12  O   UNL     1      47.082   0.277   6.695  0.00  0.00    +0.000 OA
ATOM     13  H   UNL     1      49.083   1.463   5.903  0.00  0.00    +0.000 HD
ATOM     14  H   UNL     1      48.760   2.959   6.702  0.00  0.00    +0.000 HD
ENDBRANCH   2  11
ENDBRANCH   1   6
BRANCH   1  15
ATOM     15  C   UNL     1      44.715   5.208  11.879  0.00  0.00    +0.000 A 
ATOM     16  C   UNL     1      45.022   4.508  13.045  0.00  0.00    +0.000 A 
ATOM     17  C   UNL     1      46.094   4.934  13.811  0.00  0.00    +0.000 A 
ATOM     18  N   UNL     1      46.861   6.002  13.507  0.00  0.00    +0.000 NA
ATOM     19  C   UNL     1      46.554   6.708  12.389  0.00  0.00    +0.000 A 
ATOM     20  C   UNL     1      45.495   6.331  11.563  0.00  0.00    +0.000 A 
BRANCH  19  21
ATOM     21  C   UNL     1      47.392   7.898  12.130  0.00  0.00    +0.000 A 
ATOM     22  C   UNL     1      46.847   9.197  12.205  0.00  0.00    +0.000 A 
ATOM     23  C   UNL     1      47.621  10.335  11.950  0.00  0.00    +0.000 A 
ATOM     24  C   UNL     1      48.962  10.198  11.607  0.00  0.00    +0.000 A 
ATOM     25  C   UNL     1      49.512   8.928  11.521  0.00  0.00    +0.000 A 
ATOM     26  F   UNL     1      50.800   8.790  11.180  0.00  0.00    +0.000 F 
ATOM     27  C   UNL     1      48.749   7.791  11.775  0.00  0.00    +0.000 A 
ENDBRANCH  19  21
ENDBRANCH   1  15
TORSDOF 4
ENDMDL
MODEL 2
REMARK VINA RESULT:    -8.846      2.711      4.008
REMARK INTER + INTRA:         -11.687
REMARK INTER:                 -11.049
REMARK INTRA:                  -0.638
REMARK UNBOUND:                -0.773
REMARK  Name = 
REMARK  4 active torsions:
REMARK  status: ('A' for Active; 'I' for Inactive)
REMARK    1  A    between atoms: C_2  and  C_4
REMARK    2  A    between atoms: N_8  and  C_9
REMARK    3  A    between atoms: C_9  and  C_10
REMARK    4  A    between atoms: C_14  and  C_15
REMARK                            x       y       z     vdW  Elec       q    Type
REMARK                         _______ _______ _______ _____ _____    ______ ____
ROOT
ATOM      1  C   UNL     1      44.222   5.097  11.297  0.00  0.00    +0.000 C 
ENDROOT
BRANCH   1   6
ATOM      2  C   UNL     1      46.552   2.390   7.645  0.00  0.00    +0.000 A 
ATOM      3  C   UNL     1      45.843   1.927   8.748  0.00  0.00    +0.000 A 
ATOM      4  C   UNL     1      45.127   2.838   9.526  0.00  0.00    +0.000 A 
ATOM      5  C   UNL     1      45.149   4.191   9.206  0.00  0.00    +0.000 A 
ATOM      6  N   UNL     1      44.379   5.135   9.856  0.00  0.00    +0.000 N 
ATOM      7  N   UNL     1      45.855   4.654   8.157  0.00  0.00    +0.000 NA
ATOM      8  C   UNL     1      46.544   3.755   7.402  0.00  0.00    +0.000 A 
ATOM      9  H   UNL     1      44.646   6.047   9.491  0.00  0.00    +0.000 HD
BRANCH   2  11
ATOM     10  N   UNL     1      48.348   2.038   6.047  0.00  0.00    +0.000 N 
ATOM     11  C   UNL     1      47.298   1.497   6.737  0.00  0.00    +0.000 C 
ATOM     12  O   UNL     1      47.014   0.309   6.634  0.00  0.00    +0.000 OA
ATOM     13  H   UNL     1      48.917   1.390   5.516  0.00  0.00    +0.000 HD
ATOM     14  H   UNL     1      48.764   2.923   6.296  0.00  0.00    +0.000 HD
ENDBRANCH   2  11
ENDBRANCH   1   6
BRANCH   1  15
ATOM     15  C   UNL     1      45.453   5.644  11.988  0.00  0.00    +0.000 A 
ATOM     16  C   UNL     1      46.280   6.551  11.325  0.00  0.00    +0.000 A 
ATOM     17  C   UNL     1      47.439   6.973  11.954  0.00  0.00    +0.000 A 
ATOM     18  N   UNL     1      47.832   6.549  13.173  0.00  0.00    +0.000 NA
ATOM     19  C   UNL     1      47.050   5.646  13.816  0.00  0.00    +0.000 A 
ATOM     20  C   UNL     1      45.862   5.184  13.248  0.00  0.00    +0.000 A 
BRANCH  19  21
ATOM     21  C   UNL     1      47.552   5.175  15.124  0.00  0.00    +0.000 A 
ATOM     22  C   UNL     1      48.576   5.872  15.799  0.00  0.00    +0.000 A 
ATOM     23  C   UNL     1      49.074   5.435  17.032  0.00  0.00    +0.000 A 
ATOM     24  C   UNL     1      48.560   4.283  17.618  0.00  0.00    +0.000 A 
ATOM     25  C   UNL     1      47.556   3.582  16.965  0.00  0.00    +0.000 A 
ATOM     26  F   UNL     1      47.065   2.466  17.519  0.00  0.00    +0.000 F 
ATOM     27  C   UNL     1      47.055   4.011  15.739  0.00  0.00    +0.000 A 
ENDBRANCH  19  21
ENDBRANCH   1  15
TORSDOF 4
ENDMDL
MODEL 3
REMARK VINA RESULT:    -8.503      3.703      7.028
REMARK INTER + INTRA:         -11.264
REMARK INTER:                 -10.427
REMARK INTRA:                  -0.837
REMARK UNBOUND:                -0.773
REMARK  Name = 
REMARK  4 active torsions:
REMARK  status: ('A' for Active; 'I' for Inactive)
REMARK    1  A    between atoms: C_2  and  C_4
REMARK    2  A    between atoms: N_8  and  C_9
REMARK    3  A    between atoms: C_9  and  C_10
REMARK    4  A    between atoms: C_14  and  C_15
REMARK                            x       y       z     vdW  Elec       q    Type
REMARK                         _______ _______ _______ _____ _____    ______ ____
ROOT
ATOM      1  C   UNL     1      43.895   6.621  11.516  0.00  0.00    +0.000 C 
ENDROOT
BRANCH   1   6
ATOM      2  C   UNL     1      48.713   7.426  13.012  0.00  0.00    +0.000 A 
ATOM      3  C   UNL     1      48.018   8.025  11.965  0.00  0.00    +0.000 A 
ATOM      4  C   UNL     1      46.648   7.795  11.841  0.00  0.00    +0.000 A 
ATOM      5  C   UNL     1      46.000   6.958  12.745  0.00  0.00    +0.000 A 
ATOM      6  N   UNL     1      44.632   6.772  12.756  0.00  0.00    +0.000 N 
ATOM      7  N   UNL     1      46.668   6.351  13.744  0.00  0.00    +0.000 NA
ATOM      8  C   UNL     1      48.003   6.589  13.858  0.00  0.00    +0.000 A 
ATOM      9  H   UNL     1      44.430   6.054  13.450  0.00  0.00    +0.000 HD
BRANCH   2  11
ATOM     10  N   UNL     1      50.966   7.723  12.154  0.00  0.00    +0.000 N 
ATOM     11  C   UNL     1      50.152   7.649  13.251  0.00  0.00    +0.000 C 
ATOM     12  O   UNL     1      50.596   7.799  14.383  0.00  0.00    +0.000 OA
ATOM     13  H   UNL     1      51.929   7.986  12.327  0.00  0.00    +0.000 HD
ATOM     14  H   UNL     1      50.609   7.861  11.220  0.00  0.00    +0.000 HD
ENDBRANCH   2  11
ENDBRANCH   1   6
BRANCH   1  15
ATOM     15  C   UNL     1      43.887   5.176  11.067  0.00  0.00    +0.000 A 
ATOM     16  C   UNL     1      43.161   4.226  11.784  0.00  0.00    +0.000 A 
ATOM     17  C   UNL     1      43.236   2.900  11.393  0.00  0.00    +0.000 A 
ATOM     18  N   UNL     1      43.985   2.459  10.361  0.00  0.00    +0.000 NA
ATOM     19  C   UNL     1      44.719   3.370   9.672  0.00  0.00    +0.000 A 
ATOM     20  C   UNL     1      44.683   4.726  10.002  0.00  0.00    +0.000 A 
BRANCH  19  21
ATOM     21  C   UNL     1      45.561   2.829   8.585  0.00  0.00    +0.000 A 
ATOM     22  C   UNL     1      46.035   3.665   7.553  0.00  0.00    +0.000 A 
ATOM     23  C   UNL     1      46.823   3.169   6.508  0.00  0.00    +0.000 A 
ATOM     24  C   UNL     1      47.152   1.818   6.469  0.00  0.00    +0.000 A 
ATOM     25  C   UNL     1      46.689   0.980   7.474  0.00  0.00    +0.000 A 
ATOM     26  F   UNL     1      46.993  -0.324   7.436  0.00  0.00    +0.000 F 
ATOM     27  C   UNL     1      45.906   1.466   8.517  0.00  0.00    +0.000 A 
ENDBRANCH  19  21
ENDBRANCH   1  15
TORSDOF 4
ENDMDL
MODEL 4
REMARK VINA RESULT:    -8.273      3.871      7.337
REMARK INTER + INTRA:         -10.980
REMARK INTER:                 -10.612
REMARK INTRA:                  -0.369
REMARK UNBOUND:                -0.773
REMARK  Name = 
REMARK  4 active torsions:
REMARK  status: ('A' for Active; 'I' for Inactive)
REMARK    1  A    between atoms: C_2  and  C_4
REMARK    2  A    between atoms: N_8  and  C_9
REMARK    3  A    between atoms: C_9  and  C_10
REMARK    4  A    between atoms: C_14  and  C_15
REMARK                            x       y       z     vdW  Elec       q    Type
REMARK                         _______ _______ _______ _____ _____    ______ ____
ROOT
ATOM      1  C   UNL     1      45.158   6.987  11.472  0.00  0.00    +0.000 C 
ENDROOT
BRANCH   1   6
ATOM      2  C   UNL     1      47.794   5.183  15.458  0.00  0.00    +0.000 A 
ATOM      3  C   UNL     1      46.751   4.579  14.764  0.00  0.00    +0.000 A 
ATOM      4  C   UNL     1      46.290   5.167  13.585  0.00  0.00    +0.000 A 
ATOM      5  C   UNL     1      46.858   6.354  13.134  0.00  0.00    +0.000 A 
ATOM      6  N   UNL     1      46.535   6.935  11.924  0.00  0.00    +0.000 N 
ATOM      7  N   UNL     1      47.849   6.962  13.814  0.00  0.00    +0.000 NA
ATOM      8  C   UNL     1      48.294   6.374  14.958  0.00  0.00    +0.000 A 
ATOM      9  H   UNL     1      47.022   7.829  11.878  0.00  0.00    +0.000 HD
BRANCH   2  11
ATOM     10  N   UNL     1      47.817   4.973  17.878  0.00  0.00    +0.000 N 
ATOM     11  C   UNL     1      48.380   4.609  16.686  0.00  0.00    +0.000 C 
ATOM     12  O   UNL     1      49.307   3.810  16.638  0.00  0.00    +0.000 OA
ATOM     13  H   UNL     1      48.156   4.486  18.700  0.00  0.00    +0.000 HD
ATOM     14  H   UNL     1      46.911   5.412  17.941  0.00  0.00    +0.000 HD
ENDBRANCH   2  11
ENDBRANCH   1   6
BRANCH   1  15
ATOM     15  C   UNL     1      44.725   5.650  10.910  0.00  0.00    +0.000 A 
ATOM     16  C   UNL     1      43.649   4.970  11.480  0.00  0.00    +0.000 A 
ATOM     17  C   UNL     1      43.326   3.714  10.994  0.00  0.00    +0.000 A 
ATOM     18  N   UNL     1      44.001   3.093  10.003  0.00  0.00    +0.000 NA
ATOM     19  C   UNL     1      45.066   3.734   9.460  0.00  0.00    +0.000 A 
ATOM     20  C   UNL     1      45.443   5.006   9.892  0.00  0.00    +0.000 A 
BRANCH  19  21
ATOM     21  C   UNL     1      45.801   2.989   8.415  0.00  0.00    +0.000 A 
ATOM     22  C   UNL     1      46.314   3.650   7.281  0.00  0.00    +0.000 A 
ATOM     23  C   UNL     1      47.001   2.961   6.274  0.00  0.00    +0.000 A 
ATOM     24  C   UNL     1      47.186   1.587   6.380  0.00  0.00    +0.000 A 
ATOM     25  C   UNL     1      46.682   0.919   7.486  0.00  0.00    +0.000 A 
ATOM     26  F   UNL     1      46.848  -0.407   7.588  0.00  0.00    +0.000 F 
ATOM     27  C   UNL     1      46.000   1.598   8.492  0.00  0.00    +0.000 A 
ENDBRANCH  19  21
ENDBRANCH   1  15
TORSDOF 4
ENDMDL
MODEL 5
REMARK VINA RESULT:    -7.907      3.647      7.192
REMARK INTER + INTRA:         -10.529
REMARK INTER:                  -9.832
REMARK INTRA:                  -0.697
REMARK UNBOUND:                -0.773
REMARK  Name = 
REMARK  4 active torsions:
REMARK  status: ('A' for Active; 'I' for Inactive)
REMARK    1  A    between atoms: C_2  and  C_4
REMARK    2  A    between atoms: N_8  and  C_9
REMARK    3  A    between atoms: C_9  and  C_10
REMARK    4  A    between atoms: C_14  and  C_15
REMARK                            x       y       z     vdW  Elec       q    Type
REMARK                         _______ _______ _______ _____ _____    ______ ____
ROOT
ATOM      1  C   UNL     1      44.617   6.050  12.922  0.00  0.00    +0.000 C 
ENDROOT
BRANCH   1   6
ATOM      2  C   UNL     1      48.292   9.435  11.862  0.00  0.00    +0.000 A 
ATOM      3  C   UNL     1      46.999   9.673  12.317  0.00  0.00    +0.000 A 
ATOM      4  C   UNL     1      46.212   8.594  12.720  0.00  0.00    +0.000 A 
ATOM      5  C   UNL     1      46.717   7.300  12.642  0.00  0.00    +0.000 A 
ATOM      6  N   UNL     1      46.045   6.195  13.126  0.00  0.00    +0.000 N 
ATOM      7  N   UNL     1      47.957   7.056  12.176  0.00  0.00    +0.000 NA
ATOM      8  C   UNL     1      48.716   8.118  11.792  0.00  0.00    +0.000 A 
ATOM      9  H   UNL     1      46.588   5.373  12.868  0.00  0.00    +0.000 HD
BRANCH   2  11
ATOM     10  N   UNL     1      50.250  10.803  12.305  0.00  0.00    +0.000 N 
ATOM     11  C   UNL     1      49.213  10.516  11.460  0.00  0.00    +0.000 C 
ATOM     12  O   UNL     1      49.078  11.108  10.396  0.00  0.00    +0.000 OA
ATOM     13  H   UNL     1      50.934  11.467  11.964  0.00  0.00    +0.000 HD
ATOM     14  H   UNL     1      50.538  10.179  13.044  0.00  0.00    +0.000 HD
ENDBRANCH   2  11
ENDBRANCH   1   6
BRANCH   1  15
ATOM     15  C   UNL     1      44.316   4.840  12.064  0.00  0.00    +0.000 A 
ATOM     16  C   UNL     1      43.385   3.893  12.494  0.00  0.00    +0.000 A 
ATOM     17  C   UNL     1      43.190   2.759  11.724  0.00  0.00    +0.000 A 
ATOM     18  N   UNL     1      43.857   2.500  10.580  0.00  0.00    +0.000 NA
ATOM     19  C   UNL     1      44.785   3.399  10.167  0.00  0.00    +0.000 A 
ATOM     20  C   UNL     1      45.028   4.571  10.885  0.00  0.00    +0.000 A 
BRANCH  19  21
ATOM     21  C   UNL     1      45.524   3.043   8.937  0.00  0.00    +0.000 A 
ATOM     22  C   UNL     1      45.865   4.027   7.987  0.00  0.00    +0.000 A 
ATOM     23  C   UNL     1      46.553   3.708   6.810  0.00  0.00    +0.000 A 
ATOM     24  C   UNL     1      46.912   2.388   6.555  0.00  0.00    +0.000 A 
ATOM     25  C   UNL     1      46.578   1.406   7.476  0.00  0.00    +0.000 A 
ATOM     26  F   UNL     1      46.912   0.132   7.230  0.00  0.00    +0.000 F 
ATOM     27  C   UNL     1      45.896   1.716   8.649  0.00  0.00    +0.000 A 
ENDBRANCH  19  21
ENDBRANCH   1  15
TORSDOF 4
ENDMDL
MODEL 6
REMARK VINA RESULT:    -7.670      1.804      2.367
REMARK INTER + INTRA:         -10.236
REMARK INTER:                  -9.567
REMARK INTRA:                  -0.669
REMARK UNBOUND:                -0.773
REMARK  Name = 
REMARK  4 active torsions:
REMARK  status: ('A' for Active; 'I' for Inactive)
REMARK    1  A    between atoms: C_2  and  C_4
REMARK    2  A    between atoms: N_8  and  C_9
REMARK    3  A    between atoms: C_9  and  C_10
REMARK    4  A    between atoms: C_14  and  C_15
REMARK                            x       y       z     vdW  Elec       q    Type
REMARK                         _______ _______ _______ _____ _____    ______ ____
ROOT
ATOM      1  C   UNL     1      43.941   5.373  10.971  0.00  0.00    +0.000 C 
ENDROOT
BRANCH   1   6
ATOM      2  C   UNL     1      46.309   2.029   7.921  0.00  0.00    +0.000 A 
ATOM      3  C   UNL     1      45.574   1.779   9.075  0.00  0.00    +0.000 A 
ATOM      4  C   UNL     1      44.854   2.822   9.660  0.00  0.00    +0.000 A 
ATOM      5  C   UNL     1      44.896   4.094   9.099  0.00  0.00    +0.000 A 
ATOM      6  N   UNL     1      44.125   5.146   9.551  0.00  0.00    +0.000 N 
ATOM      7  N   UNL     1      45.627   4.353   7.998  0.00  0.00    +0.000 NA
ATOM      8  C   UNL     1      46.319   3.326   7.434  0.00  0.00    +0.000 A 
ATOM      9  H   UNL     1      44.408   5.975   9.031  0.00  0.00    +0.000 HD
BRANCH   2  11
ATOM     10  N   UNL     1      46.791  -0.321   7.535  0.00  0.00    +0.000 N 
ATOM     11  C   UNL     1      47.062   0.979   7.206  0.00  0.00    +0.000 C 
ATOM     12  O   UNL     1      47.869   1.258   6.328  0.00  0.00    +0.000 OA
ATOM     13  H   UNL     1      47.232  -1.029   6.961  0.00  0.00    +0.000 HD
ATOM     14  H   UNL     1      45.968  -0.591   8.053  0.00  0.00    +0.000 HD
ENDBRANCH   2  11
ENDBRANCH   1   6
BRANCH   1  15
ATOM     15  C   UNL     1      44.667   6.624  11.416  0.00  0.00    +0.000 A 
ATOM     16  C   UNL     1      44.047   7.868  11.302  0.00  0.00    +0.000 A 
ATOM     17  C   UNL     1      44.766   9.001  11.644  0.00  0.00    +0.000 A 
ATOM     18  N   UNL     1      46.046   8.981  12.072  0.00  0.00    +0.000 NA
ATOM     19  C   UNL     1      46.669   7.779  12.159  0.00  0.00    +0.000 A 
ATOM     20  C   UNL     1      46.003   6.594  11.842  0.00  0.00    +0.000 A 
BRANCH  19  21
ATOM     21  C   UNL     1      48.085   7.817  12.582  0.00  0.00    +0.000 A 
ATOM     22  C   UNL     1      49.103   8.161  11.670  0.00  0.00    +0.000 A 
ATOM     23  C   UNL     1      50.451   8.190  12.048  0.00  0.00    +0.000 A 
ATOM     24  C   UNL     1      50.811   7.869  13.352  0.00  0.00    +0.000 A 
ATOM     25  C   UNL     1      49.822   7.523  14.262  0.00  0.00    +0.000 A 
ATOM     26  F   UNL     1      50.165   7.202  15.517  0.00  0.00    +0.000 F 
ATOM     27  C   UNL     1      48.480   7.493  13.894  0.00  0.00    +0.000 A 
ENDBRANCH  19  21
ENDBRANCH   1  15
TORSDOF 4
ENDMDL
MODEL 7
REMARK VINA RESULT:    -7.566      4.589      7.953
REMARK INTER + INTRA:         -10.108
REMARK INTER:                  -9.594
REMARK INTRA:                  -0.514
REMARK UNBOUND:                -0.773
REMARK  Name = 
REMARK  4 active torsions:
REMARK  status: ('A' for Active; 'I' for Inactive)
REMARK    1  A    between atoms: C_2  and  C_4
REMARK    2  A    between atoms: N_8  and  C_9
REMARK    3  A    between atoms: C_9  and  C_10
REMARK    4  A    between atoms: C_14  and  C_15
REMARK                            x       y       z     vdW  Elec       q    Type
REMARK                         _______ _______ _______ _____ _____    ______ ____
ROOT
ATOM      1  C   UNL     1      45.841   5.341  13.549  0.00  0.00    +0.000 C 
ENDROOT
BRANCH   1   6
ATOM      2  C   UNL     1      49.310   4.194  17.120  0.00  0.00    +0.000 A 
ATOM      3  C   UNL     1      48.915   5.449  16.666  0.00  0.00    +0.000 A 
ATOM      4  C   UNL     1      47.816   5.546  15.811  0.00  0.00    +0.000 A 
ATOM      5  C   UNL     1      47.147   4.395  15.408  0.00  0.00    +0.000 A 
ATOM      6  N   UNL     1      45.988   4.418  14.658  0.00  0.00    +0.000 N 
ATOM      7  N   UNL     1      47.538   3.174  15.818  0.00  0.00    +0.000 NA
ATOM      8  C   UNL     1      48.607   3.093  16.657  0.00  0.00    +0.000 A 
ATOM      9  H   UNL     1      45.756   3.453  14.429  0.00  0.00    +0.000 HD
BRANCH   2  11
ATOM     10  N   UNL     1      50.954   2.738  18.157  0.00  0.00    +0.000 N 
ATOM     11  C   UNL     1      50.428   3.998  18.062  0.00  0.00    +0.000 C 
ATOM     12  O   UNL     1      50.892   4.931  18.707  0.00  0.00    +0.000 OA
ATOM     13  H   UNL     1      51.790   2.644  18.722  0.00  0.00    +0.000 HD
ATOM     14  H   UNL     1      50.777   2.022  17.470  0.00  0.00    +0.000 HD
ENDBRANCH   2  11
ENDBRANCH   1   6
BRANCH   1  15
ATOM     15  C   UNL     1      45.075   4.699  12.412  0.00  0.00    +0.000 A 
ATOM     16  C   UNL     1      43.722   4.398  12.565  0.00  0.00    +0.000 A 
ATOM     17  C   UNL     1      43.069   3.741  11.536  0.00  0.00    +0.000 A 
ATOM     18  N   UNL     1      43.666   3.357  10.388  0.00  0.00    +0.000 NA
ATOM     19  C   UNL     1      44.989   3.620  10.239  0.00  0.00    +0.000 A 
ATOM     20  C   UNL     1      45.709   4.289  11.230  0.00  0.00    +0.000 A 
BRANCH  19  21
ATOM     21  C   UNL     1      45.605   3.133   8.987  0.00  0.00    +0.000 A 
ATOM     22  C   UNL     1      45.903   4.022   7.934  0.00  0.00    +0.000 A 
ATOM     23  C   UNL     1      46.475   3.578   6.736  0.00  0.00    +0.000 A 
ATOM     24  C   UNL     1      46.757   2.228   6.561  0.00  0.00    +0.000 A 
ATOM     25  C   UNL     1      46.463   1.338   7.585  0.00  0.00    +0.000 A 
ATOM     26  F   UNL     1      46.723   0.034   7.418  0.00  0.00    +0.000 F 
ATOM     27  C   UNL     1      45.896   1.772   8.780  0.00  0.00    +0.000 A 
ENDBRANCH  19  21
ENDBRANCH   1  15
TORSDOF 4
ENDMDL
MODEL 8
REMARK VINA RESULT:    -7.559      3.781      7.109
REMARK INTER + INTRA:         -10.099
REMARK INTER:                  -9.375
REMARK INTRA:                  -0.724
REMARK UNBOUND:                -0.773
REMARK  Name = 
REMARK  4 active torsions:
REMARK  status: ('A' for Active; 'I' for Inactive)
REMARK    1  A    between atoms: C_2  and  C_4
REMARK    2  A    between atoms: N_8  and  C_9
REMARK    3  A    between atoms: C_9  and  C_10
REMARK    4  A    between atoms: C_14  and  C_15
REMARK                            x       y       z     vdW  Elec       q    Type
REMARK                         _______ _______ _______ _____ _____    ______ ____
ROOT
ATOM      1  C   UNL     1      45.300   6.834  12.885  0.00  0.00    +0.000 C 
ENDROOT
BRANCH   1   6
ATOM      2  C   UNL     1      49.709   9.105  11.663  0.00  0.00    +0.000 A 
ATOM      3  C   UNL     1      49.423   7.745  11.725  0.00  0.00    +0.000 A 
ATOM      4  C   UNL     1      48.100   7.337  11.902  0.00  0.00    +0.000 A 
ATOM      5  C   UNL     1      47.093   8.289  12.036  0.00  0.00    +0.000 A 
ATOM      6  N   UNL     1      45.752   7.966  12.101  0.00  0.00    +0.000 N 
ATOM      7  N   UNL     1      47.363   9.607  12.007  0.00  0.00    +0.000 NA
ATOM      8  C   UNL     1      48.657   9.991  11.827  0.00  0.00    +0.000 A 
ATOM      9  H   UNL     1      45.242   8.829  12.284  0.00  0.00    +0.000 HD
BRANCH   2  11
ATOM     10  N   UNL     1      51.800   9.051  10.428  0.00  0.00    +0.000 N 
ATOM     11  C   UNL     1      51.069   9.628  11.430  0.00  0.00    +0.000 C 
ATOM     12  O   UNL     1      51.514  10.566  12.082  0.00  0.00    +0.000 OA
ATOM     13  H   UNL     1      52.685   9.494  10.208  0.00  0.00    +0.000 HD
ATOM     14  H   UNL     1      51.384   8.469   9.717  0.00  0.00    +0.000 HD
ENDBRANCH   2  11
ENDBRANCH   1   6
BRANCH   1  15
ATOM     15  C   UNL     1      44.655   5.789  12.000  0.00  0.00    +0.000 A 
ATOM     16  C   UNL     1      43.381   5.309  12.303  0.00  0.00    +0.000 A 
ATOM     17  C   UNL     1      42.851   4.298  11.519  0.00  0.00    +0.000 A 
ATOM     18  N   UNL     1      43.498   3.730  10.480  0.00  0.00    +0.000 NA
ATOM     19  C   UNL     1      44.750   4.170  10.194  0.00  0.00    +0.000 A 
ATOM     20  C   UNL     1      45.344   5.194  10.933  0.00  0.00    +0.000 A 
BRANCH  19  21
ATOM     21  C   UNL     1      45.435   3.480   9.080  0.00  0.00    +0.000 A 
ATOM     22  C   UNL     1      45.944   4.207   7.984  0.00  0.00    +0.000 A 
ATOM     23  C   UNL     1      46.585   3.571   6.914  0.00  0.00    +0.000 A 
ATOM     24  C   UNL     1      46.725   2.187   6.914  0.00  0.00    +0.000 A 
ATOM     25  C   UNL     1      46.224   1.456   7.981  0.00  0.00    +0.000 A 
ATOM     26  F   UNL     1      46.347   0.122   7.981  0.00  0.00    +0.000 F 
ATOM     27  C   UNL     1      45.587   2.082   9.050  0.00  0.00    +0.000 A 
ENDBRANCH  19  21
ENDBRANCH   1  15
TORSDOF 4
ENDMDL
MODEL 9
REMARK VINA RESULT:    -6.829      4.905      8.209
REMARK INTER + INTRA:          -9.199
REMARK INTER:                  -8.687
REMARK INTRA:                  -0.512
REMARK UNBOUND:                -0.773
REMARK  Name = 
REMARK  4 active torsions:
REMARK  status: ('A' for Active; 'I' for Inactive)
REMARK    1  A    between atoms: C_2  and  C_4
REMARK    2  A    between atoms: N_8  and  C_9
REMARK    3  A    between atoms: C_9  and  C_10
REMARK    4  A    between atoms: C_14  and  C_15
REMARK                            x       y       z     vdW  Elec       q    Type
REMARK                         _______ _______ _______ _____ _____    ______ ____
ROOT
ATOM      1  C   UNL     1      48.292   7.330  14.010  0.00  0.00    +0.000 C 
ENDROOT
BRANCH   1   6
ATOM      2  C   UNL     1      50.731   4.787  17.708  0.00  0.00    +0.000 A 
ATOM      3  C   UNL     1      51.066   6.007  17.129  0.00  0.00    +0.000 A 
ATOM      4  C   UNL     1      50.161   6.616  16.259  0.00  0.00    +0.000 A 
ATOM      5  C   UNL     1      48.953   5.991  15.965  0.00  0.00    +0.000 A 
ATOM      6  N   UNL     1      47.961   6.580  15.207  0.00  0.00    +0.000 N 
ATOM      7  N   UNL     1      48.631   4.797  16.498  0.00  0.00    +0.000 NA
ATOM      8  C   UNL     1      49.520   4.217  17.350  0.00  0.00    +0.000 A 
ATOM      9  H   UNL     1      47.229   5.885  15.073  0.00  0.00    +0.000 HD
BRANCH   2  11
ATOM     10  N   UNL     1      51.965   2.807  18.382  0.00  0.00    +0.000 N 
ATOM     11  C   UNL     1      51.603   4.092  18.676  0.00  0.00    +0.000 C 
ATOM     12  O   UNL     1      52.015   4.655  19.683  0.00  0.00    +0.000 OA
ATOM     13  H   UNL     1      52.651   2.384  18.996  0.00  0.00    +0.000 HD
ATOM     14  H   UNL     1      51.862   2.409  17.461  0.00  0.00    +0.000 HD
ENDBRANCH   2  11
ENDBRANCH   1   6
BRANCH   1  15
ATOM     15  C   UNL     1      47.129   7.339  13.041  0.00  0.00    +0.000 A 
ATOM     16  C   UNL     1      46.260   8.429  13.004  0.00  0.00    +0.000 A 
ATOM     17  C   UNL     1      45.162   8.372  12.162  0.00  0.00    +0.000 A 
ATOM     18  N   UNL     1      44.867   7.314  11.378  0.00  0.00    +0.000 NA
ATOM     19  C   UNL     1      45.689   6.237  11.426  0.00  0.00    +0.000 A 
ATOM     20  C   UNL     1      46.822   6.227  12.243  0.00  0.00    +0.000 A 
BRANCH  19  21
ATOM     21  C   UNL     1      45.293   5.086  10.588  0.00  0.00    +0.000 A 
ATOM     22  C   UNL     1      44.561   4.011  11.133  0.00  0.00    +0.000 A 
ATOM     23  C   UNL     1      44.187   2.907  10.359  0.00  0.00    +0.000 A 
ATOM     24  C   UNL     1      44.545   2.850   9.016  0.00  0.00    +0.000 A 
ATOM     25  C   UNL     1      45.272   3.895   8.465  0.00  0.00    +0.000 A 
ATOM     26  F   UNL     1      45.629   3.840   7.174  0.00  0.00    +0.000 F 
ATOM     27  C   UNL     1      45.645   4.998   9.228  0.00  0.00    +0.000 A 
ENDBRANCH  19  21
ENDBRANCH   1  15
TORSDOF 4
ENDMDL
