MODEL 1
REMARK VINA RESULT:    -7.118      0.000      0.000
REMARK INTER + INTRA:         -10.537
REMARK INTER:                  -9.614
REMARK INTRA:                  -0.923
REMARK UNBOUND:                -0.923
REMARK  Name = 
REMARK  8 active torsions:
REMARK  status: ('A' for Active; 'I' for Inactive)
REMARK    1  A    between atoms: C_1  and  C_2
REMARK    2  A    between atoms: C_2  and  N_3
REMARK    3  A    between atoms: N_3  and  C_4
REMARK    4  A    between atoms: C_4  and  C_5
REMARK    5  A    between atoms: C_5  and  C_6
REMARK    6  A    between atoms: C_5  and  C_7
REMARK    7  A    between atoms: C_10  and  C_11
REMARK    8  A    between atoms: C_19  and  C_20
REMARK                            x       y       z     vdW  Elec       q    Type
REMARK                         _______ _______ _______ _____ _____    ______ ____
ROOT
ATOM      1  N   UNL     1      46.379   5.886  12.306  0.00  0.00    +0.000 N 
ATOM      2  C   UNL     1      47.229   6.974  12.539  0.00  0.00    +0.000 A 
ATOM      3  C   UNL     1      48.104   7.388  11.537  0.00  0.00    +0.000 A 
ATOM      4  C   UNL     1      48.932   8.495  11.725  0.00  0.00    +0.000 A 
ATOM      5  C   UNL     1      48.892   9.185  12.928  0.00  0.00    +0.000 A 
ATOM      6  C   UNL     1      48.026   8.698  13.891  0.00  0.00    +0.000 A 
ATOM      7  N   UNL     1      47.217   7.614  13.727  0.00  0.00    +0.000 NA
ENDROOT
BRANCH   5   8
ATOM      8  C   UNL     1      49.767  10.370  13.090  0.00  0.00    +0.000 C 
ATOM      9  N   UNL     1      50.800  10.559  12.217  0.00  0.00    +0.000 N 
ATOM     10  O   UNL     1      49.585  11.174  13.997  0.00  0.00    +0.000 OA
ATOM     11  H   UNL     1      51.051   9.952  11.452  0.00  0.00    +0.000 HD
ATOM     12  H   UNL     1      51.379  11.373  12.379  0.00  0.00    +0.000 HD
ENDBRANCH   5   8
BRANCH   1  14
ATOM     13  C   UNL     1      46.846   3.794  13.663  0.00  0.00    +0.000 C 
ATOM     14  C   UNL     1      46.030   5.065  13.475  0.00  0.00    +0.000 C 
ENDBRANCH   1  14
BRANCH   1  15
ATOM     15  C   UNL     1      45.349   6.096  11.262  0.00  0.00    +0.000 C 
BRANCH  15  16
ATOM     16  C   UNL     1      44.564   4.798  10.937  0.00  0.00    +0.000 C 
ATOM     17  C   UNL     1      43.066   5.062  10.735  0.00  0.00    +0.000 C 
BRANCH  16  18
ATOM     18  C   UNL     1      45.121   4.025   9.744  0.00  0.00    +0.000 A 
ATOM     19  C   UNL     1      45.783   4.715   8.714  0.00  0.00    +0.000 A 
ATOM     20  C   UNL     1      46.414   4.020   7.675  0.00  0.00    +0.000 A 
ATOM     21  C   UNL     1      46.400   2.624   7.654  0.00  0.00    +0.000 A 
ATOM     22  C   UNL     1      45.699   1.928   8.646  0.00  0.00    +0.000 A 
ATOM     23  C   UNL     1      45.061   2.625   9.679  0.00  0.00    +0.000 A 
BRANCH  21  24
ATOM     24  C   UNL     1      47.137   1.920   6.571  0.00  0.00    +0.000 C 
ATOM     25  N   UNL     1      47.767   2.696   5.636  0.00  0.00    +0.000 N 
ATOM     26  O   UNL     1      47.148   0.700   6.484  0.00  0.00    +0.000 OA
ATOM     27  H   UNL     1      47.569   3.680   5.525  0.00  0.00    +0.000 HD
ATOM     28  H   UNL     1      48.165   2.207   4.844  0.00  0.00    +0.000 HD
ENDBRANCH  21  24
ENDBRANCH  16  18
ENDBRANCH  15  16
ENDBRANCH   1  15
TORSDOF 6
ENDMDL
MODEL 2
REMARK VINA RESULT:    -7.090      3.227      7.430
REMARK INTER + INTRA:         -10.501
REMARK INTER:                  -9.442
REMARK INTRA:                  -1.058
REMARK UNBOUND:                -0.923
REMARK  Name = 
REMARK  8 active torsions:
REMARK  status: ('A' for Active; 'I' for Inactive)
REMARK    1  A    between atoms: C_1  and  C_2
REMARK    2  A    between atoms: C_2  and  N_3
REMARK    3  A    between atoms: N_3  and  C_4
REMARK    4  A    between atoms: C_4  and  C_5
REMARK    5  A    between atoms: C_5  and  C_6
REMARK    6  A    between atoms: C_5  and  C_7
REMARK    7  A    between atoms: C_10  and  C_11
REMARK    8  A    between atoms: C_19  and  C_20
REMARK                            x       y       z     vdW  Elec       q    Type
REMARK                         _______ _______ _______ _____ _____    ______ ____
ROOT
ATOM      1  N   UNL     1      44.017   5.048  10.646  0.00  0.00    +0.000 N 
ATOM      2  C   UNL     1      44.711   4.190   9.785  0.00  0.00    +0.000 A 
ATOM      3  C   UNL     1      45.228   4.687   8.590  0.00  0.00    +0.000 A 
ATOM      4  C   UNL     1      45.961   3.866   7.734  0.00  0.00    +0.000 A 
ATOM      5  C   UNL     1      46.168   2.535   8.068  0.00  0.00    +0.000 A 
ATOM      6  C   UNL     1      45.598   2.100   9.251  0.00  0.00    +0.000 A 
ATOM      7  N   UNL     1      44.873   2.887  10.096  0.00  0.00    +0.000 NA
ENDROOT
BRANCH   5   8
ATOM      8  C   UNL     1      46.970   1.694   7.149  0.00  0.00    +0.000 C 
ATOM      9  N   UNL     1      47.490   2.254   6.017  0.00  0.00    +0.000 N 
ATOM     10  O   UNL     1      47.164   0.506   7.382  0.00  0.00    +0.000 OA
ATOM     11  H   UNL     1      47.374   3.210   5.720  0.00  0.00    +0.000 HD
ATOM     12  H   UNL     1      48.015   1.635   5.413  0.00  0.00    +0.000 HD
ENDBRANCH   5   8
BRANCH   1  14
ATOM     13  C   UNL     1      42.943   4.801  12.932  0.00  0.00    +0.000 C 
ATOM     14  C   UNL     1      42.946   4.442  11.452  0.00  0.00    +0.000 C 
ENDBRANCH   1  14
BRANCH   1  15
ATOM     15  C   UNL     1      44.825   6.132  11.253  0.00  0.00    +0.000 C 
BRANCH  15  16
ATOM     16  C   UNL     1      46.329   5.767  11.346  0.00  0.00    +0.000 C 
ATOM     17  C   UNL     1      47.236   6.946  10.974  0.00  0.00    +0.000 C 
BRANCH  16  18
ATOM     18  C   UNL     1      46.741   5.203  12.704  0.00  0.00    +0.000 A 
ATOM     19  C   UNL     1      47.238   6.065  13.696  0.00  0.00    +0.000 A 
ATOM     20  C   UNL     1      47.502   5.597  14.988  0.00  0.00    +0.000 A 
ATOM     21  C   UNL     1      47.265   4.258  15.312  0.00  0.00    +0.000 A 
ATOM     22  C   UNL     1      46.821   3.379  14.318  0.00  0.00    +0.000 A 
ATOM     23  C   UNL     1      46.567   3.848  13.023  0.00  0.00    +0.000 A 
BRANCH  21  24
ATOM     24  C   UNL     1      47.495   3.812  16.712  0.00  0.00    +0.000 C 
ATOM     25  N   UNL     1      48.752   3.986  17.226  0.00  0.00    +0.000 N 
ATOM     26  O   UNL     1      46.618   3.270  17.370  0.00  0.00    +0.000 OA
ATOM     27  H   UNL     1      49.553   4.185  16.645  0.00  0.00    +0.000 HD
ATOM     28  H   UNL     1      48.923   3.575  18.135  0.00  0.00    +0.000 HD
ENDBRANCH  21  24
ENDBRANCH  16  18
ENDBRANCH  15  16
ENDBRANCH   1  15
TORSDOF 6
ENDMDL
MODEL 3
REMARK VINA RESULT:    -7.068      1.880      7.611
REMARK INTER + INTRA:         -10.470
REMARK INTER:                  -9.816
REMARK INTRA:                  -0.654
REMARK UNBOUND:                -0.923
REMARK  Name = 
REMARK  8 active torsions:
REMARK  status: ('A' for Active; 'I' for Inactive)
REMARK    1  A    between atoms: C_1  and  C_2
REMARK    2  A    between atoms: C_2  and  N_3
REMARK    3  A    between atoms: N_3  and  C_4
REMARK    4  A    between atoms: C_4  and  C_5
REMARK    5  A    between atoms: C_5  and  C_6
REMARK    6  A    between atoms: C_5  and  C_7
REMARK    7  A    between atoms: C_10  and  C_11
REMARK    8  A    between atoms: C_19  and  C_20
REMARK                            x       y       z     vdW  Elec       q    Type
REMARK                         _______ _______ _______ _____ _____    ______ ____
ROOT
ATOM      1  N   UNL     1      44.492   4.867  10.667  0.00  0.00    +0.000 N 
ATOM      2  C   UNL     1      45.095   4.158   9.622  0.00  0.00    +0.000 A 
ATOM      3  C   UNL     1      45.980   4.814   8.769  0.00  0.00    +0.000 A 
ATOM      4  C   UNL     1      46.629   4.123   7.746  0.00  0.00    +0.000 A 
ATOM      5  C   UNL     1      46.382   2.769   7.567  0.00  0.00    +0.000 A 
ATOM      6  C   UNL     1      45.467   2.189   8.427  0.00  0.00    +0.000 A 
ATOM      7  N   UNL     1      44.819   2.851   9.427  0.00  0.00    +0.000 NA
ENDROOT
BRANCH   5   8
ATOM      8  C   UNL     1      47.105   2.058   6.486  0.00  0.00    +0.000 C 
ATOM      9  N   UNL     1      47.733   2.784   5.515  0.00  0.00    +0.000 N 
ATOM     10  O   UNL     1      47.137   0.833   6.444  0.00  0.00    +0.000 OA
ATOM     11  H   UNL     1      47.751   3.790   5.443  0.00  0.00    +0.000 HD
ATOM     12  H   UNL     1      48.196   2.253   4.790  0.00  0.00    +0.000 HD
ENDBRANCH   5   8
BRANCH   1  14
ATOM     13  C   UNL     1      42.299   5.461  11.798  0.00  0.00    +0.000 C 
ATOM     14  C   UNL     1      43.145   4.429  11.064  0.00  0.00    +0.000 C 
ENDBRANCH   1  14
BRANCH   1  15
ATOM     15  C   UNL     1      45.412   5.351  11.723  0.00  0.00    +0.000 C 
BRANCH  15  16
ATOM     16  C   UNL     1      46.032   6.730  11.379  0.00  0.00    +0.000 C 
ATOM     17  C   UNL     1      45.071   7.888  11.675  0.00  0.00    +0.000 C 
BRANCH  16  18
ATOM     18  C   UNL     1      47.377   6.985  12.056  0.00  0.00    +0.000 A 
ATOM     19  C   UNL     1      48.374   7.707  11.377  0.00  0.00    +0.000 A 
ATOM     20  C   UNL     1      49.565   8.064  12.020  0.00  0.00    +0.000 A 
ATOM     21  C   UNL     1      49.775   7.712  13.355  0.00  0.00    +0.000 A 
ATOM     22  C   UNL     1      48.813   6.947  14.024  0.00  0.00    +0.000 A 
ATOM     23  C   UNL     1      47.626   6.583  13.376  0.00  0.00    +0.000 A 
BRANCH  21  24
ATOM     24  C   UNL     1      51.024   8.166  14.023  0.00  0.00    +0.000 C 
ATOM     25  N   UNL     1      51.475   7.422  15.080  0.00  0.00    +0.000 N 
ATOM     26  O   UNL     1      51.606   9.186  13.681  0.00  0.00    +0.000 OA
ATOM     27  H   UNL     1      50.897   6.739  15.548  0.00  0.00    +0.000 HD
ATOM     28  H   UNL     1      52.257   7.806  15.595  0.00  0.00    +0.000 HD
ENDBRANCH  21  24
ENDBRANCH  16  18
ENDBRANCH  15  16
ENDBRANCH   1  15
TORSDOF 6
ENDMDL
MODEL 4
REMARK VINA RESULT:    -6.561      5.073      8.584
REMARK INTER + INTRA:          -9.785
REMARK INTER:                  -9.093
REMARK INTRA:                  -0.692
REMARK UNBOUND:                -0.923
REMARK  Name = 
REMARK  8 active torsions:
REMARK  status: ('A' for Active; 'I' for Inactive)
REMARK    1  A    between atoms: C_1  and  C_2
REMARK    2  A    between atoms: C_2  and  N_3
REMARK    3  A    between atoms: N_3  and  C_4
REMARK    4  A    between atoms: C_4  and  C_5
REMARK    5  A    between atoms: C_5  and  C_6
REMARK    6  A    between atoms: C_5  and  C_7
REMARK    7  A    between atoms: C_10  and  C_11
REMARK    8  A    between atoms: C_19  and  C_20
REMARK                            x       y       z     vdW  Elec       q    Type
REMARK                         _______ _______ _______ _____ _____    ______ ____
ROOT
ATOM      1  N   UNL     1      47.705   5.300  14.747  0.00  0.00    +0.000 N 
ATOM      2  C   UNL     1      46.739   4.991  13.782  0.00  0.00    +0.000 A 
ATOM      3  C   UNL     1      46.614   3.678  13.333  0.00  0.00    +0.000 A 
ATOM      4  C   UNL     1      45.632   3.333  12.404  0.00  0.00    +0.000 A 
ATOM      5  C   UNL     1      44.778   4.309  11.912  0.00  0.00    +0.000 A 
ATOM      6  C   UNL     1      44.981   5.598  12.375  0.00  0.00    +0.000 A 
ATOM      7  N   UNL     1      45.940   5.953  13.276  0.00  0.00    +0.000 NA
ENDROOT
BRANCH   5   8
ATOM      8  C   UNL     1      43.730   3.907  10.944  0.00  0.00    +0.000 C 
ATOM      9  N   UNL     1      43.663   4.540   9.736  0.00  0.00    +0.000 N 
ATOM     10  O   UNL     1      42.921   3.027  11.214  0.00  0.00    +0.000 OA
ATOM     11  H   UNL     1      44.262   5.286   9.421  0.00  0.00    +0.000 HD
ATOM     12  H   UNL     1      42.920   4.241   9.117  0.00  0.00    +0.000 HD
ENDBRANCH   5   8
BRANCH   1  14
ATOM     13  C   UNL     1      49.150   6.946  13.466  0.00  0.00    +0.000 C 
ATOM     14  C   UNL     1      48.285   6.650  14.684  0.00  0.00    +0.000 C 
ENDBRANCH   1  14
BRANCH   1  15
ATOM     15  C   UNL     1      47.492   4.688  16.079  0.00  0.00    +0.000 C 
BRANCH  15  16
ATOM     16  C   UNL     1      48.546   5.153  17.119  0.00  0.00    +0.000 C 
ATOM     17  C   UNL     1      47.902   5.588  18.441  0.00  0.00    +0.000 C 
BRANCH  16  18
ATOM     18  C   UNL     1      49.640   4.123  17.387  0.00  0.00    +0.000 A 
ATOM     19  C   UNL     1      49.396   2.762  17.133  0.00  0.00    +0.000 A 
ATOM     20  C   UNL     1      50.419   1.815  17.248  0.00  0.00    +0.000 A 
ATOM     21  C   UNL     1      51.707   2.214  17.612  0.00  0.00    +0.000 A 
ATOM     22  C   UNL     1      51.950   3.557  17.919  0.00  0.00    +0.000 A 
ATOM     23  C   UNL     1      50.922   4.502  17.812  0.00  0.00    +0.000 A 
BRANCH  21  24
ATOM     24  C   UNL     1      52.784   1.189  17.659  0.00  0.00    +0.000 C 
ATOM     25  N   UNL     1      52.466  -0.029  18.198  0.00  0.00    +0.000 N 
ATOM     26  O   UNL     1      53.922   1.429  17.279  0.00  0.00    +0.000 OA
ATOM     27  H   UNL     1      51.633  -0.177  18.748  0.00  0.00    +0.000 HD
ATOM     28  H   UNL     1      53.235  -0.674  18.329  0.00  0.00    +0.000 HD
ENDBRANCH  21  24
ENDBRANCH  16  18
ENDBRANCH  15  16
ENDBRANCH   1  15
TORSDOF 6
ENDMDL
MODEL 5
REMARK VINA RESULT:    -6.296      1.460      2.136
REMARK INTER + INTRA:          -9.428
REMARK INTER:                  -8.571
REMARK INTRA:                  -0.857
REMARK UNBOUND:                -0.923
REMARK  Name = 
REMARK  8 active torsions:
REMARK  status: ('A' for Active; 'I' for Inactive)
REMARK    1  A    between atoms: C_1  and  C_2
REMARK    2  A    between atoms: C_2  and  N_3
REMARK    3  A    between atoms: N_3  and  C_4
REMARK    4  A    between atoms: C_4  and  C_5
REMARK    5  A    between atoms: C_5  and  C_6
REMARK    6  A    between atoms: C_5  and  C_7
REMARK    7  A    between atoms: C_10  and  C_11
REMARK    8  A    between atoms: C_19  and  C_20
REMARK                            x       y       z     vdW  Elec       q    Type
REMARK                         _______ _______ _______ _____ _____    ______ ____
ROOT
ATOM      1  N   UNL     1      44.385   5.367  12.262  0.00  0.00    +0.000 N 
ATOM      2  C   UNL     1      45.420   6.232  12.636  0.00  0.00    +0.000 A 
ATOM      3  C   UNL     1      46.736   5.774  12.623  0.00  0.00    +0.000 A 
ATOM      4  C   UNL     1      47.791   6.626  12.949  0.00  0.00    +0.000 A 
ATOM      5  C   UNL     1      47.528   7.941  13.302  0.00  0.00    +0.000 A 
ATOM      6  C   UNL     1      46.197   8.319  13.328  0.00  0.00    +0.000 A 
ATOM      7  N   UNL     1      45.154   7.498  13.020  0.00  0.00    +0.000 NA
ENDROOT
BRANCH   5   8
ATOM      8  C   UNL     1      48.672   8.828  13.621  0.00  0.00    +0.000 C 
ATOM      9  N   UNL     1      49.032   9.797  12.729  0.00  0.00    +0.000 N 
ATOM     10  O   UNL     1      49.303   8.699  14.664  0.00  0.00    +0.000 OA
ATOM     11  H   UNL     1      48.597   9.976  11.837  0.00  0.00    +0.000 HD
ATOM     12  H   UNL     1      49.829  10.364  12.984  0.00  0.00    +0.000 HD
ENDBRANCH   5   8
BRANCH   1  14
ATOM     13  C   UNL     1      41.905   5.825  11.984  0.00  0.00    +0.000 C 
ATOM     14  C   UNL     1      43.085   5.580  12.915  0.00  0.00    +0.000 C 
ENDBRANCH   1  14
BRANCH   1  15
ATOM     15  C   UNL     1      44.397   4.935  10.845  0.00  0.00    +0.000 C 
BRANCH  15  16
ATOM     16  C   UNL     1      44.786   3.443  10.684  0.00  0.00    +0.000 C 
ATOM     17  C   UNL     1      43.601   2.504  10.938  0.00  0.00    +0.000 C 
BRANCH  16  18
ATOM     18  C   UNL     1      45.428   3.117   9.338  0.00  0.00    +0.000 A 
ATOM     19  C   UNL     1      45.807   4.160   8.475  0.00  0.00    +0.000 A 
ATOM     20  C   UNL     1      46.511   3.895   7.295  0.00  0.00    +0.000 A 
ATOM     21  C   UNL     1      46.856   2.583   6.962  0.00  0.00    +0.000 A 
ATOM     22  C   UNL     1      46.439   1.533   7.787  0.00  0.00    +0.000 A 
ATOM     23  C   UNL     1      45.726   1.798   8.962  0.00  0.00    +0.000 A 
BRANCH  21  24
ATOM     24  C   UNL     1      47.663   2.347   5.735  0.00  0.00    +0.000 C 
ATOM     25  N   UNL     1      47.372   3.113   4.638  0.00  0.00    +0.000 N 
ATOM     26  O   UNL     1      48.520   1.477   5.682  0.00  0.00    +0.000 OA
ATOM     27  H   UNL     1      46.519   3.648   4.561  0.00  0.00    +0.000 HD
ATOM     28  H   UNL     1      47.847   2.864   3.780  0.00  0.00    +0.000 HD
ENDBRANCH  21  24
ENDBRANCH  16  18
ENDBRANCH  15  16
ENDBRANCH   1  15
TORSDOF 6
ENDMDL
MODEL 6
REMARK VINA RESULT:    -6.213      3.418      7.566
REMARK INTER + INTRA:          -9.315
REMARK INTER:                  -8.871
REMARK INTRA:                  -0.445
REMARK UNBOUND:                -0.923
REMARK  Name = 
REMARK  8 active torsions:
REMARK  status: ('A' for Active; 'I' for Inactive)
REMARK    1  A    between atoms: C_1  and  C_2
REMARK    2  A    between atoms: C_2  and  N_3
REMARK    3  A    between atoms: N_3  and  C_4
REMARK    4  A    between atoms: C_4  and  C_5
REMARK    5  A    between atoms: C_5  and  C_6
REMARK    6  A    between atoms: C_5  and  C_7
REMARK    7  A    between atoms: C_10  and  C_11
REMARK    8  A    between atoms: C_19  and  C_20
REMARK                            x       y       z     vdW  Elec       q    Type
REMARK                         _______ _______ _______ _____ _____    ______ ____
ROOT
ATOM      1  N   UNL     1      45.936   8.317  12.050  0.00  0.00    +0.000 N 
ATOM      2  C   UNL     1      45.415   7.052  11.758  0.00  0.00    +0.000 A 
ATOM      3  C   UNL     1      46.001   6.284  10.753  0.00  0.00    +0.000 A 
ATOM      4  C   UNL     1      45.531   5.002  10.469  0.00  0.00    +0.000 A 
ATOM      5  C   UNL     1      44.461   4.488  11.188  0.00  0.00    +0.000 A 
ATOM      6  C   UNL     1      43.905   5.317  12.147  0.00  0.00    +0.000 A 
ATOM      7  N   UNL     1      44.348   6.574  12.431  0.00  0.00    +0.000 NA
ENDROOT
BRANCH   5   8
ATOM      8  C   UNL     1      43.999   3.114  10.878  0.00  0.00    +0.000 C 
ATOM      9  N   UNL     1      44.718   2.351  10.003  0.00  0.00    +0.000 N 
ATOM     10  O   UNL     1      42.980   2.658  11.385  0.00  0.00    +0.000 OA
ATOM     11  H   UNL     1      45.554   2.634   9.517  0.00  0.00    +0.000 HD
ATOM     12  H   UNL     1      44.353   1.428   9.812  0.00  0.00    +0.000 HD
ENDBRANCH   5   8
BRANCH   1  14
ATOM     13  C   UNL     1      44.560  10.382  11.520  0.00  0.00    +0.000 C 
ATOM     14  C   UNL     1      44.978   9.324  12.532  0.00  0.00    +0.000 C 
ENDBRANCH   1  14
BRANCH   1  15
ATOM     15  C   UNL     1      47.308   8.328  12.611  0.00  0.00    +0.000 C 
BRANCH  15  16
ATOM     16  C   UNL     1      47.951   6.917  12.628  0.00  0.00    +0.000 C 
ATOM     17  C   UNL     1      49.410   6.940  12.156  0.00  0.00    +0.000 C 
BRANCH  16  18
ATOM     18  C   UNL     1      47.852   6.213  13.978  0.00  0.00    +0.000 A 
ATOM     19  C   UNL     1      47.084   5.042  14.099  0.00  0.00    +0.000 A 
ATOM     20  C   UNL     1      47.079   4.306  15.290  0.00  0.00    +0.000 A 
ATOM     21  C   UNL     1      47.848   4.726  16.378  0.00  0.00    +0.000 A 
ATOM     22  C   UNL     1      48.574   5.919  16.286  0.00  0.00    +0.000 A 
ATOM     23  C   UNL     1      48.571   6.658  15.097  0.00  0.00    +0.000 A 
BRANCH  21  24
ATOM     24  C   UNL     1      47.869   3.884  17.603  0.00  0.00    +0.000 C 
ATOM     25  N   UNL     1      47.001   2.826  17.651  0.00  0.00    +0.000 N 
ATOM     26  O   UNL     1      48.594   4.143  18.554  0.00  0.00    +0.000 OA
ATOM     27  H   UNL     1      46.223   2.735  17.015  0.00  0.00    +0.000 HD
ATOM     28  H   UNL     1      46.946   2.334  18.533  0.00  0.00    +0.000 HD
ENDBRANCH  21  24
ENDBRANCH  16  18
ENDBRANCH  15  16
ENDBRANCH   1  15
TORSDOF 6
ENDMDL
MODEL 7
REMARK VINA RESULT:    -5.988      4.009      5.692
REMARK INTER + INTRA:          -9.011
REMARK INTER:                  -8.068
REMARK INTRA:                  -0.943
REMARK UNBOUND:                -0.923
REMARK  Name = 
REMARK  8 active torsions:
REMARK  status: ('A' for Active; 'I' for Inactive)
REMARK    1  A    between atoms: C_1  and  C_2
REMARK    2  A    between atoms: C_2  and  N_3
REMARK    3  A    between atoms: N_3  and  C_4
REMARK    4  A    between atoms: C_4  and  C_5
REMARK    5  A    between atoms: C_5  and  C_6
REMARK    6  A    between atoms: C_5  and  C_7
REMARK    7  A    between atoms: C_10  and  C_11
REMARK    8  A    between atoms: C_19  and  C_20
REMARK                            x       y       z     vdW  Elec       q    Type
REMARK                         _______ _______ _______ _____ _____    ______ ____
ROOT
ATOM      1  N   UNL     1      49.092   7.854  14.501  0.00  0.00    +0.000 N 
ATOM      2  C   UNL     1      49.551   6.963  15.478  0.00  0.00    +0.000 A 
ATOM      3  C   UNL     1      48.655   6.078  16.076  0.00  0.00    +0.000 A 
ATOM      4  C   UNL     1      49.093   5.150  17.020  0.00  0.00    +0.000 A 
ATOM      5  C   UNL     1      50.433   5.114  17.379  0.00  0.00    +0.000 A 
ATOM      6  C   UNL     1      51.259   6.043  16.772  0.00  0.00    +0.000 A 
ATOM      7  N   UNL     1      50.847   6.962  15.853  0.00  0.00    +0.000 NA
ENDROOT
BRANCH   5   8
ATOM      8  C   UNL     1      50.871   4.101  18.368  0.00  0.00    +0.000 C 
ATOM      9  N   UNL     1      50.495   4.240  19.674  0.00  0.00    +0.000 N 
ATOM     10  O   UNL     1      51.571   3.152  18.037  0.00  0.00    +0.000 OA
ATOM     11  H   UNL     1      49.940   4.990  20.056  0.00  0.00    +0.000 HD
ATOM     12  H   UNL     1      50.833   3.533  20.313  0.00  0.00    +0.000 HD
ENDBRANCH   5   8
BRANCH   1  14
ATOM     13  C   UNL     1      49.220  10.265  15.281  0.00  0.00    +0.000 C 
ATOM     14  C   UNL     1      49.786   9.148  14.416  0.00  0.00    +0.000 C 
ENDBRANCH   1  14
BRANCH   1  15
ATOM     15  C   UNL     1      48.611   7.231  13.246  0.00  0.00    +0.000 C 
BRANCH  15  16
ATOM     16  C   UNL     1      47.084   7.409  13.044  0.00  0.00    +0.000 C 
ATOM     17  C   UNL     1      46.749   8.672  12.241  0.00  0.00    +0.000 C 
BRANCH  16  18
ATOM     18  C   UNL     1      46.402   6.197  12.414  0.00  0.00    +0.000 A 
ATOM     19  C   UNL     1      46.169   5.048  13.188  0.00  0.00    +0.000 A 
ATOM     20  C   UNL     1      45.433   3.973  12.675  0.00  0.00    +0.000 A 
ATOM     21  C   UNL     1      44.911   4.035  11.381  0.00  0.00    +0.000 A 
ATOM     22  C   UNL     1      45.181   5.152  10.583  0.00  0.00    +0.000 A 
ATOM     23  C   UNL     1      45.926   6.221  11.095  0.00  0.00    +0.000 A 
BRANCH  21  24
ATOM     24  C   UNL     1      44.078   2.902  10.894  0.00  0.00    +0.000 C 
ATOM     25  N   UNL     1      44.558   2.184   9.832  0.00  0.00    +0.000 N 
ATOM     26  O   UNL     1      42.988   2.644  11.384  0.00  0.00    +0.000 OA
ATOM     27  H   UNL     1      45.310   2.518   9.246  0.00  0.00    +0.000 HD
ATOM     28  H   UNL     1      43.931   1.493   9.440  0.00  0.00    +0.000 HD
ENDBRANCH  21  24
ENDBRANCH  16  18
ENDBRANCH  15  16
ENDBRANCH   1  15
TORSDOF 6
ENDMDL
MODEL 8
REMARK VINA RESULT:    -5.934      2.058      2.727
REMARK INTER + INTRA:          -8.939
REMARK INTER:                  -8.385
REMARK INTRA:                  -0.554
REMARK UNBOUND:                -0.923
REMARK  Name = 
REMARK  8 active torsions:
REMARK  status: ('A' for Active; 'I' for Inactive)
REMARK    1  A    between atoms: C_1  and  C_2
REMARK    2  A    between atoms: C_2  and  N_3
REMARK    3  A    between atoms: N_3  and  C_4
REMARK    4  A    between atoms: C_4  and  C_5
REMARK    5  A    between atoms: C_5  and  C_6
REMARK    6  A    between atoms: C_5  and  C_7
REMARK    7  A    between atoms: C_10  and  C_11
REMARK    8  A    between atoms: C_19  and  C_20
REMARK                            x       y       z     vdW  Elec       q    Type
REMARK                         _______ _______ _______ _____ _____    ______ ____
ROOT
ATOM      1  N   UNL     1      44.775   8.112  11.792  0.00  0.00    +0.000 N 
ATOM      2  C   UNL     1      46.020   7.956  12.412  0.00  0.00    +0.000 A 
ATOM      3  C   UNL     1      46.293   6.787  13.121  0.00  0.00    +0.000 A 
ATOM      4  C   UNL     1      47.540   6.586  13.712  0.00  0.00    +0.000 A 
ATOM      5  C   UNL     1      48.517   7.564  13.604  0.00  0.00    +0.000 A 
ATOM      6  C   UNL     1      48.168   8.713  12.917  0.00  0.00    +0.000 A 
ATOM      7  N   UNL     1      46.952   8.929  12.340  0.00  0.00    +0.000 NA
ENDROOT
BRANCH   5   8
ATOM      8  C   UNL     1      49.840   7.311  14.224  0.00  0.00    +0.000 C 
ATOM      9  N   UNL     1      50.957   7.845  13.649  0.00  0.00    +0.000 N 
ATOM     10  O   UNL     1      49.946   6.625  15.233  0.00  0.00    +0.000 OA
ATOM     11  H   UNL     1      50.985   8.404  12.810  0.00  0.00    +0.000 HD
ATOM     12  H   UNL     1      51.837   7.629  14.099  0.00  0.00    +0.000 HD
ENDBRANCH   5   8
BRANCH   1  14
ATOM     13  C   UNL     1      43.556   9.839  10.389  0.00  0.00    +0.000 C 
ATOM     14  C   UNL     1      44.262   9.486  11.691  0.00  0.00    +0.000 C 
ENDBRANCH   1  14
BRANCH   1  15
ATOM     15  C   UNL     1      44.496   7.174  10.680  0.00  0.00    +0.000 C 
BRANCH  15  16
ATOM     16  C   UNL     1      44.179   5.741  11.180  0.00  0.00    +0.000 C 
ATOM     17  C   UNL     1      42.694   5.559  11.517  0.00  0.00    +0.000 C 
BRANCH  16  18
ATOM     18  C   UNL     1      44.633   4.642  10.222  0.00  0.00    +0.000 A 
ATOM     19  C   UNL     1      45.476   4.960   9.144  0.00  0.00    +0.000 A 
ATOM     20  C   UNL     1      46.009   3.956   8.329  0.00  0.00    +0.000 A 
ATOM     21  C   UNL     1      45.714   2.614   8.583  0.00  0.00    +0.000 A 
ATOM     22  C   UNL     1      44.834   2.289   9.621  0.00  0.00    +0.000 A 
ATOM     23  C   UNL     1      44.294   3.296  10.430  0.00  0.00    +0.000 A 
BRANCH  21  24
ATOM     24  C   UNL     1      46.352   1.571   7.736  0.00  0.00    +0.000 C 
ATOM     25  N   UNL     1      46.859   1.969   6.528  0.00  0.00    +0.000 N 
ATOM     26  O   UNL     1      46.387   0.396   8.074  0.00  0.00    +0.000 OA
ATOM     27  H   UNL     1      46.624   2.856   6.107  0.00  0.00    +0.000 HD
ATOM     28  H   UNL     1      47.184   1.232   5.916  0.00  0.00    +0.000 HD
ENDBRANCH  21  24
ENDBRANCH  16  18
ENDBRANCH  15  16
ENDBRANCH   1  15
TORSDOF 6
ENDMDL
MODEL 9
REMARK VINA RESULT:    -5.867      4.017      8.760
REMARK INTER + INTRA:          -8.848
REMARK INTER:                  -7.805
REMARK INTRA:                  -1.043
REMARK UNBOUND:                -0.923
REMARK  Name = 
REMARK  8 active torsions:
REMARK  status: ('A' for Active; 'I' for Inactive)
REMARK    1  A    between atoms: C_1  and  C_2
REMARK    2  A    between atoms: C_2  and  N_3
REMARK    3  A    between atoms: N_3  and  C_4
REMARK    4  A    between atoms: C_4  and  C_5
REMARK    5  A    between atoms: C_5  and  C_6
REMARK    6  A    between atoms: C_5  and  C_7
REMARK    7  A    between atoms: C_10  and  C_11
REMARK    8  A    between atoms: C_19  and  C_20
REMARK                            x       y       z     vdW  Elec       q    Type
REMARK                         _______ _______ _______ _____ _____    ______ ____
ROOT
ATOM      1  N   UNL     1      48.063   7.359  12.920  0.00  0.00    +0.000 N 
ATOM      2  C   UNL     1      47.060   6.436  12.601  0.00  0.00    +0.000 A 
ATOM      3  C   UNL     1      46.875   5.317  13.411  0.00  0.00    +0.000 A 
ATOM      4  C   UNL     1      45.856   4.404  13.142  0.00  0.00    +0.000 A 
ATOM      5  C   UNL     1      45.024   4.604  12.050  0.00  0.00    +0.000 A 
ATOM      6  C   UNL     1      45.286   5.716  11.269  0.00  0.00    +0.000 A 
ATOM      7  N   UNL     1      46.282   6.614  11.513  0.00  0.00    +0.000 NA
ENDROOT
BRANCH   5   8
ATOM      8  C   UNL     1      43.936   3.628  11.804  0.00  0.00    +0.000 C 
ATOM      9  N   UNL     1      43.919   2.458  12.508  0.00  0.00    +0.000 N 
ATOM     10  O   UNL     1      43.061   3.849  10.974  0.00  0.00    +0.000 OA
ATOM     11  H   UNL     1      44.597   2.169  13.195  0.00  0.00    +0.000 HD
ATOM     12  H   UNL     1      43.167   1.818  12.292  0.00  0.00    +0.000 HD
ENDBRANCH   5   8
BRANCH   1  14
ATOM     13  C   UNL     1      50.153   7.730  11.529  0.00  0.00    +0.000 C 
ATOM     14  C   UNL     1      48.690   8.062  11.790  0.00  0.00    +0.000 C 
ENDBRANCH   1  14
BRANCH   1  15
ATOM     15  C   UNL     1      47.866   8.102  14.186  0.00  0.00    +0.000 C 
BRANCH  15  16
ATOM     16  C   UNL     1      49.102   8.017  15.120  0.00  0.00    +0.000 C 
ATOM     17  C   UNL     1      49.614   9.403  15.531  0.00  0.00    +0.000 C 
BRANCH  16  18
ATOM     18  C   UNL     1      48.876   7.157  16.362  0.00  0.00    +0.000 A 
ATOM     19  C   UNL     1      49.007   5.761  16.276  0.00  0.00    +0.000 A 
ATOM     20  C   UNL     1      48.932   4.961  17.422  0.00  0.00    +0.000 A 
ATOM     21  C   UNL     1      48.733   5.546  18.675  0.00  0.00    +0.000 A 
ATOM     22  C   UNL     1      48.549   6.930  18.765  0.00  0.00    +0.000 A 
ATOM     23  C   UNL     1      48.615   7.728  17.616  0.00  0.00    +0.000 A 
BRANCH  21  24
ATOM     24  C   UNL     1      48.725   4.671  19.877  0.00  0.00    +0.000 C 
ATOM     25  N   UNL     1      48.384   3.358  19.694  0.00  0.00    +0.000 N 
ATOM     26  O   UNL     1      48.966   5.106  20.995  0.00  0.00    +0.000 OA
ATOM     27  H   UNL     1      47.936   3.027  18.852  0.00  0.00    +0.000 HD
ATOM     28  H   UNL     1      48.271   2.804  20.533  0.00  0.00    +0.000 HD
ENDBRANCH  21  24
ENDBRANCH  16  18
ENDBRANCH  15  16
ENDBRANCH   1  15
TORSDOF 6
ENDMDL
