MODEL 1
REMARK VINA RESULT:    -7.581      0.000      0.000
REMARK INTER + INTRA:         -10.409
REMARK INTER:                  -9.796
REMARK INTRA:                  -0.613
REMARK UNBOUND:                -0.613
REMARK  Name = 
REMARK  6 active torsions:
REMARK  status: ('A' for Active; 'I' for Inactive)
REMARK    1  A    between atoms: C_1  and  C_2
REMARK    2  A    between atoms: C_2  and  C_3
REMARK    3  A    between atoms: C_3  and  N_4
REMARK    4  A    between atoms: C_3  and  C_14
REMARK    5  A    between atoms: N_4  and  C_5
REMARK    6  A    between atoms: C_8  and  C_9
REMARK                            x       y       z     vdW  Elec       q    Type
REMARK                         _______ _______ _______ _____ _____    ______ ____
ROOT
ATOM      1  N   UNL     1      43.891   4.837  10.013  0.00  0.00    +0.000 N 
ATOM      2  H   UNL     1      43.528   5.631   9.497  0.00  0.00    +0.000 HD
ENDROOT
BRANCH   1   3
ATOM      3  C   UNL     1      44.725   4.032   9.250  0.00  0.00    +0.000 A 
ATOM      4  C   UNL     1      45.673   4.665   8.430  0.00  0.00    +0.000 A 
ATOM      5  C   UNL     1      46.545   3.927   7.622  0.00  0.00    +0.000 A 
ATOM      6  C   UNL     1      46.509   2.528   7.646  0.00  0.00    +0.000 A 
ATOM      7  C   UNL     1      45.562   1.888   8.442  0.00  0.00    +0.000 A 
ATOM      8  C   UNL     1      44.674   2.636   9.231  0.00  0.00    +0.000 A 
BRANCH   6   9
ATOM      9  C   UNL     1      47.491   1.786   6.811  0.00  0.00    +0.000 C 
ATOM     10  N   UNL     1      48.572   2.484   6.351  0.00  0.00    +0.000 N 
ATOM     11  O   UNL     1      47.323   0.614   6.501  0.00  0.00    +0.000 OA
ATOM     12  H   UNL     1      48.616   3.492   6.370  0.00  0.00    +0.000 HD
ATOM     13  H   UNL     1      49.158   2.001   5.681  0.00  0.00    +0.000 HD
ENDBRANCH   6   9
ENDBRANCH   1   3
BRANCH   1  14
ATOM     14  C   UNL     1      44.082   5.075  11.444  0.00  0.00    +0.000 C 
BRANCH  14  15
ATOM     15  C   UNL     1      45.020   6.262  11.617  0.00  0.00    +0.000 A 
ATOM     16  C   UNL     1      44.500   7.565  11.532  0.00  0.00    +0.000 A 
ATOM     17  C   UNL     1      45.317   8.677  11.739  0.00  0.00    +0.000 A 
ATOM     18  C   UNL     1      46.668   8.505  12.025  0.00  0.00    +0.000 A 
ATOM     19  C   UNL     1      47.207   7.221  12.091  0.00  0.00    +0.000 A 
ATOM     20  C   UNL     1      46.390   6.106  11.887  0.00  0.00    +0.000 A 
ENDBRANCH  14  15
BRANCH  14  22
ATOM     21  C   UNL     1      43.485   2.852  12.542  0.00  0.00    +0.000 C 
ATOM     22  C   UNL     1      44.608   3.806  12.144  0.00  0.00    +0.000 C 
ENDBRANCH  14  22
ENDBRANCH   1  14
TORSDOF 5
ENDMDL
MODEL 2
REMARK VINA RESULT:    -7.529      1.262      1.956
REMARK INTER + INTRA:         -10.342
REMARK INTER:                  -9.469
REMARK INTRA:                  -0.873
REMARK UNBOUND:                -0.613
REMARK  Name = 
REMARK  6 active torsions:
REMARK  status: ('A' for Active; 'I' for Inactive)
REMARK    1  A    between atoms: C_1  and  C_2
REMARK    2  A    between atoms: C_2  and  C_3
REMARK    3  A    between atoms: C_3  and  N_4
REMARK    4  A    between atoms: C_3  and  C_14
REMARK    5  A    between atoms: N_4  and  C_5
REMARK    6  A    between atoms: C_8  and  C_9
REMARK                            x       y       z     vdW  Elec       q    Type
REMARK                         _______ _______ _______ _____ _____    ______ ____
ROOT
ATOM      1  N   UNL     1      44.218   4.506  10.458  0.00  0.00    +0.000 N 
ATOM      2  H   UNL     1      43.233   4.275  10.395  0.00  0.00    +0.000 HD
ENDROOT
BRANCH   1   3
ATOM      3  C   UNL     1      44.988   3.855   9.504  0.00  0.00    +0.000 A 
ATOM      4  C   UNL     1      45.691   4.646   8.582  0.00  0.00    +0.000 A 
ATOM      5  C   UNL     1      46.481   4.069   7.582  0.00  0.00    +0.000 A 
ATOM      6  C   UNL     1      46.613   2.677   7.507  0.00  0.00    +0.000 A 
ATOM      7  C   UNL     1      45.907   1.881   8.406  0.00  0.00    +0.000 A 
ATOM      8  C   UNL     1      45.097   2.466   9.391  0.00  0.00    +0.000 A 
BRANCH   6   9
ATOM      9  C   UNL     1      47.506   2.111   6.461  0.00  0.00    +0.000 C 
ATOM     10  N   UNL     1      47.756   2.890   5.366  0.00  0.00    +0.000 N 
ATOM     11  O   UNL     1      47.964   0.980   6.542  0.00  0.00    +0.000 OA
ATOM     12  H   UNL     1      47.207   3.707   5.145  0.00  0.00    +0.000 HD
ATOM     13  H   UNL     1      48.256   2.442   4.608  0.00  0.00    +0.000 HD
ENDBRANCH   6   9
ENDBRANCH   1   3
BRANCH   1  14
ATOM     14  C   UNL     1      44.498   5.859  10.940  0.00  0.00    +0.000 C 
BRANCH  14  15
ATOM     15  C   UNL     1      45.588   5.781  12.001  0.00  0.00    +0.000 A 
ATOM     16  C   UNL     1      45.448   4.868  13.061  0.00  0.00    +0.000 A 
ATOM     17  C   UNL     1      46.450   4.728  14.021  0.00  0.00    +0.000 A 
ATOM     18  C   UNL     1      47.602   5.504  13.943  0.00  0.00    +0.000 A 
ATOM     19  C   UNL     1      47.749   6.431  12.913  0.00  0.00    +0.000 A 
ATOM     20  C   UNL     1      46.748   6.570  11.948  0.00  0.00    +0.000 A 
ENDBRANCH  14  15
BRANCH  14  22
ATOM     21  C   UNL     1      42.125   5.508  11.807  0.00  0.00    +0.000 C 
ATOM     22  C   UNL     1      43.212   6.526  11.470  0.00  0.00    +0.000 C 
ENDBRANCH  14  22
ENDBRANCH   1  14
TORSDOF 5
ENDMDL
MODEL 3
REMARK VINA RESULT:    -6.828      1.283      2.130
REMARK INTER + INTRA:          -9.436
REMARK INTER:                  -8.858
REMARK INTRA:                  -0.578
REMARK UNBOUND:                -0.613
REMARK  Name = 
REMARK  6 active torsions:
REMARK  status: ('A' for Active; 'I' for Inactive)
REMARK    1  A    between atoms: C_1  and  C_2
REMARK    2  A    between atoms: C_2  and  C_3
REMARK    3  A    between atoms: C_3  and  N_4
REMARK    4  A    between atoms: C_3  and  C_14
REMARK    5  A    between atoms: N_4  and  C_5
REMARK    6  A    between atoms: C_8  and  C_9
REMARK                            x       y       z     vdW  Elec       q    Type
REMARK                         _______ _______ _______ _____ _____    ______ ____
ROOT
ATOM      1  N   UNL     1      44.158   5.219  10.010  0.00  0.00    +0.000 N 
ATOM      2  H   UNL     1      43.816   5.970   9.421  0.00  0.00    +0.000 HD
ENDROOT
BRANCH   1   3
ATOM      3  C   UNL     1      44.901   4.279   9.310  0.00  0.00    +0.000 A 
ATOM      4  C   UNL     1      44.674   2.923   9.593  0.00  0.00    +0.000 A 
ATOM      5  C   UNL     1      45.389   1.914   8.939  0.00  0.00    +0.000 A 
ATOM      6  C   UNL     1      46.328   2.243   7.955  0.00  0.00    +0.000 A 
ATOM      7  C   UNL     1      46.576   3.586   7.677  0.00  0.00    +0.000 A 
ATOM      8  C   UNL     1      45.872   4.593   8.355  0.00  0.00    +0.000 A 
BRANCH   6   9
ATOM      9  C   UNL     1      47.025   1.135   7.250  0.00  0.00    +0.000 C 
ATOM     10  N   UNL     1      46.751  -0.139   7.665  0.00  0.00    +0.000 N 
ATOM     11  O   UNL     1      47.847   1.342   6.368  0.00  0.00    +0.000 OA
ATOM     12  H   UNL     1      46.285  -0.336   8.538  0.00  0.00    +0.000 HD
ATOM     13  H   UNL     1      47.328  -0.869   7.265  0.00  0.00    +0.000 HD
ENDBRANCH   6   9
ENDBRANCH   1   3
BRANCH   1  14
ATOM     14  C   UNL     1      44.437   5.607  11.393  0.00  0.00    +0.000 C 
BRANCH  14  15
ATOM     15  C   UNL     1      44.529   7.126  11.460  0.00  0.00    +0.000 A 
ATOM     16  C   UNL     1      45.650   7.718  12.067  0.00  0.00    +0.000 A 
ATOM     17  C   UNL     1      45.798   9.104  12.101  0.00  0.00    +0.000 A 
ATOM     18  C   UNL     1      44.824   9.922  11.536  0.00  0.00    +0.000 A 
ATOM     19  C   UNL     1      43.694   9.355  10.950  0.00  0.00    +0.000 A 
ATOM     20  C   UNL     1      43.545   7.966  10.913  0.00  0.00    +0.000 A 
ENDBRANCH  14  15
BRANCH  14  22
ATOM     21  C   UNL     1      45.516   4.250  13.263  0.00  0.00    +0.000 C 
ATOM     22  C   UNL     1      45.718   4.920  11.905  0.00  0.00    +0.000 C 
ENDBRANCH  14  22
ENDBRANCH   1  14
TORSDOF 5
ENDMDL
MODEL 4
REMARK VINA RESULT:    -6.761      3.451      6.620
REMARK INTER + INTRA:          -9.350
REMARK INTER:                  -8.625
REMARK INTRA:                  -0.724
REMARK UNBOUND:                -0.613
REMARK  Name = 
REMARK  6 active torsions:
REMARK  status: ('A' for Active; 'I' for Inactive)
REMARK    1  A    between atoms: C_1  and  C_2
REMARK    2  A    between atoms: C_2  and  C_3
REMARK    3  A    between atoms: C_3  and  N_4
REMARK    4  A    between atoms: C_3  and  C_14
REMARK    5  A    between atoms: N_4  and  C_5
REMARK    6  A    between atoms: C_8  and  C_9
REMARK                            x       y       z     vdW  Elec       q    Type
REMARK                         _______ _______ _______ _____ _____    ______ ____
ROOT
ATOM      1  N   UNL     1      44.820   6.045  10.705  0.00  0.00    +0.000 N 
ATOM      2  H   UNL     1      44.056   6.547  10.268  0.00  0.00    +0.000 HD
ENDROOT
BRANCH   1   3
ATOM      3  C   UNL     1      45.540   6.827  11.597  0.00  0.00    +0.000 A 
ATOM      4  C   UNL     1      46.672   6.257  12.201  0.00  0.00    +0.000 A 
ATOM      5  C   UNL     1      47.447   6.975  13.119  0.00  0.00    +0.000 A 
ATOM      6  C   UNL     1      47.122   8.301  13.426  0.00  0.00    +0.000 A 
ATOM      7  C   UNL     1      45.991   8.873  12.846  0.00  0.00    +0.000 A 
ATOM      8  C   UNL     1      45.205   8.139  11.945  0.00  0.00    +0.000 A 
BRANCH   6   9
ATOM      9  C   UNL     1      48.005   9.042  14.366  0.00  0.00    +0.000 C 
ATOM     10  N   UNL     1      47.578   9.160  15.660  0.00  0.00    +0.000 N 
ATOM     11  O   UNL     1      49.046   9.569  13.999  0.00  0.00    +0.000 OA
ATOM     12  H   UNL     1      46.628   8.966  15.937  0.00  0.00    +0.000 HD
ATOM     13  H   UNL     1      48.124   9.775  16.251  0.00  0.00    +0.000 HD
ENDBRANCH   6   9
ENDBRANCH   1   3
BRANCH   1  14
ATOM     14  C   UNL     1      44.582   4.613  10.893  0.00  0.00    +0.000 C 
BRANCH  14  15
ATOM     15  C   UNL     1      45.147   3.866   9.692  0.00  0.00    +0.000 A 
ATOM     16  C   UNL     1      45.747   4.596   8.651  0.00  0.00    +0.000 A 
ATOM     17  C   UNL     1      46.324   3.945   7.561  0.00  0.00    +0.000 A 
ATOM     18  C   UNL     1      46.304   2.556   7.489  0.00  0.00    +0.000 A 
ATOM     19  C   UNL     1      45.693   1.815   8.499  0.00  0.00    +0.000 A 
ATOM     20  C   UNL     1      45.117   2.465   9.594  0.00  0.00    +0.000 A 
ENDBRANCH  14  15
BRANCH  14  22
ATOM     21  C   UNL     1      42.368   5.479  11.818  0.00  0.00    +0.000 C 
ATOM     22  C   UNL     1      43.080   4.333  11.102  0.00  0.00    +0.000 C 
ENDBRANCH  14  22
ENDBRANCH   1  14
TORSDOF 5
ENDMDL
MODEL 5
REMARK VINA RESULT:    -6.678      3.684      6.564
REMARK INTER + INTRA:          -9.242
REMARK INTER:                  -8.443
REMARK INTRA:                  -0.800
REMARK UNBOUND:                -0.613
REMARK  Name = 
REMARK  6 active torsions:
REMARK  status: ('A' for Active; 'I' for Inactive)
REMARK    1  A    between atoms: C_1  and  C_2
REMARK    2  A    between atoms: C_2  and  C_3
REMARK    3  A    between atoms: C_3  and  N_4
REMARK    4  A    between atoms: C_3  and  C_14
REMARK    5  A    between atoms: N_4  and  C_5
REMARK    6  A    between atoms: C_8  and  C_9
REMARK                            x       y       z     vdW  Elec       q    Type
REMARK                         _______ _______ _______ _____ _____    ______ ____
ROOT
ATOM      1  N   UNL     1      45.635   5.506  11.262  0.00  0.00    +0.000 N 
ATOM      2  H   UNL     1      45.399   6.435  10.931  0.00  0.00    +0.000 HD
ENDROOT
BRANCH   1   3
ATOM      3  C   UNL     1      46.303   5.519  12.478  0.00  0.00    +0.000 A 
ATOM      4  C   UNL     1      46.056   4.465  13.371  0.00  0.00    +0.000 A 
ATOM      5  C   UNL     1      46.680   4.408  14.622  0.00  0.00    +0.000 A 
ATOM      6  C   UNL     1      47.600   5.396  14.992  0.00  0.00    +0.000 A 
ATOM      7  C   UNL     1      47.841   6.457  14.122  0.00  0.00    +0.000 A 
ATOM      8  C   UNL     1      47.192   6.520  12.879  0.00  0.00    +0.000 A 
BRANCH   6   9
ATOM      9  C   UNL     1      48.279   5.266  16.309  0.00  0.00    +0.000 C 
ATOM     10  N   UNL     1      47.515   5.460  17.426  0.00  0.00    +0.000 N 
ATOM     11  O   UNL     1      49.479   5.045  16.401  0.00  0.00    +0.000 OA
ATOM     12  H   UNL     1      46.601   5.886  17.391  0.00  0.00    +0.000 HD
ATOM     13  H   UNL     1      48.018   5.497  18.304  0.00  0.00    +0.000 HD
ENDBRANCH   6   9
ENDBRANCH   1   3
BRANCH   1  14
ATOM     14  C   UNL     1      44.691   4.460  10.866  0.00  0.00    +0.000 C 
BRANCH  14  15
ATOM     15  C   UNL     1      45.234   3.760   9.627  0.00  0.00    +0.000 A 
ATOM     16  C   UNL     1      45.778   4.533   8.587  0.00  0.00    +0.000 A 
ATOM     17  C   UNL     1      46.334   3.927   7.460  0.00  0.00    +0.000 A 
ATOM     18  C   UNL     1      46.347   2.540   7.351  0.00  0.00    +0.000 A 
ATOM     19  C   UNL     1      45.792   1.757   8.362  0.00  0.00    +0.000 A 
ATOM     20  C   UNL     1      45.237   2.362   9.493  0.00  0.00    +0.000 A 
ENDBRANCH  14  15
BRANCH  14  22
ATOM     21  C   UNL     1      42.569   5.375  11.945  0.00  0.00    +0.000 C 
ATOM     22  C   UNL     1      43.286   5.051  10.636  0.00  0.00    +0.000 C 
ENDBRANCH  14  22
ENDBRANCH   1  14
TORSDOF 5
ENDMDL
MODEL 6
REMARK VINA RESULT:    -6.464      3.224      6.107
REMARK INTER + INTRA:          -8.966
REMARK INTER:                  -8.997
REMARK INTRA:                   0.031
REMARK UNBOUND:                -0.613
REMARK  Name = 
REMARK  6 active torsions:
REMARK  status: ('A' for Active; 'I' for Inactive)
REMARK    1  A    between atoms: C_1  and  C_2
REMARK    2  A    between atoms: C_2  and  C_3
REMARK    3  A    between atoms: C_3  and  N_4
REMARK    4  A    between atoms: C_3  and  C_14
REMARK    5  A    between atoms: N_4  and  C_5
REMARK    6  A    between atoms: C_8  and  C_9
REMARK                            x       y       z     vdW  Elec       q    Type
REMARK                         _______ _______ _______ _____ _____    ______ ____
ROOT
ATOM      1  N   UNL     1      44.776   3.410  11.895  0.00  0.00    +0.000 N 
ATOM      2  H   UNL     1      45.068   2.450  12.040  0.00  0.00    +0.000 HD
ENDROOT
BRANCH   1   3
ATOM      3  C   UNL     1      45.664   4.331  12.434  0.00  0.00    +0.000 A 
ATOM      4  C   UNL     1      46.202   4.057  13.701  0.00  0.00    +0.000 A 
ATOM      5  C   UNL     1      47.096   4.938  14.319  0.00  0.00    +0.000 A 
ATOM      6  C   UNL     1      47.501   6.104  13.659  0.00  0.00    +0.000 A 
ATOM      7  C   UNL     1      46.962   6.397  12.408  0.00  0.00    +0.000 A 
ATOM      8  C   UNL     1      46.046   5.520  11.806  0.00  0.00    +0.000 A 
BRANCH   6   9
ATOM      9  C   UNL     1      48.494   6.984  14.332  0.00  0.00    +0.000 C 
ATOM     10  N   UNL     1      48.015   7.874  15.252  0.00  0.00    +0.000 N 
ATOM     11  O   UNL     1      49.683   6.956  14.047  0.00  0.00    +0.000 OA
ATOM     12  H   UNL     1      47.035   8.101  15.328  0.00  0.00    +0.000 HD
ATOM     13  H   UNL     1      48.682   8.550  15.602  0.00  0.00    +0.000 HD
ENDBRANCH   6   9
ENDBRANCH   1   3
BRANCH   1  14
ATOM     14  C   UNL     1      44.019   3.639  10.664  0.00  0.00    +0.000 C 
BRANCH  14  15
ATOM     15  C   UNL     1      44.910   3.301   9.476  0.00  0.00    +0.000 A 
ATOM     16  C   UNL     1      45.391   4.341   8.663  0.00  0.00    +0.000 A 
ATOM     17  C   UNL     1      46.253   4.078   7.599  0.00  0.00    +0.000 A 
ATOM     18  C   UNL     1      46.642   2.770   7.325  0.00  0.00    +0.000 A 
ATOM     19  C   UNL     1      46.158   1.723   8.107  0.00  0.00    +0.000 A 
ATOM     20  C   UNL     1      45.296   1.985   9.175  0.00  0.00    +0.000 A 
ENDBRANCH  14  15
BRANCH  14  22
ATOM     21  C   UNL     1      42.406   5.352  11.647  0.00  0.00    +0.000 C 
ATOM     22  C   UNL     1      43.492   5.087  10.608  0.00  0.00    +0.000 C 
ENDBRANCH  14  22
ENDBRANCH   1  14
TORSDOF 5
ENDMDL
MODEL 7
REMARK VINA RESULT:    -6.024      3.561      6.209
REMARK INTER + INTRA:          -8.397
REMARK INTER:                  -7.595
REMARK INTRA:                  -0.802
REMARK UNBOUND:                -0.613
REMARK  Name = 
REMARK  6 active torsions:
REMARK  status: ('A' for Active; 'I' for Inactive)
REMARK    1  A    between atoms: C_1  and  C_2
REMARK    2  A    between atoms: C_2  and  C_3
REMARK    3  A    between atoms: C_3  and  N_4
REMARK    4  A    between atoms: C_3  and  C_14
REMARK    5  A    between atoms: N_4  and  C_5
REMARK    6  A    between atoms: C_8  and  C_9
REMARK                            x       y       z     vdW  Elec       q    Type
REMARK                         _______ _______ _______ _____ _____    ______ ____
ROOT
ATOM      1  N   UNL     1      45.013   5.822  11.823  0.00  0.00    +0.000 N 
ATOM      2  H   UNL     1      44.246   6.461  12.002  0.00  0.00    +0.000 HD
ENDROOT
BRANCH   1   3
ATOM      3  C   UNL     1      46.210   6.242  12.384  0.00  0.00    +0.000 A 
ATOM      4  C   UNL     1      46.938   7.232  11.705  0.00  0.00    +0.000 A 
ATOM      5  C   UNL     1      48.159   7.704  12.198  0.00  0.00    +0.000 A 
ATOM      6  C   UNL     1      48.662   7.217  13.410  0.00  0.00    +0.000 A 
ATOM      7  C   UNL     1      47.958   6.223  14.085  0.00  0.00    +0.000 A 
ATOM      8  C   UNL     1      46.746   5.736  13.572  0.00  0.00    +0.000 A 
BRANCH   6   9
ATOM      9  C   UNL     1      49.938   7.787  13.921  0.00  0.00    +0.000 C 
ATOM     10  N   UNL     1      50.564   7.108  14.929  0.00  0.00    +0.000 N 
ATOM     11  O   UNL     1      50.391   8.843  13.502  0.00  0.00    +0.000 OA
ATOM     12  H   UNL     1      50.104   6.388  15.466  0.00  0.00    +0.000 HD
ATOM     13  H   UNL     1      51.356   7.575  15.352  0.00  0.00    +0.000 HD
ENDBRANCH   6   9
ENDBRANCH   1   3
BRANCH   1  14
ATOM     14  C   UNL     1      44.620   4.417  11.709  0.00  0.00    +0.000 C 
BRANCH  14  15
ATOM     15  C   UNL     1      45.035   3.907  10.335  0.00  0.00    +0.000 A 
ATOM     16  C   UNL     1      44.942   2.532  10.057  0.00  0.00    +0.000 A 
ATOM     17  C   UNL     1      45.261   2.034   8.794  0.00  0.00    +0.000 A 
ATOM     18  C   UNL     1      45.686   2.900   7.791  0.00  0.00    +0.000 A 
ATOM     19  C   UNL     1      45.806   4.263   8.054  0.00  0.00    +0.000 A 
ATOM     20  C   UNL     1      45.484   4.765   9.318  0.00  0.00    +0.000 A 
ENDBRANCH  14  15
BRANCH  14  22
ATOM     21  C   UNL     1      42.334   5.548  11.742  0.00  0.00    +0.000 C 
ATOM     22  C   UNL     1      43.108   4.250  11.962  0.00  0.00    +0.000 C 
ENDBRANCH  14  22
ENDBRANCH   1  14
TORSDOF 5
ENDMDL
MODEL 8
REMARK VINA RESULT:    -5.878      4.650      7.250
REMARK INTER + INTRA:          -8.209
REMARK INTER:                  -7.442
REMARK INTRA:                  -0.767
REMARK UNBOUND:                -0.613
REMARK  Name = 
REMARK  6 active torsions:
REMARK  status: ('A' for Active; 'I' for Inactive)
REMARK    1  A    between atoms: C_1  and  C_2
REMARK    2  A    between atoms: C_2  and  C_3
REMARK    3  A    between atoms: C_3  and  N_4
REMARK    4  A    between atoms: C_3  and  C_14
REMARK    5  A    between atoms: N_4  and  C_5
REMARK    6  A    between atoms: C_8  and  C_9
REMARK                            x       y       z     vdW  Elec       q    Type
REMARK                         _______ _______ _______ _____ _____    ______ ____
ROOT
ATOM      1  N   UNL     1      46.924   5.972  12.628  0.00  0.00    +0.000 N 
ATOM      2  H   UNL     1      47.532   6.649  12.181  0.00  0.00    +0.000 HD
ENDROOT
BRANCH   1   3
ATOM      3  C   UNL     1      47.328   5.650  13.916  0.00  0.00    +0.000 A 
ATOM      4  C   UNL     1      46.806   4.481  14.492  0.00  0.00    +0.000 A 
ATOM      5  C   UNL     1      47.154   4.091  15.789  0.00  0.00    +0.000 A 
ATOM      6  C   UNL     1      48.067   4.850  16.530  0.00  0.00    +0.000 A 
ATOM      7  C   UNL     1      48.579   6.022  15.977  0.00  0.00    +0.000 A 
ATOM      8  C   UNL     1      48.206   6.420  14.684  0.00  0.00    +0.000 A 
BRANCH   6   9
ATOM      9  C   UNL     1      48.448   4.368  17.884  0.00  0.00    +0.000 C 
ATOM     10  N   UNL     1      47.679   3.379  18.433  0.00  0.00    +0.000 N 
ATOM     11  O   UNL     1      49.375   4.860  18.511  0.00  0.00    +0.000 OA
ATOM     12  H   UNL     1      46.773   3.129  18.065  0.00  0.00    +0.000 HD
ATOM     13  H   UNL     1      47.871   3.155  19.401  0.00  0.00    +0.000 HD
ENDBRANCH   6   9
ENDBRANCH   1   3
BRANCH   1  14
ATOM     14  C   UNL     1      45.524   6.042  12.211  0.00  0.00    +0.000 C 
BRANCH  14  15
ATOM     15  C   UNL     1      45.310   5.062  11.064  0.00  0.00    +0.000 A 
ATOM     16  C   UNL     1      44.704   3.821  11.326  0.00  0.00    +0.000 A 
ATOM     17  C   UNL     1      44.442   2.920  10.295  0.00  0.00    +0.000 A 
ATOM     18  C   UNL     1      44.789   3.241   8.986  0.00  0.00    +0.000 A 
ATOM     19  C   UNL     1      45.411   4.457   8.708  0.00  0.00    +0.000 A 
ATOM     20  C   UNL     1      45.672   5.362   9.741  0.00  0.00    +0.000 A 
ENDBRANCH  14  15
BRANCH  14  22
ATOM     21  C   UNL     1      45.594   8.505  12.868  0.00  0.00    +0.000 C 
ATOM     22  C   UNL     1      45.139   7.485  11.827  0.00  0.00    +0.000 C 
ENDBRANCH  14  22
ENDBRANCH   1  14
TORSDOF 5
ENDMDL
MODEL 9
REMARK VINA RESULT:    -5.738      3.958      5.855
REMARK INTER + INTRA:          -8.028
REMARK INTER:                  -7.214
REMARK INTRA:                  -0.814
REMARK UNBOUND:                -0.613
REMARK  Name = 
REMARK  6 active torsions:
REMARK  status: ('A' for Active; 'I' for Inactive)
REMARK    1  A    between atoms: C_1  and  C_2
REMARK    2  A    between atoms: C_2  and  C_3
REMARK    3  A    between atoms: C_3  and  N_4
REMARK    4  A    between atoms: C_3  and  C_14
REMARK    5  A    between atoms: N_4  and  C_5
REMARK    6  A    between atoms: C_8  and  C_9
REMARK                            x       y       z     vdW  Elec       q    Type
REMARK                         _______ _______ _______ _____ _____    ______ ____
ROOT
ATOM      1  N   UNL     1      47.188   6.802  14.003  0.00  0.00    +0.000 N 
ATOM      2  H   UNL     1      47.043   7.805  13.991  0.00  0.00    +0.000 HD
ENDROOT
BRANCH   1   3
ATOM      3  C   UNL     1      46.492   6.143  13.000  0.00  0.00    +0.000 A 
ATOM      4  C   UNL     1      45.788   4.979  13.347  0.00  0.00    +0.000 A 
ATOM      5  C   UNL     1      45.070   4.251  12.393  0.00  0.00    +0.000 A 
ATOM      6  C   UNL     1      45.011   4.697  11.068  0.00  0.00    +0.000 A 
ATOM      7  C   UNL     1      45.719   5.841  10.706  0.00  0.00    +0.000 A 
ATOM      8  C   UNL     1      46.458   6.552  11.664  0.00  0.00    +0.000 A 
BRANCH   6   9
ATOM      9  C   UNL     1      44.192   3.919  10.100  0.00  0.00    +0.000 C 
ATOM     10  N   UNL     1      44.117   4.396   8.821  0.00  0.00    +0.000 N 
ATOM     11  O   UNL     1      43.566   2.923  10.434  0.00  0.00    +0.000 OA
ATOM     12  H   UNL     1      44.403   5.332   8.573  0.00  0.00    +0.000 HD
ATOM     13  H   UNL     1      43.455   3.931   8.213  0.00  0.00    +0.000 HD
ENDBRANCH   6   9
ENDBRANCH   1   3
BRANCH   1  14
ATOM     14  C   UNL     1      48.503   6.381  14.489  0.00  0.00    +0.000 C 
BRANCH  14  15
ATOM     15  C   UNL     1      48.366   5.943  15.941  0.00  0.00    +0.000 A 
ATOM     16  C   UNL     1      48.810   6.803  16.961  0.00  0.00    +0.000 A 
ATOM     17  C   UNL     1      48.653   6.461  18.304  0.00  0.00    +0.000 A 
ATOM     18  C   UNL     1      48.058   5.252  18.650  0.00  0.00    +0.000 A 
ATOM     19  C   UNL     1      47.632   4.376  17.653  0.00  0.00    +0.000 A 
ATOM     20  C   UNL     1      47.786   4.717  16.306  0.00  0.00    +0.000 A 
ENDBRANCH  14  15
BRANCH  14  22
ATOM     21  C   UNL     1      49.878   7.766  12.847  0.00  0.00    +0.000 C 
ATOM     22  C   UNL     1      49.536   7.512  14.314  0.00  0.00    +0.000 C 
ENDBRANCH  14  22
ENDBRANCH   1  14
TORSDOF 5
ENDMDL
