MODEL 1
REMARK VINA RESULT:    -7.506      0.000      0.000
REMARK INTER + INTRA:          -9.654
REMARK INTER:                  -9.262
REMARK INTRA:                  -0.393
REMARK UNBOUND:                -0.393
REMARK  Name = 
REMARK  4 active torsions:
REMARK  status: ('A' for Active; 'I' for Inactive)
REMARK    1  A    between atoms: C_2  and  C_4
REMARK    2  A    between atoms: C_7  and  O_8
REMARK    3  A    between atoms: O_8  and  C_9
REMARK    4  A    between atoms: C_9  and  C_10
REMARK                            x       y       z     vdW  Elec       q    Type
REMARK                         _______ _______ _______ _____ _____    ______ ____
ROOT
ATOM      1  C   UNL     1      46.387   2.665   7.567  0.00  0.00    +0.000 A 
ATOM      2  C   UNL     1      45.828   1.684   8.378  0.00  0.00    +0.000 A 
ATOM      3  N   UNL     1      44.858   1.962   9.290  0.00  0.00    +0.000 NA
ATOM      4  C   UNL     1      44.459   3.251   9.355  0.00  0.00    +0.000 A 
ATOM      5  C   UNL     1      45.002   4.215   8.499  0.00  0.00    +0.000 A 
ATOM      6  N   UNL     1      45.984   3.964   7.608  0.00  0.00    +0.000 NA
ENDROOT
BRANCH   1   8
ATOM      7  N   UNL     1      47.505   3.063   5.457  0.00  0.00    +0.000 N 
ATOM      8  C   UNL     1      47.482   2.334   6.617  0.00  0.00    +0.000 C 
ATOM      9  O   UNL     1      48.321   1.477   6.861  0.00  0.00    +0.000 OA
ATOM     10  H   UNL     1      48.256   2.915   4.801  0.00  0.00    +0.000 HD
ATOM     11  H   UNL     1      46.857   3.829   5.320  0.00  0.00    +0.000 HD
ENDBRANCH   1   8
BRANCH   4  12
ATOM     12  O   UNL     1      43.536   3.523  10.323  0.00  0.00    +0.000 OA
BRANCH  12  13
ATOM     13  C   UNL     1      43.845   2.936  11.592  0.00  0.00    +0.000 C 
BRANCH  13  14
ATOM     14  C   UNL     1      44.869   3.765  12.322  0.00  0.00    +0.000 A 
ATOM     15  C   UNL     1      44.726   5.150  12.361  0.00  0.00    +0.000 A 
ATOM     16  C   UNL     1      45.666   5.898  13.057  0.00  0.00    +0.000 A 
ATOM     17  C   UNL     1      46.715   5.248  13.697  0.00  0.00    +0.000 A 
ATOM     18  C   UNL     1      46.772   3.865  13.626  0.00  0.00    +0.000 A 
ATOM     19  N   UNL     1      45.871   3.110  12.961  0.00  0.00    +0.000 NA
ENDBRANCH  13  14
ENDBRANCH  12  13
ENDBRANCH   4  12
TORSDOF 4
ENDMDL
MODEL 2
REMARK VINA RESULT:    -7.426      2.141      6.068
REMARK INTER + INTRA:          -9.555
REMARK INTER:                  -9.182
REMARK INTRA:                  -0.373
REMARK UNBOUND:                -0.393
REMARK  Name = 
REMARK  4 active torsions:
REMARK  status: ('A' for Active; 'I' for Inactive)
REMARK    1  A    between atoms: C_2  and  C_4
REMARK    2  A    between atoms: C_7  and  O_8
REMARK    3  A    between atoms: O_8  and  C_9
REMARK    4  A    between atoms: C_9  and  C_10
REMARK                            x       y       z     vdW  Elec       q    Type
REMARK                         _______ _______ _______ _____ _____    ______ ____
ROOT
ATOM      1  C   UNL     1      46.409   4.693  13.343  0.00  0.00    +0.000 A 
ATOM      2  C   UNL     1      46.309   5.660  12.348  0.00  0.00    +0.000 A 
ATOM      3  N   UNL     1      45.631   5.442  11.189  0.00  0.00    +0.000 NA
ATOM      4  C   UNL     1      45.051   4.230  11.063  0.00  0.00    +0.000 A 
ATOM      5  C   UNL     1      45.124   3.286  12.093  0.00  0.00    +0.000 A 
ATOM      6  N   UNL     1      45.814   3.474  13.238  0.00  0.00    +0.000 NA
ENDROOT
BRANCH   1   8
ATOM      7  N   UNL     1      46.769   4.301  15.704  0.00  0.00    +0.000 N 
ATOM      8  C   UNL     1      47.200   4.947  14.575  0.00  0.00    +0.000 C 
ATOM      9  O   UNL     1      48.185   5.674  14.581  0.00  0.00    +0.000 OA
ATOM     10  H   UNL     1      47.301   4.398  16.556  0.00  0.00    +0.000 HD
ATOM     11  H   UNL     1      46.010   3.632  15.654  0.00  0.00    +0.000 HD
ENDBRANCH   1   8
BRANCH   4  12
ATOM     12  O   UNL     1      44.435   4.005   9.865  0.00  0.00    +0.000 OA
BRANCH  12  13
ATOM     13  C   UNL     1      44.449   2.631   9.462  0.00  0.00    +0.000 C 
BRANCH  13  14
ATOM     14  C   UNL     1      45.495   2.402   8.402  0.00  0.00    +0.000 A 
ATOM     15  C   UNL     1      45.831   3.442   7.537  0.00  0.00    +0.000 A 
ATOM     16  C   UNL     1      46.814   3.221   6.582  0.00  0.00    +0.000 A 
ATOM     17  C   UNL     1      47.435   1.980   6.517  0.00  0.00    +0.000 A 
ATOM     18  C   UNL     1      47.056   1.007   7.428  0.00  0.00    +0.000 A 
ATOM     19  N   UNL     1      46.108   1.192   8.372  0.00  0.00    +0.000 NA
ENDBRANCH  13  14
ENDBRANCH  12  13
ENDBRANCH   4  12
TORSDOF 4
ENDMDL
MODEL 3
REMARK VINA RESULT:    -6.565      2.782      6.038
REMARK INTER + INTRA:          -8.493
REMARK INTER:                  -8.115
REMARK INTRA:                  -0.378
REMARK UNBOUND:                -0.393
REMARK  Name = 
REMARK  4 active torsions:
REMARK  status: ('A' for Active; 'I' for Inactive)
REMARK    1  A    between atoms: C_2  and  C_4
REMARK    2  A    between atoms: C_7  and  O_8
REMARK    3  A    between atoms: O_8  and  C_9
REMARK    4  A    between atoms: C_9  and  C_10
REMARK                            x       y       z     vdW  Elec       q    Type
REMARK                         _______ _______ _______ _____ _____    ______ ____
ROOT
ATOM      1  C   UNL     1      44.674   7.158  11.568  0.00  0.00    +0.000 A 
ATOM      2  C   UNL     1      43.593   6.398  11.135  0.00  0.00    +0.000 A 
ATOM      3  N   UNL     1      43.686   5.058  10.924  0.00  0.00    +0.000 NA
ATOM      4  C   UNL     1      44.892   4.502  11.169  0.00  0.00    +0.000 A 
ATOM      5  C   UNL     1      45.956   5.275  11.647  0.00  0.00    +0.000 A 
ATOM      6  N   UNL     1      45.890   6.610  11.837  0.00  0.00    +0.000 NA
ENDROOT
BRANCH   1   8
ATOM      7  N   UNL     1      45.078   9.141  12.895  0.00  0.00    +0.000 N 
ATOM      8  C   UNL     1      44.551   8.629  11.739  0.00  0.00    +0.000 C 
ATOM      9  O   UNL     1      44.026   9.343  10.895  0.00  0.00    +0.000 OA
ATOM     10  H   UNL     1      45.067  10.140  13.038  0.00  0.00    +0.000 HD
ATOM     11  H   UNL     1      45.590   8.544  13.534  0.00  0.00    +0.000 HD
ENDBRANCH   1   8
BRANCH   4  12
ATOM     12  O   UNL     1      44.984   3.170  10.885  0.00  0.00    +0.000 OA
BRANCH  12  13
ATOM     13  C   UNL     1      44.354   2.801   9.654  0.00  0.00    +0.000 C 
BRANCH  13  14
ATOM     14  C   UNL     1      45.388   2.527   8.593  0.00  0.00    +0.000 A 
ATOM     15  C   UNL     1      45.775   3.555   7.734  0.00  0.00    +0.000 A 
ATOM     16  C   UNL     1      46.746   3.292   6.777  0.00  0.00    +0.000 A 
ATOM     17  C   UNL     1      47.305   2.022   6.704  0.00  0.00    +0.000 A 
ATOM     18  C   UNL     1      46.878   1.063   7.609  0.00  0.00    +0.000 A 
ATOM     19  N   UNL     1      45.940   1.288   8.554  0.00  0.00    +0.000 NA
ENDBRANCH  13  14
ENDBRANCH  12  13
ENDBRANCH   4  12
TORSDOF 4
ENDMDL
MODEL 4
REMARK VINA RESULT:    -6.528      2.419      6.085
REMARK INTER + INTRA:          -8.448
REMARK INTER:                  -8.041
REMARK INTRA:                  -0.406
REMARK UNBOUND:                -0.393
REMARK  Name = 
REMARK  4 active torsions:
REMARK  status: ('A' for Active; 'I' for Inactive)
REMARK    1  A    between atoms: C_2  and  C_4
REMARK    2  A    between atoms: C_7  and  O_8
REMARK    3  A    between atoms: O_8  and  C_9
REMARK    4  A    between atoms: C_9  and  C_10
REMARK                            x       y       z     vdW  Elec       q    Type
REMARK                         _______ _______ _______ _____ _____    ______ ____
ROOT
ATOM      1  C   UNL     1      46.798   5.544  13.504  0.00  0.00    +0.000 A 
ATOM      2  C   UNL     1      45.886   6.174  12.666  0.00  0.00    +0.000 A 
ATOM      3  N   UNL     1      45.018   5.478  11.884  0.00  0.00    +0.000 NA
ATOM      4  C   UNL     1      45.087   4.132  11.975  0.00  0.00    +0.000 A 
ATOM      5  C   UNL     1      45.982   3.517  12.858  0.00  0.00    +0.000 A 
ATOM      6  N   UNL     1      46.869   4.190  13.621  0.00  0.00    +0.000 NA
ENDROOT
BRANCH   1   8
ATOM      7  N   UNL     1      47.588   7.693  14.289  0.00  0.00    +0.000 N 
ATOM      8  C   UNL     1      47.767   6.335  14.307  0.00  0.00    +0.000 C 
ATOM      9  O   UNL     1      48.660   5.808  14.959  0.00  0.00    +0.000 OA
ATOM     10  H   UNL     1      48.186   8.274  14.857  0.00  0.00    +0.000 HD
ATOM     11  H   UNL     1      46.787   8.098  13.819  0.00  0.00    +0.000 HD
ENDBRANCH   1   8
BRANCH   4  12
ATOM     12  O   UNL     1      44.257   3.451  11.132  0.00  0.00    +0.000 OA
BRANCH  12  13
ATOM     13  C   UNL     1      44.149   4.041   9.833  0.00  0.00    +0.000 C 
BRANCH  13  14
ATOM     14  C   UNL     1      45.158   3.436   8.892  0.00  0.00    +0.000 A 
ATOM     15  C   UNL     1      45.385   2.062   8.925  0.00  0.00    +0.000 A 
ATOM     16  C   UNL     1      46.300   1.516   8.035  0.00  0.00    +0.000 A 
ATOM     17  C   UNL     1      46.958   2.350   7.138  0.00  0.00    +0.000 A 
ATOM     18  C   UNL     1      46.659   3.702   7.157  0.00  0.00    +0.000 A 
ATOM     19  N   UNL     1      45.770   4.262   8.006  0.00  0.00    +0.000 NA
ENDBRANCH  13  14
ENDBRANCH  12  13
ENDBRANCH   4  12
TORSDOF 4
ENDMDL
MODEL 5
REMARK VINA RESULT:    -5.898      3.735      5.937
REMARK INTER + INTRA:          -7.670
REMARK INTER:                  -7.386
REMARK INTRA:                  -0.284
REMARK UNBOUND:                -0.393
REMARK  Name = 
REMARK  4 active torsions:
REMARK  status: ('A' for Active; 'I' for Inactive)
REMARK    1  A    between atoms: C_2  and  C_4
REMARK    2  A    between atoms: C_7  and  O_8
REMARK    3  A    between atoms: O_8  and  C_9
REMARK    4  A    between atoms: C_9  and  C_10
REMARK                            x       y       z     vdW  Elec       q    Type
REMARK                         _______ _______ _______ _____ _____    ______ ____
ROOT
ATOM      1  C   UNL     1      44.794   4.285  12.111  0.00  0.00    +0.000 A 
ATOM      2  C   UNL     1      45.556   3.223  12.585  0.00  0.00    +0.000 A 
ATOM      3  N   UNL     1      46.532   3.389  13.518  0.00  0.00    +0.000 NA
ATOM      4  C   UNL     1      46.713   4.650  13.966  0.00  0.00    +0.000 A 
ATOM      5  C   UNL     1      45.906   5.698  13.511  0.00  0.00    +0.000 A 
ATOM      6  N   UNL     1      44.951   5.558  12.567  0.00  0.00    +0.000 NA
ENDROOT
BRANCH   1   8
ATOM      7  N   UNL     1      43.511   5.156  10.253  0.00  0.00    +0.000 N 
ATOM      8  C   UNL     1      43.770   4.075  11.054  0.00  0.00    +0.000 C 
ATOM      9  O   UNL     1      43.204   3.001  10.897  0.00  0.00    +0.000 OA
ATOM     10  H   UNL     1      42.862   5.053   9.487  0.00  0.00    +0.000 HD
ATOM     11  H   UNL     1      44.058   6.003  10.342  0.00  0.00    +0.000 HD
ENDBRANCH   1   8
BRANCH   4  12
ATOM     12  O   UNL     1      47.742   4.808  14.850  0.00  0.00    +0.000 OA
BRANCH  12  13
ATOM     13  C   UNL     1      47.549   4.111  16.085  0.00  0.00    +0.000 C 
BRANCH  13  14
ATOM     14  C   UNL     1      48.871   3.672  16.657  0.00  0.00    +0.000 A 
ATOM     15  C   UNL     1      49.154   2.311  16.759  0.00  0.00    +0.000 A 
ATOM     16  C   UNL     1      50.387   1.923  17.266  0.00  0.00    +0.000 A 
ATOM     17  C   UNL     1      51.302   2.896  17.651  0.00  0.00    +0.000 A 
ATOM     18  C   UNL     1      50.949   4.227  17.497  0.00  0.00    +0.000 A 
ATOM     19  N   UNL     1      49.761   4.636  17.003  0.00  0.00    +0.000 NA
ENDBRANCH  13  14
ENDBRANCH  12  13
ENDBRANCH   4  12
TORSDOF 4
ENDMDL
MODEL 6
REMARK VINA RESULT:    -5.578      3.892      5.756
REMARK INTER + INTRA:          -7.275
REMARK INTER:                  -6.933
REMARK INTRA:                  -0.342
REMARK UNBOUND:                -0.393
REMARK  Name = 
REMARK  4 active torsions:
REMARK  status: ('A' for Active; 'I' for Inactive)
REMARK    1  A    between atoms: C_2  and  C_4
REMARK    2  A    between atoms: C_7  and  O_8
REMARK    3  A    between atoms: O_8  and  C_9
REMARK    4  A    between atoms: C_9  and  C_10
REMARK                            x       y       z     vdW  Elec       q    Type
REMARK                         _______ _______ _______ _____ _____    ______ ____
ROOT
ATOM      1  C   UNL     1      44.669   5.001  12.013  0.00  0.00    +0.000 A 
ATOM      2  C   UNL     1      44.997   3.663  12.204  0.00  0.00    +0.000 A 
ATOM      3  N   UNL     1      45.968   3.270  13.070  0.00  0.00    +0.000 NA
ATOM      4  C   UNL     1      46.595   4.258  13.745  0.00  0.00    +0.000 A 
ATOM      5  C   UNL     1      46.221   5.595  13.573  0.00  0.00    +0.000 A 
ATOM      6  N   UNL     1      45.278   6.007  12.699  0.00  0.00    +0.000 NA
ENDROOT
BRANCH   1   8
ATOM      7  N   UNL     1      43.021   6.600  11.249  0.00  0.00    +0.000 N 
ATOM      8  C   UNL     1      43.637   5.398  11.021  0.00  0.00    +0.000 C 
ATOM      9  O   UNL     1      43.363   4.705  10.050  0.00  0.00    +0.000 OA
ATOM     10  H   UNL     1      42.349   6.942  10.579  0.00  0.00    +0.000 HD
ATOM     11  H   UNL     1      43.330   7.199  12.006  0.00  0.00    +0.000 HD
ENDBRANCH   1   8
BRANCH   4  12
ATOM     12  O   UNL     1      47.613   3.849  14.557  0.00  0.00    +0.000 OA
BRANCH  12  13
ATOM     13  C   UNL     1      47.256   3.796  15.942  0.00  0.00    +0.000 C 
BRANCH  13  14
ATOM     14  C   UNL     1      48.032   4.819  16.728  0.00  0.00    +0.000 A 
ATOM     15  C   UNL     1      47.728   5.024  18.073  0.00  0.00    +0.000 A 
ATOM     16  C   UNL     1      48.468   5.954  18.790  0.00  0.00    +0.000 A 
ATOM     17  C   UNL     1      49.490   6.648  18.152  0.00  0.00    +0.000 A 
ATOM     18  C   UNL     1      49.741   6.370  16.819  0.00  0.00    +0.000 A 
ATOM     19  N   UNL     1      49.042   5.468  16.096  0.00  0.00    +0.000 NA
ENDBRANCH  13  14
ENDBRANCH  12  13
ENDBRANCH   4  12
TORSDOF 4
ENDMDL
MODEL 7
REMARK VINA RESULT:    -5.242      4.733      8.296
REMARK INTER + INTRA:          -6.861
REMARK INTER:                  -6.537
REMARK INTRA:                  -0.324
REMARK UNBOUND:                -0.393
REMARK  Name = 
REMARK  4 active torsions:
REMARK  status: ('A' for Active; 'I' for Inactive)
REMARK    1  A    between atoms: C_2  and  C_4
REMARK    2  A    between atoms: C_7  and  O_8
REMARK    3  A    between atoms: O_8  and  C_9
REMARK    4  A    between atoms: C_9  and  C_10
REMARK                            x       y       z     vdW  Elec       q    Type
REMARK                         _______ _______ _______ _____ _____    ______ ____
ROOT
ATOM      1  C   UNL     1      48.648   4.607  17.984  0.00  0.00    +0.000 A 
ATOM      2  C   UNL     1      49.198   5.593  17.171  0.00  0.00    +0.000 A 
ATOM      3  N   UNL     1      48.798   5.779  15.885  0.00  0.00    +0.000 NA
ATOM      4  C   UNL     1      47.826   4.954  15.442  0.00  0.00    +0.000 A 
ATOM      5  C   UNL     1      47.254   3.997  16.288  0.00  0.00    +0.000 A 
ATOM      6  N   UNL     1      47.655   3.780  17.558  0.00  0.00    +0.000 NA
ENDROOT
BRANCH   1   8
ATOM      7  N   UNL     1      48.353   3.624  20.175  0.00  0.00    +0.000 N 
ATOM      8  C   UNL     1      49.144   4.399  19.369  0.00  0.00    +0.000 C 
ATOM      9  O   UNL     1      50.202   4.874  19.763  0.00  0.00    +0.000 OA
ATOM     10  H   UNL     1      48.668   3.408  21.109  0.00  0.00    +0.000 HD
ATOM     11  H   UNL     1      47.532   3.165  19.800  0.00  0.00    +0.000 HD
ENDBRANCH   1   8
BRANCH   4  12
ATOM     12  O   UNL     1      47.487   5.110  14.128  0.00  0.00    +0.000 OA
BRANCH  12  13
ATOM     13  C   UNL     1      46.665   4.055  13.619  0.00  0.00    +0.000 C 
BRANCH  13  14
ATOM     14  C   UNL     1      45.415   4.614  12.992  0.00  0.00    +0.000 A 
ATOM     15  C   UNL     1      45.521   5.629  12.043  0.00  0.00    +0.000 A 
ATOM     16  C   UNL     1      44.361   6.118  11.458  0.00  0.00    +0.000 A 
ATOM     17  C   UNL     1      43.134   5.581  11.828  0.00  0.00    +0.000 A 
ATOM     18  C   UNL     1      43.118   4.560  12.763  0.00  0.00    +0.000 A 
ATOM     19  N   UNL     1      44.228   4.060  13.347  0.00  0.00    +0.000 NA
ENDBRANCH  13  14
ENDBRANCH  12  13
ENDBRANCH   4  12
TORSDOF 4
ENDMDL
MODEL 8
REMARK VINA RESULT:    -4.821      4.940      8.110
REMARK INTER + INTRA:          -6.341
REMARK INTER:                  -6.047
REMARK INTRA:                  -0.294
REMARK UNBOUND:                -0.393
REMARK  Name = 
REMARK  4 active torsions:
REMARK  status: ('A' for Active; 'I' for Inactive)
REMARK    1  A    between atoms: C_2  and  C_4
REMARK    2  A    between atoms: C_7  and  O_8
REMARK    3  A    between atoms: O_8  and  C_9
REMARK    4  A    between atoms: C_9  and  C_10
REMARK                            x       y       z     vdW  Elec       q    Type
REMARK                         _______ _______ _______ _____ _____    ______ ____
ROOT
ATOM      1  C   UNL     1      49.891   4.043  17.609  0.00  0.00    +0.000 A 
ATOM      2  C   UNL     1      49.375   2.870  17.070  0.00  0.00    +0.000 A 
ATOM      3  N   UNL     1      48.285   2.863  16.257  0.00  0.00    +0.000 NA
ATOM      4  C   UNL     1      47.735   4.068  15.995  0.00  0.00    +0.000 A 
ATOM      5  C   UNL     1      48.295   5.242  16.511  0.00  0.00    +0.000 A 
ATOM      6  N   UNL     1      49.359   5.266  17.341  0.00  0.00    +0.000 NA
ENDROOT
BRANCH   1   8
ATOM      7  N   UNL     1      51.879   2.921  18.416  0.00  0.00    +0.000 N 
ATOM      8  C   UNL     1      51.054   4.008  18.535  0.00  0.00    +0.000 C 
ATOM      9  O   UNL     1      51.272   4.901  19.343  0.00  0.00    +0.000 OA
ATOM     10  H   UNL     1      52.711   2.873  18.984  0.00  0.00    +0.000 HD
ATOM     11  H   UNL     1      51.731   2.243  17.678  0.00  0.00    +0.000 HD
ENDBRANCH   1   8
BRANCH   4  12
ATOM     12  O   UNL     1      46.601   4.034  15.235  0.00  0.00    +0.000 OA
BRANCH  12  13
ATOM     13  C   UNL     1      46.849   3.779  13.848  0.00  0.00    +0.000 C 
BRANCH  13  14
ATOM     14  C   UNL     1      45.872   4.537  12.988  0.00  0.00    +0.000 A 
ATOM     15  C   UNL     1      45.156   3.857  12.004  0.00  0.00    +0.000 A 
ATOM     16  C   UNL     1      44.242   4.566  11.236  0.00  0.00    +0.000 A 
ATOM     17  C   UNL     1      44.064   5.924  11.470  0.00  0.00    +0.000 A 
ATOM     18  C   UNL     1      44.800   6.519  12.481  0.00  0.00    +0.000 A 
ATOM     19  N   UNL     1      45.692   5.856  13.249  0.00  0.00    +0.000 NA
ENDBRANCH  13  14
ENDBRANCH  12  13
ENDBRANCH   4  12
TORSDOF 4
ENDMDL
MODEL 9
REMARK VINA RESULT:    -4.816      4.459      6.454
REMARK INTER + INTRA:          -6.334
REMARK INTER:                  -5.962
REMARK INTRA:                  -0.373
REMARK UNBOUND:                -0.393
REMARK  Name = 
REMARK  4 active torsions:
REMARK  status: ('A' for Active; 'I' for Inactive)
REMARK    1  A    between atoms: C_2  and  C_4
REMARK    2  A    between atoms: C_7  and  O_8
REMARK    3  A    between atoms: O_8  and  C_9
REMARK    4  A    between atoms: C_9  and  C_10
REMARK                            x       y       z     vdW  Elec       q    Type
REMARK                         _______ _______ _______ _____ _____    ______ ____
ROOT
ATOM      1  C   UNL     1      45.712   6.215  12.292  0.00  0.00    +0.000 A 
ATOM      2  C   UNL     1      46.202   5.068  12.906  0.00  0.00    +0.000 A 
ATOM      3  N   UNL     1      47.310   5.084  13.695  0.00  0.00    +0.000 NA
ATOM      4  C   UNL     1      47.905   6.285  13.856  0.00  0.00    +0.000 A 
ATOM      5  C   UNL     1      47.371   7.436  13.266  0.00  0.00    +0.000 A 
ATOM      6  N   UNL     1      46.290   7.436  12.458  0.00  0.00    +0.000 NA
ENDROOT
BRANCH   1   8
ATOM      7  N   UNL     1      43.743   7.274  11.365  0.00  0.00    +0.000 N 
ATOM      8  C   UNL     1      44.529   6.152  11.395  0.00  0.00    +0.000 C 
ATOM      9  O   UNL     1      44.278   5.167  10.712  0.00  0.00    +0.000 OA
ATOM     10  H   UNL     1      42.956   7.303  10.735  0.00  0.00    +0.000 HD
ATOM     11  H   UNL     1      44.022   8.109  11.866  0.00  0.00    +0.000 HD
ENDBRANCH   1   8
BRANCH   4  12
ATOM     12  O   UNL     1      49.054   6.268  14.593  0.00  0.00    +0.000 OA
BRANCH  12  13
ATOM     13  C   UNL     1      48.919   6.884  15.879  0.00  0.00    +0.000 C 
BRANCH  13  14
ATOM     14  C   UNL     1      48.851   5.839  16.961  0.00  0.00    +0.000 A 
ATOM     15  C   UNL     1      48.207   6.138  18.160  0.00  0.00    +0.000 A 
ATOM     16  C   UNL     1      48.133   5.156  19.139  0.00  0.00    +0.000 A 
ATOM     17  C   UNL     1      48.695   3.908  18.896  0.00  0.00    +0.000 A 
ATOM     18  C   UNL     1      49.300   3.688  17.669  0.00  0.00    +0.000 A 
ATOM     19  N   UNL     1      49.383   4.620  16.695  0.00  0.00    +0.000 NA
ENDBRANCH  13  14
ENDBRANCH  12  13
ENDBRANCH   4  12
TORSDOF 4
ENDMDL
