MODEL 1
REMARK VINA RESULT:    -7.755      0.000      0.000
REMARK INTER + INTRA:          -9.978
REMARK INTER:                  -9.568
REMARK INTRA:                  -0.410
REMARK UNBOUND:                -0.410
REMARK  Name = 
REMARK  5 active torsions:
REMARK  status: ('A' for Active; 'I' for Inactive)
REMARK    1  A    between atoms: C_1  and  O_2
REMARK    2  A    between atoms: O_2  and  C_3
REMARK    3  A    between atoms: C_7  and  C_8
REMARK    4  A    between atoms: C_8  and  N_9
REMARK    5  A    between atoms: C_15  and  C_16
REMARK                            x       y       z     vdW  Elec       q    Type
REMARK                         _______ _______ _______ _____ _____    ______ ____
ROOT
ATOM      1  N   UNL     1      43.976   4.546  11.012  0.00  0.00    +0.000 N 
ATOM      2  C   UNL     1      43.179   3.680  11.726  0.00  0.00    +0.000 A 
ATOM      3  C   UNL     1      43.720   3.539  12.986  0.00  0.00    +0.000 A 
ATOM      4  C   UNL     1      44.880   4.344  13.041  0.00  0.00    +0.000 A 
ATOM      5  N   UNL     1      45.754   4.489  14.063  0.00  0.00    +0.000 NA
ATOM      6  C   UNL     1      46.802   5.308  13.802  0.00  0.00    +0.000 A 
ATOM      7  C   UNL     1      47.025   5.998  12.611  0.00  0.00    +0.000 A 
ATOM      8  C   UNL     1      46.098   5.853  11.573  0.00  0.00    +0.000 A 
ATOM      9  C   UNL     1      45.020   4.983  11.810  0.00  0.00    +0.000 A 
ENDROOT
BRANCH   7  10
ATOM     10  C   UNL     1      48.253   6.827  12.518  0.00  0.00    +0.000 C 
ATOM     11  N   UNL     1      48.251   7.911  11.685  0.00  0.00    +0.000 N 
ATOM     12  O   UNL     1      49.259   6.554  13.158  0.00  0.00    +0.000 OA
ATOM     13  H   UNL     1      47.472   8.217  11.124  0.00  0.00    +0.000 HD
ATOM     14  H   UNL     1      49.109   8.446  11.634  0.00  0.00    +0.000 HD
ENDBRANCH   7  10
BRANCH   1  15
ATOM     15  C   UNL     1      43.852   4.758   9.574  0.00  0.00    +0.000 C 
BRANCH  15  20
ATOM     16  C   UNL     1      45.959   1.987   8.197  0.00  0.00    +0.000 A 
ATOM     17  N   UNL     1      46.878   2.660   7.477  0.00  0.00    +0.000 NA
ATOM     18  C   UNL     1      46.723   3.988   7.431  0.00  0.00    +0.000 A 
ATOM     19  N   UNL     1      45.763   4.694   8.053  0.00  0.00    +0.000 NA
ATOM     20  C   UNL     1      44.853   3.981   8.766  0.00  0.00    +0.000 A 
ATOM     21  C   UNL     1      44.904   2.600   8.845  0.00  0.00    +0.000 A 
ATOM     22  F   UNL     1      44.012   1.909   9.568  0.00  0.00    +0.000 F 
BRANCH  16  24
ATOM     23  C   UNL     1      47.019   0.043   7.423  0.00  0.00    +0.000 C 
ATOM     24  O   UNL     1      46.092   0.618   8.344  0.00  0.00    +0.000 OA
ENDBRANCH  16  24
ENDBRANCH  15  20
ENDBRANCH   1  15
TORSDOF 4
ENDMDL
MODEL 2
REMARK VINA RESULT:    -7.556      2.460      2.770
REMARK INTER + INTRA:          -9.733
REMARK INTER:                  -9.214
REMARK INTRA:                  -0.519
REMARK UNBOUND:                -0.410
REMARK  Name = 
REMARK  5 active torsions:
REMARK  status: ('A' for Active; 'I' for Inactive)
REMARK    1  A    between atoms: C_1  and  O_2
REMARK    2  A    between atoms: O_2  and  C_3
REMARK    3  A    between atoms: C_7  and  C_8
REMARK    4  A    between atoms: C_8  and  N_9
REMARK    5  A    between atoms: C_15  and  C_16
REMARK                            x       y       z     vdW  Elec       q    Type
REMARK                         _______ _______ _______ _____ _____    ______ ____
ROOT
ATOM      1  N   UNL     1      44.793   5.173  11.485  0.00  0.00    +0.000 N 
ATOM      2  C   UNL     1      45.598   4.347  12.237  0.00  0.00    +0.000 A 
ATOM      3  C   UNL     1      46.357   5.135  13.074  0.00  0.00    +0.000 A 
ATOM      4  C   UNL     1      46.004   6.480  12.827  0.00  0.00    +0.000 A 
ATOM      5  N   UNL     1      46.517   7.601  13.385  0.00  0.00    +0.000 NA
ATOM      6  C   UNL     1      45.998   8.760  12.911  0.00  0.00    +0.000 A 
ATOM      7  C   UNL     1      45.001   8.875  11.942  0.00  0.00    +0.000 A 
ATOM      8  C   UNL     1      44.467   7.704  11.393  0.00  0.00    +0.000 A 
ATOM      9  C   UNL     1      45.013   6.492  11.846  0.00  0.00    +0.000 A 
ENDROOT
BRANCH   7  10
ATOM     10  C   UNL     1      44.589  10.244  11.542  0.00  0.00    +0.000 C 
ATOM     11  N   UNL     1      43.455  10.774  12.089  0.00  0.00    +0.000 N 
ATOM     12  O   UNL     1      45.235  10.895  10.730  0.00  0.00    +0.000 OA
ATOM     13  H   UNL     1      42.864  10.319  12.765  0.00  0.00    +0.000 HD
ATOM     14  H   UNL     1      43.194  11.703  11.783  0.00  0.00    +0.000 HD
ENDBRANCH   7  10
BRANCH   1  15
ATOM     15  C   UNL     1      44.023   4.719  10.332  0.00  0.00    +0.000 C 
BRANCH  15  20
ATOM     16  C   UNL     1      45.830   2.088   8.375  0.00  0.00    +0.000 A 
ATOM     17  N   UNL     1      46.603   2.826   7.554  0.00  0.00    +0.000 NA
ATOM     18  C   UNL     1      46.447   4.152   7.643  0.00  0.00    +0.000 A 
ATOM     19  N   UNL     1      45.621   4.796   8.485  0.00  0.00    +0.000 NA
ATOM     20  C   UNL     1      44.855   4.019   9.294  0.00  0.00    +0.000 A 
ATOM     21  C   UNL     1      44.915   2.637   9.253  0.00  0.00    +0.000 A 
ATOM     22  F   UNL     1      44.169   1.881  10.070  0.00  0.00    +0.000 F 
BRANCH  16  24
ATOM     23  C   UNL     1      46.954   0.250   7.449  0.00  0.00    +0.000 C 
ATOM     24  O   UNL     1      45.983   0.713   8.386  0.00  0.00    +0.000 OA
ENDBRANCH  16  24
ENDBRANCH  15  20
ENDBRANCH   1  15
TORSDOF 4
ENDMDL
MODEL 3
REMARK VINA RESULT:    -7.174      2.117      2.716
REMARK INTER + INTRA:          -9.261
REMARK INTER:                  -8.571
REMARK INTRA:                  -0.691
REMARK UNBOUND:                -0.410
REMARK  Name = 
REMARK  5 active torsions:
REMARK  status: ('A' for Active; 'I' for Inactive)
REMARK    1  A    between atoms: C_1  and  O_2
REMARK    2  A    between atoms: O_2  and  C_3
REMARK    3  A    between atoms: C_7  and  C_8
REMARK    4  A    between atoms: C_8  and  N_9
REMARK    5  A    between atoms: C_15  and  C_16
REMARK                            x       y       z     vdW  Elec       q    Type
REMARK                         _______ _______ _______ _____ _____    ______ ____
ROOT
ATOM      1  N   UNL     1      45.396   5.356  12.303  0.00  0.00    +0.000 N 
ATOM      2  C   UNL     1      45.285   4.392  13.279  0.00  0.00    +0.000 A 
ATOM      3  C   UNL     1      46.382   4.491  14.107  0.00  0.00    +0.000 A 
ATOM      4  C   UNL     1      47.185   5.548  13.622  0.00  0.00    +0.000 A 
ATOM      5  N   UNL     1      48.378   5.981  14.091  0.00  0.00    +0.000 NA
ATOM      6  C   UNL     1      48.930   6.998  13.385  0.00  0.00    +0.000 A 
ATOM      7  C   UNL     1      48.372   7.616  12.266  0.00  0.00    +0.000 A 
ATOM      8  C   UNL     1      47.127   7.169  11.809  0.00  0.00    +0.000 A 
ATOM      9  C   UNL     1      46.551   6.094  12.507  0.00  0.00    +0.000 A 
ENDROOT
BRANCH   7  10
ATOM     10  C   UNL     1      49.154   8.700  11.620  0.00  0.00    +0.000 C 
ATOM     11  N   UNL     1      50.476   8.484  11.353  0.00  0.00    +0.000 N 
ATOM     12  O   UNL     1      48.642   9.775  11.334  0.00  0.00    +0.000 OA
ATOM     13  H   UNL     1      50.982   7.635  11.546  0.00  0.00    +0.000 HD
ATOM     14  H   UNL     1      50.984   9.249  10.926  0.00  0.00    +0.000 HD
ENDBRANCH   7  10
BRANCH   1  15
ATOM     15  C   UNL     1      44.546   5.409  11.120  0.00  0.00    +0.000 C 
BRANCH  15  20
ATOM     16  C   UNL     1      45.791   3.694   8.034  0.00  0.00    +0.000 A 
ATOM     17  N   UNL     1      45.218   2.479   8.133  0.00  0.00    +0.000 NA
ATOM     18  C   UNL     1      44.498   2.263   9.240  0.00  0.00    +0.000 A 
ATOM     19  N   UNL     1      44.282   3.149  10.228  0.00  0.00    +0.000 NA
ATOM     20  C   UNL     1      44.880   4.361  10.094  0.00  0.00    +0.000 A 
ATOM     21  C   UNL     1      45.675   4.670   9.005  0.00  0.00    +0.000 A 
ATOM     22  F   UNL     1      46.244   5.877   8.875  0.00  0.00    +0.000 F 
BRANCH  16  24
ATOM     23  C   UNL     1      46.882   2.866   6.129  0.00  0.00    +0.000 C 
ATOM     24  O   UNL     1      46.497   4.013   6.887  0.00  0.00    +0.000 OA
ENDBRANCH  16  24
ENDBRANCH  15  20
ENDBRANCH   1  15
TORSDOF 4
ENDMDL
MODEL 4
REMARK VINA RESULT:    -6.921      2.560      4.308
REMARK INTER + INTRA:          -8.949
REMARK INTER:                  -8.338
REMARK INTRA:                  -0.611
REMARK UNBOUND:                -0.410
REMARK  Name = 
REMARK  5 active torsions:
REMARK  status: ('A' for Active; 'I' for Inactive)
REMARK    1  A    between atoms: C_1  and  O_2
REMARK    2  A    between atoms: O_2  and  C_3
REMARK    3  A    between atoms: C_7  and  C_8
REMARK    4  A    between atoms: C_8  and  N_9
REMARK    5  A    between atoms: C_15  and  C_16
REMARK                            x       y       z     vdW  Elec       q    Type
REMARK                         _______ _______ _______ _____ _____    ______ ____
ROOT
ATOM      1  N   UNL     1      46.050   6.443  12.861  0.00  0.00    +0.000 N 
ATOM      2  C   UNL     1      46.735   7.513  12.330  0.00  0.00    +0.000 A 
ATOM      3  C   UNL     1      47.935   7.627  12.998  0.00  0.00    +0.000 A 
ATOM      4  C   UNL     1      47.983   6.597  13.963  0.00  0.00    +0.000 A 
ATOM      5  N   UNL     1      48.949   6.343  14.875  0.00  0.00    +0.000 NA
ATOM      6  C   UNL     1      48.692   5.299  15.700  0.00  0.00    +0.000 A 
ATOM      7  C   UNL     1      47.557   4.489  15.667  0.00  0.00    +0.000 A 
ATOM      8  C   UNL     1      46.578   4.753  14.702  0.00  0.00    +0.000 A 
ATOM      9  C   UNL     1      46.809   5.852  13.856  0.00  0.00    +0.000 A 
ENDROOT
BRANCH   7  10
ATOM     10  C   UNL     1      47.454   3.409  16.680  0.00  0.00    +0.000 C 
ATOM     11  N   UNL     1      48.543   2.614  16.902  0.00  0.00    +0.000 N 
ATOM     12  O   UNL     1      46.420   3.215  17.305  0.00  0.00    +0.000 OA
ATOM     13  H   UNL     1      49.434   2.699  16.442  0.00  0.00    +0.000 HD
ATOM     14  H   UNL     1      48.434   1.877  17.588  0.00  0.00    +0.000 HD
ENDBRANCH   7  10
BRANCH   1  15
ATOM     15  C   UNL     1      44.650   6.156  12.568  0.00  0.00    +0.000 C 
BRANCH  15  20
ATOM     16  C   UNL     1      44.520   3.431  10.004  0.00  0.00    +0.000 A 
ATOM     17  N   UNL     1      43.779   2.492  10.625  0.00  0.00    +0.000 NA
ATOM     18  C   UNL     1      43.410   2.777  11.879  0.00  0.00    +0.000 A 
ATOM     19  N   UNL     1      43.688   3.910  12.547  0.00  0.00    +0.000 NA
ATOM     20  C   UNL     1      44.440   4.831  11.890  0.00  0.00    +0.000 A 
ATOM     21  C   UNL     1      44.903   4.616  10.604  0.00  0.00    +0.000 A 
ATOM     22  F   UNL     1      45.627   5.540   9.959  0.00  0.00    +0.000 F 
BRANCH  16  24
ATOM     23  C   UNL     1      45.725   2.097   8.497  0.00  0.00    +0.000 C 
ATOM     24  O   UNL     1      44.883   3.235   8.684  0.00  0.00    +0.000 OA
ENDBRANCH  16  24
ENDBRANCH  15  20
ENDBRANCH   1  15
TORSDOF 4
ENDMDL
MODEL 5
REMARK VINA RESULT:    -6.704      3.169      6.751
REMARK INTER + INTRA:          -8.682
REMARK INTER:                  -8.104
REMARK INTRA:                  -0.577
REMARK UNBOUND:                -0.410
REMARK  Name = 
REMARK  5 active torsions:
REMARK  status: ('A' for Active; 'I' for Inactive)
REMARK    1  A    between atoms: C_1  and  O_2
REMARK    2  A    between atoms: O_2  and  C_3
REMARK    3  A    between atoms: C_7  and  C_8
REMARK    4  A    between atoms: C_8  and  N_9
REMARK    5  A    between atoms: C_15  and  C_16
REMARK                            x       y       z     vdW  Elec       q    Type
REMARK                         _______ _______ _______ _____ _____    ______ ____
ROOT
ATOM      1  N   UNL     1      46.594   6.678  12.853  0.00  0.00    +0.000 N 
ATOM      2  C   UNL     1      46.314   8.026  12.838  0.00  0.00    +0.000 A 
ATOM      3  C   UNL     1      45.094   8.203  12.223  0.00  0.00    +0.000 A 
ATOM      4  C   UNL     1      44.616   6.926  11.853  0.00  0.00    +0.000 A 
ATOM      5  N   UNL     1      43.479   6.614  11.188  0.00  0.00    +0.000 NA
ATOM      6  C   UNL     1      43.311   5.292  10.941  0.00  0.00    +0.000 A 
ATOM      7  C   UNL     1      44.181   4.270  11.323  0.00  0.00    +0.000 A 
ATOM      8  C   UNL     1      45.340   4.611  12.029  0.00  0.00    +0.000 A 
ATOM      9  C   UNL     1      45.551   5.979  12.268  0.00  0.00    +0.000 A 
ENDROOT
BRANCH   7  10
ATOM     10  C   UNL     1      43.824   2.884  10.930  0.00  0.00    +0.000 C 
ATOM     11  N   UNL     1      44.519   2.291   9.914  0.00  0.00    +0.000 N 
ATOM     12  O   UNL     1      42.922   2.273  11.488  0.00  0.00    +0.000 OA
ATOM     13  H   UNL     1      45.277   2.709   9.401  0.00  0.00    +0.000 HD
ATOM     14  H   UNL     1      44.240   1.350   9.661  0.00  0.00    +0.000 HD
ENDBRANCH   7  10
BRANCH   1  15
ATOM     15  C   UNL     1      47.896   6.128  13.213  0.00  0.00    +0.000 C 
BRANCH  15  20
ATOM     16  C   UNL     1      47.469   4.626  16.615  0.00  0.00    +0.000 A 
ATOM     17  N   UNL     1      48.111   5.513  17.400  0.00  0.00    +0.000 NA
ATOM     18  C   UNL     1      48.704   6.530  16.764  0.00  0.00    +0.000 A 
ATOM     19  N   UNL     1      48.690   6.750  15.438  0.00  0.00    +0.000 NA
ATOM     20  C   UNL     1      48.036   5.832  14.680  0.00  0.00    +0.000 A 
ATOM     21  C   UNL     1      47.423   4.724  15.237  0.00  0.00    +0.000 A 
ATOM     22  F   UNL     1      46.764   3.836  14.480  0.00  0.00    +0.000 F 
BRANCH  16  24
ATOM     23  C   UNL     1      47.633   2.617  17.816  0.00  0.00    +0.000 C 
ATOM     24  O   UNL     1      46.777   3.583  17.206  0.00  0.00    +0.000 OA
ENDBRANCH  16  24
ENDBRANCH  15  20
ENDBRANCH   1  15
TORSDOF 4
ENDMDL
MODEL 6
REMARK VINA RESULT:    -6.550      2.613      6.201
REMARK INTER + INTRA:          -8.491
REMARK INTER:                  -8.022
REMARK INTRA:                  -0.469
REMARK UNBOUND:                -0.410
REMARK  Name = 
REMARK  5 active torsions:
REMARK  status: ('A' for Active; 'I' for Inactive)
REMARK    1  A    between atoms: C_1  and  O_2
REMARK    2  A    between atoms: O_2  and  C_3
REMARK    3  A    between atoms: C_7  and  C_8
REMARK    4  A    between atoms: C_8  and  N_9
REMARK    5  A    between atoms: C_15  and  C_16
REMARK                            x       y       z     vdW  Elec       q    Type
REMARK                         _______ _______ _______ _____ _____    ______ ____
ROOT
ATOM      1  N   UNL     1      44.372   5.641  11.488  0.00  0.00    +0.000 N 
ATOM      2  C   UNL     1      43.437   5.203  12.398  0.00  0.00    +0.000 A 
ATOM      3  C   UNL     1      43.092   3.910  12.071  0.00  0.00    +0.000 A 
ATOM      4  C   UNL     1      43.840   3.548  10.928  0.00  0.00    +0.000 A 
ATOM      5  N   UNL     1      43.801   2.390  10.230  0.00  0.00    +0.000 NA
ATOM      6  C   UNL     1      44.614   2.353   9.146  0.00  0.00    +0.000 A 
ATOM      7  C   UNL     1      45.466   3.374   8.726  0.00  0.00    +0.000 A 
ATOM      8  C   UNL     1      45.509   4.556   9.474  0.00  0.00    +0.000 A 
ATOM      9  C   UNL     1      44.650   4.629  10.584  0.00  0.00    +0.000 A 
ENDROOT
BRANCH   7  10
ATOM     10  C   UNL     1      46.259   3.142   7.493  0.00  0.00    +0.000 C 
ATOM     11  N   UNL     1      46.845   1.921   7.310  0.00  0.00    +0.000 N 
ATOM     12  O   UNL     1      46.403   4.019   6.651  0.00  0.00    +0.000 OA
ATOM     13  H   UNL     1      46.779   1.139   7.941  0.00  0.00    +0.000 HD
ATOM     14  H   UNL     1      47.391   1.802   6.465  0.00  0.00    +0.000 HD
ENDBRANCH   7  10
BRANCH   1  15
ATOM     15  C   UNL     1      44.800   7.030  11.374  0.00  0.00    +0.000 C 
BRANCH  15  20
ATOM     16  C   UNL     1      47.832   8.766  12.718  0.00  0.00    +0.000 A 
ATOM     17  N   UNL     1      48.586   7.734  13.143  0.00  0.00    +0.000 NA
ATOM     18  C   UNL     1      48.034   6.521  13.022  0.00  0.00    +0.000 A 
ATOM     19  N   UNL     1      46.826   6.251  12.497  0.00  0.00    +0.000 NA
ATOM     20  C   UNL     1      46.094   7.318  12.083  0.00  0.00    +0.000 A 
ATOM     21  C   UNL     1      46.560   8.616  12.200  0.00  0.00    +0.000 A 
ATOM     22  F   UNL     1      45.837   9.659  11.770  0.00  0.00    +0.000 F 
BRANCH  16  24
ATOM     23  C   UNL     1      49.124  10.366  11.588  0.00  0.00    +0.000 C 
ATOM     24  O   UNL     1      48.363  10.044  12.752  0.00  0.00    +0.000 OA
ENDBRANCH  16  24
ENDBRANCH  15  20
ENDBRANCH   1  15
TORSDOF 4
ENDMDL
MODEL 7
REMARK VINA RESULT:    -6.525      2.523      4.433
REMARK INTER + INTRA:          -8.460
REMARK INTER:                  -7.978
REMARK INTRA:                  -0.482
REMARK UNBOUND:                -0.410
REMARK  Name = 
REMARK  5 active torsions:
REMARK  status: ('A' for Active; 'I' for Inactive)
REMARK    1  A    between atoms: C_1  and  O_2
REMARK    2  A    between atoms: O_2  and  C_3
REMARK    3  A    between atoms: C_7  and  C_8
REMARK    4  A    between atoms: C_8  and  N_9
REMARK    5  A    between atoms: C_15  and  C_16
REMARK                            x       y       z     vdW  Elec       q    Type
REMARK                         _______ _______ _______ _____ _____    ______ ____
ROOT
ATOM      1  N   UNL     1      46.302   6.964  12.603  0.00  0.00    +0.000 N 
ATOM      2  C   UNL     1      45.197   7.752  12.833  0.00  0.00    +0.000 A 
ATOM      3  C   UNL     1      45.553   9.065  12.609  0.00  0.00    +0.000 A 
ATOM      4  C   UNL     1      46.914   9.076  12.230  0.00  0.00    +0.000 A 
ATOM      5  N   UNL     1      47.700  10.141  11.952  0.00  0.00    +0.000 NA
ATOM      6  C   UNL     1      48.987   9.835  11.655  0.00  0.00    +0.000 A 
ATOM      7  C   UNL     1      49.532   8.553  11.599  0.00  0.00    +0.000 A 
ATOM      8  C   UNL     1      48.697   7.462  11.868  0.00  0.00    +0.000 A 
ATOM      9  C   UNL     1      47.367   7.758  12.210  0.00  0.00    +0.000 A 
ENDROOT
BRANCH   7  10
ATOM     10  C   UNL     1      50.976   8.434  11.279  0.00  0.00    +0.000 C 
ATOM     11  N   UNL     1      51.485   7.199  10.991  0.00  0.00    +0.000 N 
ATOM     12  O   UNL     1      51.713   9.412  11.278  0.00  0.00    +0.000 OA
ATOM     13  H   UNL     1      50.959   6.341  10.963  0.00  0.00    +0.000 HD
ATOM     14  H   UNL     1      52.477   7.152  10.792  0.00  0.00    +0.000 HD
ENDBRANCH   7  10
BRANCH   1  15
ATOM     15  C   UNL     1      46.374   5.552  12.959  0.00  0.00    +0.000 C 
BRANCH  15  20
ATOM     16  C   UNL     1      44.240   4.088  10.254  0.00  0.00    +0.000 A 
ATOM     17  N   UNL     1      43.397   3.301  10.952  0.00  0.00    +0.000 NA
ATOM     18  C   UNL     1      43.611   3.245  12.271  0.00  0.00    +0.000 A 
ATOM     19  N   UNL     1      44.560   3.915  12.948  0.00  0.00    +0.000 NA
ATOM     20  C   UNL     1      45.393   4.694  12.210  0.00  0.00    +0.000 A 
ATOM     21  C   UNL     1      45.278   4.791  10.835  0.00  0.00    +0.000 A 
ATOM     22  F   UNL     1      46.094   5.578  10.119  0.00  0.00    +0.000 F 
BRANCH  16  24
ATOM     23  C   UNL     1      44.833   3.361   8.104  0.00  0.00    +0.000 C 
ATOM     24  O   UNL     1      44.040   4.247   8.894  0.00  0.00    +0.000 OA
ENDBRANCH  16  24
ENDBRANCH  15  20
ENDBRANCH   1  15
TORSDOF 4
ENDMDL
MODEL 8
REMARK VINA RESULT:    -6.367      3.505      7.262
REMARK INTER + INTRA:          -8.265
REMARK INTER:                  -7.656
REMARK INTRA:                  -0.609
REMARK UNBOUND:                -0.410
REMARK  Name = 
REMARK  5 active torsions:
REMARK  status: ('A' for Active; 'I' for Inactive)
REMARK    1  A    between atoms: C_1  and  O_2
REMARK    2  A    between atoms: O_2  and  C_3
REMARK    3  A    between atoms: C_7  and  C_8
REMARK    4  A    between atoms: C_8  and  N_9
REMARK    5  A    between atoms: C_15  and  C_16
REMARK                            x       y       z     vdW  Elec       q    Type
REMARK                         _______ _______ _______ _____ _____    ______ ____
ROOT
ATOM      1  N   UNL     1      46.607   6.583  12.964  0.00  0.00    +0.000 N 
ATOM      2  C   UNL     1      46.365   7.938  12.916  0.00  0.00    +0.000 A 
ATOM      3  C   UNL     1      45.172   8.137  12.255  0.00  0.00    +0.000 A 
ATOM      4  C   UNL     1      44.672   6.867  11.891  0.00  0.00    +0.000 A 
ATOM      5  N   UNL     1      43.551   6.573  11.192  0.00  0.00    +0.000 NA
ATOM      6  C   UNL     1      43.355   5.252  10.962  0.00  0.00    +0.000 A 
ATOM      7  C   UNL     1      44.183   4.214  11.391  0.00  0.00    +0.000 A 
ATOM      8  C   UNL     1      45.326   4.536  12.132  0.00  0.00    +0.000 A 
ATOM      9  C   UNL     1      45.566   5.903  12.355  0.00  0.00    +0.000 A 
ENDROOT
BRANCH   7  10
ATOM     10  C   UNL     1      43.802   2.831  11.011  0.00  0.00    +0.000 C 
ATOM     11  N   UNL     1      44.421   2.252   9.939  0.00  0.00    +0.000 N 
ATOM     12  O   UNL     1      42.944   2.211  11.626  0.00  0.00    +0.000 OA
ATOM     13  H   UNL     1      45.139   2.679   9.376  0.00  0.00    +0.000 HD
ATOM     14  H   UNL     1      44.127   1.313   9.697  0.00  0.00    +0.000 HD
ENDBRANCH   7  10
BRANCH   1  15
ATOM     15  C   UNL     1      47.880   6.005  13.379  0.00  0.00    +0.000 C 
BRANCH  15  20
ATOM     16  C   UNL     1      48.585   5.722  17.044  0.00  0.00    +0.000 A 
ATOM     17  N   UNL     1      48.105   4.496  17.332  0.00  0.00    +0.000 NA
ATOM     18  C   UNL     1      47.519   3.848  16.319  0.00  0.00    +0.000 A 
ATOM     19  N   UNL     1      47.396   4.298  15.058  0.00  0.00    +0.000 NA
ATOM     20  C   UNL     1      47.888   5.539  14.808  0.00  0.00    +0.000 A 
ATOM     21  C   UNL     1      48.479   6.305  15.796  0.00  0.00    +0.000 A 
ATOM     22  F   UNL     1      48.979   7.521  15.532  0.00  0.00    +0.000 F 
BRANCH  16  24
ATOM     23  C   UNL     1      50.645   6.083  18.108  0.00  0.00    +0.000 C 
ATOM     24  O   UNL     1      49.262   6.426  18.025  0.00  0.00    +0.000 OA
ENDBRANCH  16  24
ENDBRANCH  15  20
ENDBRANCH   1  15
TORSDOF 4
ENDMDL
MODEL 9
REMARK VINA RESULT:    -6.262      2.561      4.075
REMARK INTER + INTRA:          -8.135
REMARK INTER:                  -7.493
REMARK INTRA:                  -0.642
REMARK UNBOUND:                -0.410
REMARK  Name = 
REMARK  5 active torsions:
REMARK  status: ('A' for Active; 'I' for Inactive)
REMARK    1  A    between atoms: C_1  and  O_2
REMARK    2  A    between atoms: O_2  and  C_3
REMARK    3  A    between atoms: C_7  and  C_8
REMARK    4  A    between atoms: C_8  and  N_9
REMARK    5  A    between atoms: C_15  and  C_16
REMARK                            x       y       z     vdW  Elec       q    Type
REMARK                         _______ _______ _______ _____ _____    ______ ____
ROOT
ATOM      1  N   UNL     1      45.843   6.143  13.243  0.00  0.00    +0.000 N 
ATOM      2  C   UNL     1      46.715   5.166  13.669  0.00  0.00    +0.000 A 
ATOM      3  C   UNL     1      47.981   5.710  13.707  0.00  0.00    +0.000 A 
ATOM      4  C   UNL     1      47.877   7.056  13.292  0.00  0.00    +0.000 A 
ATOM      5  N   UNL     1      48.866   7.966  13.136  0.00  0.00    +0.000 NA
ATOM      6  C   UNL     1      48.457   9.176  12.682  0.00  0.00    +0.000 A 
ATOM      7  C   UNL     1      47.142   9.542  12.395  0.00  0.00    +0.000 A 
ATOM      8  C   UNL     1      46.130   8.594  12.585  0.00  0.00    +0.000 A 
ATOM      9  C   UNL     1      46.535   7.322  13.023  0.00  0.00    +0.000 A 
ENDROOT
BRANCH   7  10
ATOM     10  C   UNL     1      46.908  10.915  11.882  0.00  0.00    +0.000 C 
ATOM     11  N   UNL     1      45.699  11.506  12.119  0.00  0.00    +0.000 N 
ATOM     12  O   UNL     1      47.766  11.516  11.249  0.00  0.00    +0.000 OA
ATOM     13  H   UNL     1      44.937  11.095  12.632  0.00  0.00    +0.000 HD
ATOM     14  H   UNL     1      45.568  12.437  11.742  0.00  0.00    +0.000 HD
ENDBRANCH   7  10
BRANCH   1  15
ATOM     15  C   UNL     1      44.460   5.879  12.860  0.00  0.00    +0.000 C 
BRANCH  15  20
ATOM     16  C   UNL     1      44.298   3.409  10.051  0.00  0.00    +0.000 A 
ATOM     17  N   UNL     1      43.693   2.356  10.634  0.00  0.00    +0.000 NA
ATOM     18  C   UNL     1      43.423   2.487  11.937  0.00  0.00    +0.000 A 
ATOM     19  N   UNL     1      43.675   3.571  12.692  0.00  0.00    +0.000 NA
ATOM     20  C   UNL     1      44.289   4.611  12.070  0.00  0.00    +0.000 A 
ATOM     21  C   UNL     1      44.644   4.559  10.734  0.00  0.00    +0.000 A 
ATOM     22  F   UNL     1      45.232   5.600  10.127  0.00  0.00    +0.000 F 
BRANCH  16  24
ATOM     23  C   UNL     1      45.636   2.513   8.345  0.00  0.00    +0.000 C 
ATOM     24  O   UNL     1      44.550   3.372   8.691  0.00  0.00    +0.000 OA
ENDBRANCH  16  24
ENDBRANCH  15  20
ENDBRANCH   1  15
TORSDOF 4
ENDMDL
