MODEL 1
REMARK VINA RESULT:    -8.379      0.000      0.000
REMARK INTER + INTRA:         -11.771
REMARK INTER:                 -10.828
REMARK INTRA:                  -0.943
REMARK UNBOUND:                -0.943
REMARK  Name = 
REMARK  5 active torsions:
REMARK  status: ('A' for Active; 'I' for Inactive)
REMARK    1  A    between atoms: C_2  and  C_3
REMARK    2  A    between atoms: C_6  and  N_7
REMARK    3  A    between atoms: N_7  and  C_8
REMARK    4  A    between atoms: C_8  and  C_9
REMARK    5  A    between atoms: C_13  and  C_14
REMARK                            x       y       z     vdW  Elec       q    Type
REMARK                         _______ _______ _______ _____ _____    ______ ____
ROOT
ATOM      1  C   UNL     1      45.971   7.223  12.122  0.00  0.00    +0.000 C 
ATOM      2  C   UNL     1      46.143   8.666  11.666  0.00  0.00    +0.000 C 
ATOM      3  C   UNL     1      45.331   8.362  12.881  0.00  0.00    +0.000 C 
ENDROOT
BRANCH   1   4
ATOM      4  C   UNL     1      45.088   6.276  11.327  0.00  0.00    +0.000 A 
ATOM      5  C   UNL     1      43.777   5.967  11.722  0.00  0.00    +0.000 A 
ATOM      6  C   UNL     1      43.071   4.928  11.119  0.00  0.00    +0.000 A 
ATOM      7  C   UNL     1      43.672   4.167  10.117  0.00  0.00    +0.000 A 
ATOM      8  C   UNL     1      44.977   4.441   9.679  0.00  0.00    +0.000 A 
ATOM      9  C   UNL     1      45.641   5.531  10.268  0.00  0.00    +0.000 A 
BRANCH   8  10
ATOM     10  C   UNL     1      45.682   3.561   8.723  0.00  0.00    +0.000 A 
ATOM     11  C   UNL     1      46.336   4.101   7.598  0.00  0.00    +0.000 A 
ATOM     12  C   UNL     1      46.964   3.285   6.652  0.00  0.00    +0.000 A 
ATOM     13  C   UNL     1      46.936   1.904   6.805  0.00  0.00    +0.000 A 
ATOM     14  C   UNL     1      46.284   1.355   7.899  0.00  0.00    +0.000 A 
ATOM     15  F   UNL     1      46.236   0.023   8.038  0.00  0.00    +0.000 F 
ATOM     16  C   UNL     1      45.668   2.162   8.853  0.00  0.00    +0.000 A 
ENDBRANCH   8  10
ENDBRANCH   1   4
BRANCH   1  17
ATOM     17  N   UNL     1      47.260   6.600  12.479  0.00  0.00    +0.000 N 
ATOM     18  H   UNL     1      47.803   6.319  11.665  0.00  0.00    +0.000 HD
BRANCH  17  22
ATOM     19  C   UNL     1      47.721   4.248  15.822  0.00  0.00    +0.000 A 
ATOM     20  N   UNL     1      47.061   3.684  14.789  0.00  0.00    +0.000 NA
ATOM     21  C   UNL     1      46.948   4.449  13.676  0.00  0.00    +0.000 A 
ATOM     22  C   UNL     1      47.458   5.722  13.546  0.00  0.00    +0.000 A 
ATOM     23  C   UNL     1      48.127   6.171  14.686  0.00  0.00    +0.000 A 
ATOM     24  N   UNL     1      48.278   5.470  15.828  0.00  0.00    +0.000 NA
BRANCH  19  26
ATOM     25  N   UNL     1      47.857   2.905  18.047  0.00  0.00    +0.000 NA
ATOM     26  C   UNL     1      47.784   3.504  17.053  0.00  0.00    +0.000 C 
ENDBRANCH  19  26
ENDBRANCH  17  22
ENDBRANCH   1  17
TORSDOF 5
ENDMDL
MODEL 2
REMARK VINA RESULT:    -8.297      3.733      7.032
REMARK INTER + INTRA:         -11.665
REMARK INTER:                 -10.856
REMARK INTRA:                  -0.809
REMARK UNBOUND:                -0.943
REMARK  Name = 
REMARK  5 active torsions:
REMARK  status: ('A' for Active; 'I' for Inactive)
REMARK    1  A    between atoms: C_2  and  C_3
REMARK    2  A    between atoms: C_6  and  N_7
REMARK    3  A    between atoms: N_7  and  C_8
REMARK    4  A    between atoms: C_8  and  C_9
REMARK    5  A    between atoms: C_13  and  C_14
REMARK                            x       y       z     vdW  Elec       q    Type
REMARK                         _______ _______ _______ _____ _____    ______ ____
ROOT
ATOM      1  C   UNL     1      43.882   5.007  11.145  0.00  0.00    +0.000 C 
ATOM      2  C   UNL     1      42.610   5.100  11.976  0.00  0.00    +0.000 C 
ATOM      3  C   UNL     1      43.001   6.234  11.088  0.00  0.00    +0.000 C 
ENDROOT
BRANCH   1   4
ATOM      4  C   UNL     1      45.239   5.103  11.820  0.00  0.00    +0.000 A 
ATOM      5  C   UNL     1      45.611   4.254  12.874  0.00  0.00    +0.000 A 
ATOM      6  C   UNL     1      46.756   4.505  13.629  0.00  0.00    +0.000 A 
ATOM      7  C   UNL     1      47.542   5.622  13.350  0.00  0.00    +0.000 A 
ATOM      8  C   UNL     1      47.219   6.497  12.302  0.00  0.00    +0.000 A 
ATOM      9  C   UNL     1      46.091   6.184  11.524  0.00  0.00    +0.000 A 
BRANCH   8  10
ATOM     10  C   UNL     1      47.955   7.759  12.082  0.00  0.00    +0.000 A 
ATOM     11  C   UNL     1      47.292   9.001  12.159  0.00  0.00    +0.000 A 
ATOM     12  C   UNL     1      47.956  10.204  11.904  0.00  0.00    +0.000 A 
ATOM     13  C   UNL     1      49.300  10.190  11.547  0.00  0.00    +0.000 A 
ATOM     14  C   UNL     1      49.964   8.976  11.453  0.00  0.00    +0.000 A 
ATOM     15  F   UNL     1      51.252   8.957  11.088  0.00  0.00    +0.000 F 
ATOM     16  C   UNL     1      49.313   7.773  11.719  0.00  0.00    +0.000 A 
ENDBRANCH   8  10
ENDBRANCH   1   4
BRANCH   1  17
ATOM     17  N   UNL     1      43.829   3.895  10.177  0.00  0.00    +0.000 N 
ATOM     18  H   UNL     1      43.353   3.072  10.545  0.00  0.00    +0.000 HD
BRANCH  17  22
ATOM     19  C   UNL     1      46.673   2.602   7.501  0.00  0.00    +0.000 A 
ATOM     20  N   UNL     1      46.417   3.927   7.498  0.00  0.00    +0.000 NA
ATOM     21  C   UNL     1      45.509   4.353   8.410  0.00  0.00    +0.000 A 
ATOM     22  C   UNL     1      44.863   3.535   9.311  0.00  0.00    +0.000 A 
ATOM     23  C   UNL     1      45.235   2.194   9.210  0.00  0.00    +0.000 A 
ATOM     24  N   UNL     1      46.127   1.696   8.329  0.00  0.00    +0.000 NA
BRANCH  19  26
ATOM     25  N   UNL     1      48.295   1.706   5.675  0.00  0.00    +0.000 NA
ATOM     26  C   UNL     1      47.563   2.097   6.489  0.00  0.00    +0.000 C 
ENDBRANCH  19  26
ENDBRANCH  17  22
ENDBRANCH   1  17
TORSDOF 5
ENDMDL
MODEL 3
REMARK VINA RESULT:    -8.079      0.958      1.643
REMARK INTER + INTRA:         -11.384
REMARK INTER:                 -10.472
REMARK INTRA:                  -0.911
REMARK UNBOUND:                -0.943
REMARK  Name = 
REMARK  5 active torsions:
REMARK  status: ('A' for Active; 'I' for Inactive)
REMARK    1  A    between atoms: C_2  and  C_3
REMARK    2  A    between atoms: C_6  and  N_7
REMARK    3  A    between atoms: N_7  and  C_8
REMARK    4  A    between atoms: C_8  and  C_9
REMARK    5  A    between atoms: C_13  and  C_14
REMARK                            x       y       z     vdW  Elec       q    Type
REMARK                         _______ _______ _______ _____ _____    ______ ____
ROOT
ATOM      1  C   UNL     1      46.139   7.014  12.201  0.00  0.00    +0.000 C 
ATOM      2  C   UNL     1      46.551   8.384  11.681  0.00  0.00    +0.000 C 
ATOM      3  C   UNL     1      45.650   8.280  12.867  0.00  0.00    +0.000 C 
ENDROOT
BRANCH   1   4
ATOM      4  C   UNL     1      45.155   6.167  11.411  0.00  0.00    +0.000 A 
ATOM      5  C   UNL     1      43.831   5.970  11.833  0.00  0.00    +0.000 A 
ATOM      6  C   UNL     1      43.020   5.013  11.228  0.00  0.00    +0.000 A 
ATOM      7  C   UNL     1      43.526   4.221  10.197  0.00  0.00    +0.000 A 
ATOM      8  C   UNL     1      44.840   4.384   9.733  0.00  0.00    +0.000 A 
ATOM      9  C   UNL     1      45.613   5.397  10.325  0.00  0.00    +0.000 A 
BRANCH   8  10
ATOM     10  C   UNL     1      45.440   3.464   8.744  0.00  0.00    +0.000 A 
ATOM     11  C   UNL     1      45.581   2.092   9.033  0.00  0.00    +0.000 A 
ATOM     12  C   UNL     1      46.192   1.212   8.135  0.00  0.00    +0.000 A 
ATOM     13  C   UNL     1      46.692   1.691   6.930  0.00  0.00    +0.000 A 
ATOM     14  C   UNL     1      46.573   3.042   6.635  0.00  0.00    +0.000 A 
ATOM     15  F   UNL     1      47.073   3.512   5.485  0.00  0.00    +0.000 F 
ATOM     16  C   UNL     1      45.953   3.923   7.519  0.00  0.00    +0.000 A 
ENDBRANCH   8  10
ENDBRANCH   1   4
BRANCH   1  17
ATOM     17  N   UNL     1      47.298   6.224  12.657  0.00  0.00    +0.000 N 
ATOM     18  H   UNL     1      47.643   5.580  11.946  0.00  0.00    +0.000 HD
BRANCH  17  22
ATOM     19  C   UNL     1      47.834   4.370  16.290  0.00  0.00    +0.000 A 
ATOM     20  N   UNL     1      48.514   5.521  16.107  0.00  0.00    +0.000 NA
ATOM     21  C   UNL     1      48.302   6.149  14.925  0.00  0.00    +0.000 A 
ATOM     22  C   UNL     1      47.454   5.693  13.938  0.00  0.00    +0.000 A 
ATOM     23  C   UNL     1      46.808   4.502  14.268  0.00  0.00    +0.000 A 
ATOM     24  N   UNL     1      46.969   3.820  15.421  0.00  0.00    +0.000 NA
BRANCH  19  26
ATOM     25  N   UNL     1      48.311   3.009  18.455  0.00  0.00    +0.000 NA
ATOM     26  C   UNL     1      48.100   3.627  17.493  0.00  0.00    +0.000 C 
ENDBRANCH  19  26
ENDBRANCH  17  22
ENDBRANCH   1  17
TORSDOF 5
ENDMDL
MODEL 4
REMARK VINA RESULT:    -7.374      3.381      7.435
REMARK INTER + INTRA:         -10.472
REMARK INTER:                 -10.148
REMARK INTRA:                  -0.324
REMARK UNBOUND:                -0.943
REMARK  Name = 
REMARK  5 active torsions:
REMARK  status: ('A' for Active; 'I' for Inactive)
REMARK    1  A    between atoms: C_2  and  C_3
REMARK    2  A    between atoms: C_6  and  N_7
REMARK    3  A    between atoms: N_7  and  C_8
REMARK    4  A    between atoms: C_8  and  C_9
REMARK    5  A    between atoms: C_13  and  C_14
REMARK                            x       y       z     vdW  Elec       q    Type
REMARK                         _______ _______ _______ _____ _____    ______ ____
ROOT
ATOM      1  C   UNL     1      44.228   4.924  11.761  0.00  0.00    +0.000 C 
ATOM      2  C   UNL     1      42.932   4.911  12.561  0.00  0.00    +0.000 C 
ATOM      3  C   UNL     1      43.044   5.764  11.341  0.00  0.00    +0.000 C 
ENDROOT
BRANCH   1   4
ATOM      4  C   UNL     1      45.461   5.611  12.322  0.00  0.00    +0.000 A 
ATOM      5  C   UNL     1      46.307   6.396  11.525  0.00  0.00    +0.000 A 
ATOM      6  C   UNL     1      47.547   6.823  11.997  0.00  0.00    +0.000 A 
ATOM      7  C   UNL     1      47.970   6.456  13.274  0.00  0.00    +0.000 A 
ATOM      8  C   UNL     1      47.158   5.679  14.114  0.00  0.00    +0.000 A 
ATOM      9  C   UNL     1      45.890   5.314  13.630  0.00  0.00    +0.000 A 
BRANCH   8  10
ATOM     10  C   UNL     1      47.643   5.162  15.410  0.00  0.00    +0.000 A 
ATOM     11  C   UNL     1      48.710   5.793  16.082  0.00  0.00    +0.000 A 
ATOM     12  C   UNL     1      49.221   5.292  17.283  0.00  0.00    +0.000 A 
ATOM     13  C   UNL     1      48.684   4.132  17.831  0.00  0.00    +0.000 A 
ATOM     14  C   UNL     1      47.644   3.490  17.176  0.00  0.00    +0.000 A 
ATOM     15  F   UNL     1      47.139   2.361  17.689  0.00  0.00    +0.000 F 
ATOM     16  C   UNL     1      47.120   3.991  15.986  0.00  0.00    +0.000 A 
ENDBRANCH   8  10
ENDBRANCH   1   4
BRANCH   1  17
ATOM     17  N   UNL     1      44.547   3.594  11.207  0.00  0.00    +0.000 N 
ATOM     18  H   UNL     1      45.039   2.997  11.869  0.00  0.00    +0.000 HD
BRANCH  17  22
ATOM     19  C   UNL     1      46.033   3.079   7.406  0.00  0.00    +0.000 A 
ATOM     20  N   UNL     1      45.789   1.950   8.104  0.00  0.00    +0.000 NA
ATOM     21  C   UNL     1      45.262   2.124   9.340  0.00  0.00    +0.000 A 
ATOM     22  C   UNL     1      44.965   3.349   9.897  0.00  0.00    +0.000 A 
ATOM     23  C   UNL     1      45.255   4.426   9.059  0.00  0.00    +0.000 A 
ATOM     24  N   UNL     1      45.782   4.331   7.821  0.00  0.00    +0.000 NA
BRANCH  19  26
ATOM     25  N   UNL     1      47.178   2.830   5.082  0.00  0.00    +0.000 NA
ATOM     26  C   UNL     1      46.677   2.940   6.126  0.00  0.00    +0.000 C 
ENDBRANCH  19  26
ENDBRANCH  17  22
ENDBRANCH   1  17
TORSDOF 5
ENDMDL
MODEL 5
REMARK VINA RESULT:    -6.721      3.514      6.924
REMARK INTER + INTRA:          -9.629
REMARK INTER:                  -8.698
REMARK INTRA:                  -0.931
REMARK UNBOUND:                -0.943
REMARK  Name = 
REMARK  5 active torsions:
REMARK  status: ('A' for Active; 'I' for Inactive)
REMARK    1  A    between atoms: C_2  and  C_3
REMARK    2  A    between atoms: C_6  and  N_7
REMARK    3  A    between atoms: N_7  and  C_8
REMARK    4  A    between atoms: C_8  and  C_9
REMARK    5  A    between atoms: C_13  and  C_14
REMARK                            x       y       z     vdW  Elec       q    Type
REMARK                         _______ _______ _______ _____ _____    ______ ____
ROOT
ATOM      1  C   UNL     1      43.943   5.604  11.933  0.00  0.00    +0.000 C 
ATOM      2  C   UNL     1      43.025   5.129  13.050  0.00  0.00    +0.000 C 
ATOM      3  C   UNL     1      42.450   5.507  11.725  0.00  0.00    +0.000 C 
ENDROOT
BRANCH   1   4
ATOM      4  C   UNL     1      44.590   6.977  12.014  0.00  0.00    +0.000 A 
ATOM      5  C   UNL     1      43.963   8.129  11.516  0.00  0.00    +0.000 A 
ATOM      6  C   UNL     1      44.661   9.329  11.389  0.00  0.00    +0.000 A 
ATOM      7  C   UNL     1      46.008   9.392  11.744  0.00  0.00    +0.000 A 
ATOM      8  C   UNL     1      46.680   8.270  12.254  0.00  0.00    +0.000 A 
ATOM      9  C   UNL     1      45.932   7.092  12.424  0.00  0.00    +0.000 A 
BRANCH   8  10
ATOM     10  C   UNL     1      48.137   8.276  12.501  0.00  0.00    +0.000 A 
ATOM     11  C   UNL     1      48.665   8.858  13.671  0.00  0.00    +0.000 A 
ATOM     12  C   UNL     1      50.042   8.922  13.902  0.00  0.00    +0.000 A 
ATOM     13  C   UNL     1      50.925   8.419  12.953  0.00  0.00    +0.000 A 
ATOM     14  C   UNL     1      50.423   7.857  11.789  0.00  0.00    +0.000 A 
ATOM     15  F   UNL     1      51.271   7.391  10.863  0.00  0.00    +0.000 F 
ATOM     16  C   UNL     1      49.051   7.776  11.558  0.00  0.00    +0.000 A 
ENDBRANCH   8  10
ENDBRANCH   1   4
BRANCH   1  17
ATOM     17  N   UNL     1      44.912   4.565  11.535  0.00  0.00    +0.000 N 
ATOM     18  H   UNL     1      45.777   4.604  12.072  0.00  0.00    +0.000 HD
BRANCH  17  22
ATOM     19  C   UNL     1      45.915   3.472   7.698  0.00  0.00    +0.000 A 
ATOM     20  N   UNL     1      45.435   2.489   8.487  0.00  0.00    +0.000 NA
ATOM     21  C   UNL     1      45.068   2.862   9.737  0.00  0.00    +0.000 A 
ATOM     22  C   UNL     1      45.150   4.149  10.223  0.00  0.00    +0.000 A 
ATOM     23  C   UNL     1      45.650   5.064   9.296  0.00  0.00    +0.000 A 
ATOM     24  N   UNL     1      46.037   4.766   8.038  0.00  0.00    +0.000 NA
BRANCH  19  26
ATOM     25  N   UNL     1      46.808   2.813   5.344  0.00  0.00    +0.000 NA
ATOM     26  C   UNL     1      46.400   3.099   6.395  0.00  0.00    +0.000 C 
ENDBRANCH  19  26
ENDBRANCH  17  22
ENDBRANCH   1  17
TORSDOF 5
ENDMDL
MODEL 6
REMARK VINA RESULT:    -6.632      1.770      2.567
REMARK INTER + INTRA:          -9.514
REMARK INTER:                  -9.320
REMARK INTRA:                  -0.194
REMARK UNBOUND:                -0.943
REMARK  Name = 
REMARK  5 active torsions:
REMARK  status: ('A' for Active; 'I' for Inactive)
REMARK    1  A    between atoms: C_2  and  C_3
REMARK    2  A    between atoms: C_6  and  N_7
REMARK    3  A    between atoms: N_7  and  C_8
REMARK    4  A    between atoms: C_8  and  C_9
REMARK    5  A    between atoms: C_13  and  C_14
REMARK                            x       y       z     vdW  Elec       q    Type
REMARK                         _______ _______ _______ _____ _____    ______ ____
ROOT
ATOM      1  C   UNL     1      46.235   6.980  12.117  0.00  0.00    +0.000 C 
ATOM      2  C   UNL     1      46.474   8.454  11.818  0.00  0.00    +0.000 C 
ATOM      3  C   UNL     1      45.647   8.059  12.996  0.00  0.00    +0.000 C 
ENDROOT
BRANCH   1   4
ATOM      4  C   UNL     1      45.311   6.165  11.228  0.00  0.00    +0.000 A 
ATOM      5  C   UNL     1      43.951   5.989  11.526  0.00  0.00    +0.000 A 
ATOM      6  C   UNL     1      43.180   5.057  10.835  0.00  0.00    +0.000 A 
ATOM      7  C   UNL     1      43.762   4.271   9.840  0.00  0.00    +0.000 A 
ATOM      8  C   UNL     1      45.115   4.414   9.499  0.00  0.00    +0.000 A 
ATOM      9  C   UNL     1      45.851   5.402  10.175  0.00  0.00    +0.000 A 
BRANCH   8  10
ATOM     10  C   UNL     1      45.783   3.497   8.552  0.00  0.00    +0.000 A 
ATOM     11  C   UNL     1      46.431   3.996   7.404  0.00  0.00    +0.000 A 
ATOM     12  C   UNL     1      47.024   3.144   6.468  0.00  0.00    +0.000 A 
ATOM     13  C   UNL     1      46.968   1.768   6.653  0.00  0.00    +0.000 A 
ATOM     14  C   UNL     1      46.323   1.259   7.770  0.00  0.00    +0.000 A 
ATOM     15  F   UNL     1      46.247  -0.067   7.941  0.00  0.00    +0.000 F 
ATOM     16  C   UNL     1      45.741   2.102   8.715  0.00  0.00    +0.000 A 
ENDBRANCH   8  10
ENDBRANCH   1   4
BRANCH   1  17
ATOM     17  N   UNL     1      47.493   6.264  12.401  0.00  0.00    +0.000 N 
ATOM     18  H   UNL     1      47.377   5.252  12.419  0.00  0.00    +0.000 HD
BRANCH  17  22
ATOM     19  C   UNL     1      50.312   7.789  14.980  0.00  0.00    +0.000 A 
ATOM     20  N   UNL     1      49.338   7.043  15.542  0.00  0.00    +0.000 NA
ATOM     21  C   UNL     1      48.436   6.509  14.684  0.00  0.00    +0.000 A 
ATOM     22  C   UNL     1      48.464   6.677  13.316  0.00  0.00    +0.000 A 
ATOM     23  C   UNL     1      49.532   7.458  12.874  0.00  0.00    +0.000 A 
ATOM     24  N   UNL     1      50.465   8.023  13.666  0.00  0.00    +0.000 NA
BRANCH  19  26
ATOM     25  N   UNL     1      51.996   8.984  16.564  0.00  0.00    +0.000 NA
ATOM     26  C   UNL     1      51.236   8.447  15.865  0.00  0.00    +0.000 C 
ENDBRANCH  19  26
ENDBRANCH  17  22
ENDBRANCH   1  17
TORSDOF 5
ENDMDL
MODEL 7
REMARK VINA RESULT:    -6.607      3.431      5.893
REMARK INTER + INTRA:          -9.482
REMARK INTER:                  -8.926
REMARK INTRA:                  -0.556
REMARK UNBOUND:                -0.943
REMARK  Name = 
REMARK  5 active torsions:
REMARK  status: ('A' for Active; 'I' for Inactive)
REMARK    1  A    between atoms: C_2  and  C_3
REMARK    2  A    between atoms: C_6  and  N_7
REMARK    3  A    between atoms: N_7  and  C_8
REMARK    4  A    between atoms: C_8  and  C_9
REMARK    5  A    between atoms: C_13  and  C_14
REMARK                            x       y       z     vdW  Elec       q    Type
REMARK                         _______ _______ _______ _____ _____    ______ ____
ROOT
ATOM      1  C   UNL     1      48.158   4.476  16.998  0.00  0.00    +0.000 C 
ATOM      2  C   UNL     1      47.205   4.788  18.143  0.00  0.00    +0.000 C 
ATOM      3  C   UNL     1      47.183   3.439  17.503  0.00  0.00    +0.000 C 
ENDROOT
BRANCH   1   4
ATOM      4  C   UNL     1      47.932   5.100  15.631  0.00  0.00    +0.000 A 
ATOM      5  C   UNL     1      48.555   6.295  15.241  0.00  0.00    +0.000 A 
ATOM      6  C   UNL     1      48.161   6.969  14.087  0.00  0.00    +0.000 A 
ATOM      7  C   UNL     1      47.121   6.463  13.307  0.00  0.00    +0.000 A 
ATOM      8  C   UNL     1      46.471   5.267  13.647  0.00  0.00    +0.000 A 
ATOM      9  C   UNL     1      46.931   4.583  14.786  0.00  0.00    +0.000 A 
BRANCH   8  10
ATOM     10  C   UNL     1      45.277   4.791  12.918  0.00  0.00    +0.000 A 
ATOM     11  C   UNL     1      45.297   3.558  12.234  0.00  0.00    +0.000 A 
ATOM     12  C   UNL     1      44.199   3.111  11.494  0.00  0.00    +0.000 A 
ATOM     13  C   UNL     1      43.058   3.900  11.407  0.00  0.00    +0.000 A 
ATOM     14  C   UNL     1      43.026   5.123  12.062  0.00  0.00    +0.000 A 
ATOM     15  F   UNL     1      41.937   5.896  11.962  0.00  0.00    +0.000 F 
ATOM     16  C   UNL     1      44.112   5.569  12.813  0.00  0.00    +0.000 A 
ENDBRANCH   8  10
ENDBRANCH   1   4
BRANCH   1  17
ATOM     17  N   UNL     1      49.571   4.569  17.413  0.00  0.00    +0.000 N 
ATOM     18  H   UNL     1      50.012   5.442  17.127  0.00  0.00    +0.000 HD
BRANCH  17  22
ATOM     19  C   UNL     1      52.308   1.510  17.688  0.00  0.00    +0.000 A 
ATOM     20  N   UNL     1      51.122   1.194  17.125  0.00  0.00    +0.000 NA
ATOM     21  C   UNL     1      50.240   2.215  17.000  0.00  0.00    +0.000 A 
ATOM     22  C   UNL     1      50.484   3.512  17.397  0.00  0.00    +0.000 A 
ATOM     23  C   UNL     1      51.753   3.696  17.947  0.00  0.00    +0.000 A 
ATOM     24  N   UNL     1      52.681   2.731  18.105  0.00  0.00    +0.000 NA
BRANCH  19  26
ATOM     25  N   UNL     1      53.971  -0.447  18.106  0.00  0.00    +0.000 NA
ATOM     26  C   UNL     1      53.237   0.436  17.921  0.00  0.00    +0.000 C 
ENDBRANCH  19  26
ENDBRANCH  17  22
ENDBRANCH   1  17
TORSDOF 5
ENDMDL
MODEL 8
REMARK VINA RESULT:    -6.539      2.171      4.127
REMARK INTER + INTRA:          -9.394
REMARK INTER:                  -8.891
REMARK INTRA:                  -0.503
REMARK UNBOUND:                -0.943
REMARK  Name = 
REMARK  5 active torsions:
REMARK  status: ('A' for Active; 'I' for Inactive)
REMARK    1  A    between atoms: C_2  and  C_3
REMARK    2  A    between atoms: C_6  and  N_7
REMARK    3  A    between atoms: N_7  and  C_8
REMARK    4  A    between atoms: C_8  and  C_9
REMARK    5  A    between atoms: C_13  and  C_14
REMARK                            x       y       z     vdW  Elec       q    Type
REMARK                         _______ _______ _______ _____ _____    ______ ____
ROOT
ATOM      1  C   UNL     1      46.022   5.141  13.240  0.00  0.00    +0.000 C 
ATOM      2  C   UNL     1      46.158   4.604  14.658  0.00  0.00    +0.000 C 
ATOM      3  C   UNL     1      47.309   4.505  13.712  0.00  0.00    +0.000 C 
ENDROOT
BRANCH   1   4
ATOM      4  C   UNL     1      45.161   4.404  12.228  0.00  0.00    +0.000 A 
ATOM      5  C   UNL     1      43.960   3.773  12.587  0.00  0.00    +0.000 A 
ATOM      6  C   UNL     1      43.308   2.913  11.705  0.00  0.00    +0.000 A 
ATOM      7  C   UNL     1      43.858   2.656  10.449  0.00  0.00    +0.000 A 
ATOM      8  C   UNL     1      45.053   3.268  10.038  0.00  0.00    +0.000 A 
ATOM      9  C   UNL     1      45.654   4.174  10.929  0.00  0.00    +0.000 A 
BRANCH   8  10
ATOM     10  C   UNL     1      45.724   2.901   8.775  0.00  0.00    +0.000 A 
ATOM     11  C   UNL     1      45.992   3.877   7.794  0.00  0.00    +0.000 A 
ATOM     12  C   UNL     1      46.579   3.545   6.569  0.00  0.00    +0.000 A 
ATOM     13  C   UNL     1      46.896   2.220   6.291  0.00  0.00    +0.000 A 
ATOM     14  C   UNL     1      46.626   1.245   7.240  0.00  0.00    +0.000 A 
ATOM     15  F   UNL     1      46.910  -0.035   6.968  0.00  0.00    +0.000 F 
ATOM     16  C   UNL     1      46.054   1.570   8.468  0.00  0.00    +0.000 A 
ENDBRANCH   8  10
ENDBRANCH   1   4
BRANCH   1  17
ATOM     17  N   UNL     1      45.764   6.593  13.222  0.00  0.00    +0.000 N 
ATOM     18  H   UNL     1      44.783   6.820  13.065  0.00  0.00    +0.000 HD
BRANCH  17  22
ATOM     19  C   UNL     1      48.277   9.538  11.831  0.00  0.00    +0.000 A 
ATOM     20  N   UNL     1      48.585   8.276  11.465  0.00  0.00    +0.000 NA
ATOM     21  C   UNL     1      47.731   7.315  11.892  0.00  0.00    +0.000 A 
ATOM     22  C   UNL     1      46.602   7.550  12.647  0.00  0.00    +0.000 A 
ATOM     23  C   UNL     1      46.400   8.900  12.938  0.00  0.00    +0.000 A 
ATOM     24  N   UNL     1      47.206   9.910  12.551  0.00  0.00    +0.000 NA
BRANCH  19  26
ATOM     25  N   UNL     1      49.966  11.404  11.169  0.00  0.00    +0.000 NA
ATOM     26  C   UNL     1      49.207  10.577  11.474  0.00  0.00    +0.000 C 
ENDBRANCH  19  26
ENDBRANCH  17  22
ENDBRANCH   1  17
TORSDOF 5
ENDMDL
MODEL 9
REMARK VINA RESULT:    -6.311      1.946      3.086
REMARK INTER + INTRA:          -9.099
REMARK INTER:                  -9.389
REMARK INTRA:                   0.291
REMARK UNBOUND:                -0.943
REMARK  Name = 
REMARK  5 active torsions:
REMARK  status: ('A' for Active; 'I' for Inactive)
REMARK    1  A    between atoms: C_2  and  C_3
REMARK    2  A    between atoms: C_6  and  N_7
REMARK    3  A    between atoms: N_7  and  C_8
REMARK    4  A    between atoms: C_8  and  C_9
REMARK    5  A    between atoms: C_13  and  C_14
REMARK                            x       y       z     vdW  Elec       q    Type
REMARK                         _______ _______ _______ _____ _____    ______ ____
ROOT
ATOM      1  C   UNL     1      48.985   8.243  12.574  0.00  0.00    +0.000 C 
ATOM      2  C   UNL     1      50.079   7.574  11.752  0.00  0.00    +0.000 C 
ATOM      3  C   UNL     1      49.952   9.062  11.750  0.00  0.00    +0.000 C 
ENDROOT
BRANCH   1   4
ATOM      4  C   UNL     1      47.535   8.146  12.131  0.00  0.00    +0.000 A 
ATOM      5  C   UNL     1      46.553   9.040  12.584  0.00  0.00    +0.000 A 
ATOM      6  C   UNL     1      45.201   8.798  12.354  0.00  0.00    +0.000 A 
ATOM      7  C   UNL     1      44.804   7.645  11.678  0.00  0.00    +0.000 A 
ATOM      8  C   UNL     1      45.747   6.723  11.197  0.00  0.00    +0.000 A 
ATOM      9  C   UNL     1      47.105   7.026  11.395  0.00  0.00    +0.000 A 
BRANCH   8  10
ATOM     10  C   UNL     1      45.344   5.430  10.607  0.00  0.00    +0.000 A 
ATOM     11  C   UNL     1      45.661   5.121   9.268  0.00  0.00    +0.000 A 
ATOM     12  C   UNL     1      45.246   3.927   8.673  0.00  0.00    +0.000 A 
ATOM     13  C   UNL     1      44.486   3.018   9.402  0.00  0.00    +0.000 A 
ATOM     14  C   UNL     1      44.153   3.313  10.716  0.00  0.00    +0.000 A 
ATOM     15  F   UNL     1      43.403   2.451  11.414  0.00  0.00    +0.000 F 
ATOM     16  C   UNL     1      44.575   4.495  11.321  0.00  0.00    +0.000 A 
ENDBRANCH   8  10
ENDBRANCH   1   4
BRANCH   1  17
ATOM     17  N   UNL     1      49.136   7.974  14.016  0.00  0.00    +0.000 N 
ATOM     18  H   UNL     1      50.023   8.306  14.391  0.00  0.00    +0.000 HD
BRANCH  17  22
ATOM     19  C   UNL     1      47.783   4.735  16.161  0.00  0.00    +0.000 A 
ATOM     20  N   UNL     1      47.413   4.782  14.865  0.00  0.00    +0.000 NA
ATOM     21  C   UNL     1      47.895   5.829  14.152  0.00  0.00    +0.000 A 
ATOM     22  C   UNL     1      48.719   6.809  14.663  0.00  0.00    +0.000 A 
ATOM     23  C   UNL     1      49.031   6.626  16.011  0.00  0.00    +0.000 A 
ATOM     24  N   UNL     1      48.589   5.612  16.783  0.00  0.00    +0.000 NA
BRANCH  19  26
ATOM     25  N   UNL     1      46.758   2.833  17.612  0.00  0.00    +0.000 NA
ATOM     26  C   UNL     1      47.219   3.689  16.974  0.00  0.00    +0.000 C 
ENDBRANCH  19  26
ENDBRANCH  17  22
ENDBRANCH   1  17
TORSDOF 5
ENDMDL
