MODEL 1
REMARK VINA RESULT:    -7.983      0.000      0.000
REMARK INTER + INTRA:         -11.067
REMARK INTER:                 -10.316
REMARK INTRA:                  -0.751
REMARK UNBOUND:                -0.751
REMARK  Name = 
REMARK  5 active torsions:
REMARK  status: ('A' for Active; 'I' for Inactive)
REMARK    1  A    between atoms: C_2  and  C_5
REMARK    2  A    between atoms: C_9  and  N_10
REMARK    3  A    between atoms: N_10  and  C_11
REMARK    4  A    between atoms: C_11  and  C_12
REMARK    5  A    between atoms: C_17  and  C_18
REMARK                            x       y       z     vdW  Elec       q    Type
REMARK                         _______ _______ _______ _____ _____    ______ ____
ROOT
ATOM      1  C   UNL     1      43.657   4.742  10.567  0.00  0.00    +0.000 C 
ENDROOT
BRANCH   1   2
ATOM      2  C   UNL     1      44.773   5.046  11.545  0.00  0.00    +0.000 A 
ATOM      3  C   UNL     1      45.054   4.169  12.592  0.00  0.00    +0.000 A 
ATOM      4  C   UNL     1      46.062   4.473  13.504  0.00  0.00    +0.000 A 
ATOM      5  C   UNL     1      46.810   5.654  13.381  0.00  0.00    +0.000 A 
ATOM      6 CL   UNL     1      47.933   5.954  14.668  0.00  0.00    +0.000 Cl
ATOM      7  C   UNL     1      46.601   6.546  12.305  0.00  0.00    +0.000 A 
ATOM      8  C   UNL     1      45.567   6.200  11.396  0.00  0.00    +0.000 A 
BRANCH   7   9
ATOM      9  C   UNL     1      47.369   7.802  12.076  0.00  0.00    +0.000 A 
ATOM     10  C   UNL     1      48.717   7.780  11.674  0.00  0.00    +0.000 A 
ATOM     11  C   UNL     1      49.437   8.962  11.490  0.00  0.00    +0.000 A 
ATOM     12  C   UNL     1      48.788  10.164  11.694  0.00  0.00    +0.000 A 
ATOM     13  N   UNL     1      47.505  10.250  12.090  0.00  0.00    +0.000 NA
ATOM     14  C   UNL     1      46.840   9.079  12.280  0.00  0.00    +0.000 A 
ENDBRANCH   7   9
ENDBRANCH   1   2
BRANCH   1  15
ATOM     15  N   UNL     1      44.189   4.808   9.216  0.00  0.00    +0.000 N 
ATOM     16  H   UNL     1      43.473   5.050   8.537  0.00  0.00    +0.000 HD
BRANCH  15  21
ATOM     17  C   UNL     1      46.430   2.585   7.423  0.00  0.00    +0.000 A 
ATOM     18  C   UNL     1      46.103   1.375   8.017  0.00  0.00    +0.000 A 
ATOM     19  N   UNL     1      45.176   1.263   8.992  0.00  0.00    +0.000 NA
ATOM     20  C   UNL     1      44.579   2.428   9.349  0.00  0.00    +0.000 A 
ATOM     21  C   UNL     1      44.889   3.671   8.792  0.00  0.00    +0.000 A 
ATOM     22  N   UNL     1      45.817   3.751   7.812  0.00  0.00    +0.000 NA
BRANCH  17  24
ATOM     23  F   UNL     1      48.660   3.170   6.738  0.00  0.00    +0.000 F 
ATOM     24  C   UNL     1      47.479   2.610   6.336  0.00  0.00    +0.000 C 
ATOM     25  F   UNL     1      47.097   3.327   5.240  0.00  0.00    +0.000 F 
ATOM     26  F   UNL     1      47.808   1.369   5.878  0.00  0.00    +0.000 F 
ENDBRANCH  17  24
ENDBRANCH  15  21
ENDBRANCH   1  15
TORSDOF 5
ENDMDL
MODEL 2
REMARK VINA RESULT:    -7.960      1.800      2.468
REMARK INTER + INTRA:         -11.038
REMARK INTER:                 -10.360
REMARK INTRA:                  -0.678
REMARK UNBOUND:                -0.751
REMARK  Name = 
REMARK  5 active torsions:
REMARK  status: ('A' for Active; 'I' for Inactive)
REMARK    1  A    between atoms: C_2  and  C_5
REMARK    2  A    between atoms: C_9  and  N_10
REMARK    3  A    between atoms: N_10  and  C_11
REMARK    4  A    between atoms: C_11  and  C_12
REMARK    5  A    between atoms: C_17  and  C_18
REMARK                            x       y       z     vdW  Elec       q    Type
REMARK                         _______ _______ _______ _____ _____    ______ ____
ROOT
ATOM      1  C   UNL     1      45.170   2.963  12.138  0.00  0.00    +0.000 C 
ENDROOT
BRANCH   1   2
ATOM      2  C   UNL     1      45.260   4.458  12.370  0.00  0.00    +0.000 A 
ATOM      3  C   UNL     1      44.103   5.219  12.527  0.00  0.00    +0.000 A 
ATOM      4  C   UNL     1      44.195   6.598  12.708  0.00  0.00    +0.000 A 
ATOM      5  C   UNL     1      45.444   7.236  12.741  0.00  0.00    +0.000 A 
ATOM      6 CL   UNL     1      45.387   8.966  12.836  0.00  0.00    +0.000 Cl
ATOM      7  C   UNL     1      46.646   6.500  12.643  0.00  0.00    +0.000 A 
ATOM      8  C   UNL     1      46.511   5.099  12.462  0.00  0.00    +0.000 A 
BRANCH   7   9
ATOM      9  C   UNL     1      48.015   7.088  12.704  0.00  0.00    +0.000 A 
ATOM     10  C   UNL     1      48.620   7.667  11.574  0.00  0.00    +0.000 A 
ATOM     11  C   UNL     1      49.913   8.190  11.633  0.00  0.00    +0.000 A 
ATOM     12  C   UNL     1      50.584   8.143  12.839  0.00  0.00    +0.000 A 
ATOM     13  N   UNL     1      50.065   7.592  13.950  0.00  0.00    +0.000 NA
ATOM     14  C   UNL     1      48.811   7.074  13.852  0.00  0.00    +0.000 A 
ENDBRANCH   7   9
ENDBRANCH   1   2
BRANCH   1  15
ATOM     15  N   UNL     1      44.303   2.719  10.998  0.00  0.00    +0.000 N 
ATOM     16  H   UNL     1      43.857   1.808  11.047  0.00  0.00    +0.000 HD
BRANCH  15  21
ATOM     17  C   UNL     1      46.220   2.174   7.964  0.00  0.00    +0.000 A 
ATOM     18  C   UNL     1      46.067   3.407   7.350  0.00  0.00    +0.000 A 
ATOM     19  N   UNL     1      45.349   4.413   7.894  0.00  0.00    +0.000 NA
ATOM     20  C   UNL     1      44.787   4.129   9.096  0.00  0.00    +0.000 A 
ATOM     21  C   UNL     1      44.900   2.895   9.743  0.00  0.00    +0.000 A 
ATOM     22  N   UNL     1      45.632   1.909   9.177  0.00  0.00    +0.000 NA
BRANCH  17  24
ATOM     23  F   UNL     1      46.746   0.964   5.952  0.00  0.00    +0.000 F 
ATOM     24  C   UNL     1      47.047   1.110   7.278  0.00  0.00    +0.000 C 
ATOM     25  F   UNL     1      46.880  -0.130   7.822  0.00  0.00    +0.000 F 
ATOM     26  F   UNL     1      48.385   1.361   7.317  0.00  0.00    +0.000 F 
ENDBRANCH  17  24
ENDBRANCH  15  21
ENDBRANCH   1  15
TORSDOF 5
ENDMDL
MODEL 3
REMARK VINA RESULT:    -7.947      1.195      1.793
REMARK INTER + INTRA:         -11.020
REMARK INTER:                 -10.639
REMARK INTRA:                  -0.382
REMARK UNBOUND:                -0.751
REMARK  Name = 
REMARK  5 active torsions:
REMARK  status: ('A' for Active; 'I' for Inactive)
REMARK    1  A    between atoms: C_2  and  C_5
REMARK    2  A    between atoms: C_9  and  N_10
REMARK    3  A    between atoms: N_10  and  C_11
REMARK    4  A    between atoms: C_11  and  C_12
REMARK    5  A    between atoms: C_17  and  C_18
REMARK                            x       y       z     vdW  Elec       q    Type
REMARK                         _______ _______ _______ _____ _____    ______ ____
ROOT
ATOM      1  C   UNL     1      43.608   3.801  11.505  0.00  0.00    +0.000 C 
ENDROOT
BRANCH   1   2
ATOM      2  C   UNL     1      44.790   4.433  12.211  0.00  0.00    +0.000 A 
ATOM      3  C   UNL     1      45.589   3.676  13.067  0.00  0.00    +0.000 A 
ATOM      4  C   UNL     1      46.655   4.275  13.736  0.00  0.00    +0.000 A 
ATOM      5  C   UNL     1      46.942   5.637  13.557  0.00  0.00    +0.000 A 
ATOM      6 CL   UNL     1      48.210   6.262  14.561  0.00  0.00    +0.000 Cl
ATOM      7  C   UNL     1      46.195   6.431  12.658  0.00  0.00    +0.000 A 
ATOM      8  C   UNL     1      45.121   5.785  11.994  0.00  0.00    +0.000 A 
BRANCH   7   9
ATOM      9  C   UNL     1      46.450   7.873  12.379  0.00  0.00    +0.000 A 
ATOM     10  C   UNL     1      47.733   8.345  12.046  0.00  0.00    +0.000 A 
ATOM     11  C   UNL     1      47.968   9.702  11.815  0.00  0.00    +0.000 A 
ATOM     12  C   UNL     1      46.902  10.576  11.902  0.00  0.00    +0.000 A 
ATOM     13  N   UNL     1      45.656  10.188  12.228  0.00  0.00    +0.000 NA
ATOM     14  C   UNL     1      45.467   8.862  12.467  0.00  0.00    +0.000 A 
ENDBRANCH   7   9
ENDBRANCH   1   2
BRANCH   1  15
ATOM     15  N   UNL     1      44.063   2.606  10.813  0.00  0.00    +0.000 N 
ATOM     16  H   UNL     1      44.617   2.005  11.418  0.00  0.00    +0.000 HD
BRANCH  15  21
ATOM     17  C   UNL     1      46.199   2.194   7.907  0.00  0.00    +0.000 A 
ATOM     18  C   UNL     1      46.059   3.442   7.319  0.00  0.00    +0.000 A 
ATOM     19  N   UNL     1      45.282   4.416   7.841  0.00  0.00    +0.000 NA
ATOM     20  C   UNL     1      44.645   4.082   8.992  0.00  0.00    +0.000 A 
ATOM     21  C   UNL     1      44.742   2.833   9.609  0.00  0.00    +0.000 A 
ATOM     22  N   UNL     1      45.535   1.880   9.068  0.00  0.00    +0.000 NA
BRANCH  17  24
ATOM     23  F   UNL     1      47.049  -0.055   7.856  0.00  0.00    +0.000 F 
ATOM     24  C   UNL     1      47.096   1.170   7.251  0.00  0.00    +0.000 C 
ATOM     25  F   UNL     1      48.413   1.526   7.263  0.00  0.00    +0.000 F 
ATOM     26  F   UNL     1      46.781   0.938   5.945  0.00  0.00    +0.000 F 
ENDBRANCH  17  24
ENDBRANCH  15  21
ENDBRANCH   1  15
TORSDOF 5
ENDMDL
MODEL 4
REMARK VINA RESULT:    -7.720      2.352      3.743
REMARK INTER + INTRA:         -10.728
REMARK INTER:                  -9.928
REMARK INTRA:                  -0.800
REMARK UNBOUND:                -0.751
REMARK  Name = 
REMARK  5 active torsions:
REMARK  status: ('A' for Active; 'I' for Inactive)
REMARK    1  A    between atoms: C_2  and  C_5
REMARK    2  A    between atoms: C_9  and  N_10
REMARK    3  A    between atoms: N_10  and  C_11
REMARK    4  A    between atoms: C_11  and  C_12
REMARK    5  A    between atoms: C_17  and  C_18
REMARK                            x       y       z     vdW  Elec       q    Type
REMARK                         _______ _______ _______ _____ _____    ______ ____
ROOT
ATOM      1  C   UNL     1      43.615   5.580  11.701  0.00  0.00    +0.000 C 
ENDROOT
BRANCH   1   2
ATOM      2  C   UNL     1      44.983   5.962  12.228  0.00  0.00    +0.000 A 
ATOM      3  C   UNL     1      45.665   7.056  11.699  0.00  0.00    +0.000 A 
ATOM      4  C   UNL     1      46.936   7.380  12.169  0.00  0.00    +0.000 A 
ATOM      5  C   UNL     1      47.543   6.619  13.180  0.00  0.00    +0.000 A 
ATOM      6 CL   UNL     1      49.175   7.065  13.560  0.00  0.00    +0.000 Cl
ATOM      7  C   UNL     1      46.868   5.536  13.787  0.00  0.00    +0.000 A 
ATOM      8  C   UNL     1      45.576   5.239  13.283  0.00  0.00    +0.000 A 
BRANCH   7   9
ATOM      9  C   UNL     1      47.420   4.697  14.889  0.00  0.00    +0.000 A 
ATOM     10  C   UNL     1      47.893   5.266  16.085  0.00  0.00    +0.000 A 
ATOM     11  C   UNL     1      48.435   4.475  17.099  0.00  0.00    +0.000 A 
ATOM     12  C   UNL     1      48.480   3.107  16.910  0.00  0.00    +0.000 A 
ATOM     13  N   UNL     1      48.056   2.505  15.785  0.00  0.00    +0.000 NA
ATOM     14  C   UNL     1      47.553   3.308  14.809  0.00  0.00    +0.000 A 
ENDBRANCH   7   9
ENDBRANCH   1   2
BRANCH   1  15
ATOM     15  N   UNL     1      43.679   5.508  10.250  0.00  0.00    +0.000 N 
ATOM     16  H   UNL     1      42.765   5.634   9.823  0.00  0.00    +0.000 HD
BRANCH  15  21
ATOM     17  C   UNL     1      45.727   3.275   8.252  0.00  0.00    +0.000 A 
ATOM     18  C   UNL     1      45.347   2.051   8.781  0.00  0.00    +0.000 A 
ATOM     19  N   UNL     1      44.443   1.932   9.778  0.00  0.00    +0.000 NA
ATOM     20  C   UNL     1      43.929   3.105  10.225  0.00  0.00    +0.000 A 
ATOM     21  C   UNL     1      44.296   4.360   9.735  0.00  0.00    +0.000 A 
ATOM     22  N   UNL     1      45.198   4.448   8.730  0.00  0.00    +0.000 NA
BRANCH  17  24
ATOM     23  F   UNL     1      47.742   2.385   7.285  0.00  0.00    +0.000 F 
ATOM     24  C   UNL     1      46.744   3.307   7.133  0.00  0.00    +0.000 C 
ATOM     25  F   UNL     1      47.380   4.508   7.023  0.00  0.00    +0.000 F 
ATOM     26  F   UNL     1      46.203   3.054   5.908  0.00  0.00    +0.000 F 
ENDBRANCH  17  24
ENDBRANCH  15  21
ENDBRANCH   1  15
TORSDOF 5
ENDMDL
MODEL 5
REMARK VINA RESULT:    -7.672      2.576      4.025
REMARK INTER + INTRA:         -10.666
REMARK INTER:                 -10.299
REMARK INTRA:                  -0.367
REMARK UNBOUND:                -0.751
REMARK  Name = 
REMARK  5 active torsions:
REMARK  status: ('A' for Active; 'I' for Inactive)
REMARK    1  A    between atoms: C_2  and  C_5
REMARK    2  A    between atoms: C_9  and  N_10
REMARK    3  A    between atoms: N_10  and  C_11
REMARK    4  A    between atoms: C_11  and  C_12
REMARK    5  A    between atoms: C_17  and  C_18
REMARK                            x       y       z     vdW  Elec       q    Type
REMARK                         _______ _______ _______ _____ _____    ______ ____
ROOT
ATOM      1  C   UNL     1      44.167   4.004  11.852  0.00  0.00    +0.000 C 
ENDROOT
BRANCH   1   2
ATOM      2  C   UNL     1      45.350   4.759  12.420  0.00  0.00    +0.000 A 
ATOM      3  C   UNL     1      45.884   5.853  11.739  0.00  0.00    +0.000 A 
ATOM      4  C   UNL     1      46.993   6.521  12.255  0.00  0.00    +0.000 A 
ATOM      5  C   UNL     1      47.582   6.112  13.461  0.00  0.00    +0.000 A 
ATOM      6 CL   UNL     1      49.031   6.957  13.898  0.00  0.00    +0.000 Cl
ATOM      7  C   UNL     1      47.043   5.046  14.215  0.00  0.00    +0.000 A 
ATOM      8  C   UNL     1      45.913   4.392  13.659  0.00  0.00    +0.000 A 
BRANCH   7   9
ATOM      9  C   UNL     1      47.580   4.567  15.520  0.00  0.00    +0.000 A 
ATOM     10  C   UNL     1      47.709   3.196  15.807  0.00  0.00    +0.000 A 
ATOM     11  C   UNL     1      48.186   2.756  17.044  0.00  0.00    +0.000 A 
ATOM     12  C   UNL     1      48.549   3.704  17.980  0.00  0.00    +0.000 A 
ATOM     13  N   UNL     1      48.437   5.028  17.771  0.00  0.00    +0.000 NA
ATOM     14  C   UNL     1      47.950   5.421  16.563  0.00  0.00    +0.000 A 
ENDBRANCH   7   9
ENDBRANCH   1   2
BRANCH   1  15
ATOM     15  N   UNL     1      44.648   2.778  11.238  0.00  0.00    +0.000 N 
ATOM     16  H   UNL     1      45.417   2.368  11.760  0.00  0.00    +0.000 HD
BRANCH  15  21
ATOM     17  C   UNL     1      46.107   2.154   7.973  0.00  0.00    +0.000 A 
ATOM     18  C   UNL     1      45.628   3.252   7.274  0.00  0.00    +0.000 A 
ATOM     19  N   UNL     1      44.835   4.189   7.837  0.00  0.00    +0.000 NA
ATOM     20  C   UNL     1      44.542   3.980   9.145  0.00  0.00    +0.000 A 
ATOM     21  C   UNL     1      44.987   2.880   9.882  0.00  0.00    +0.000 A 
ATOM     22  N   UNL     1      45.787   1.961   9.295  0.00  0.00    +0.000 NA
BRANCH  17  24
ATOM     23  F   UNL     1      46.776   1.115   5.909  0.00  0.00    +0.000 F 
ATOM     24  C   UNL     1      46.993   1.159   7.258  0.00  0.00    +0.000 C 
ATOM     25  F   UNL     1      46.815  -0.122   7.691  0.00  0.00    +0.000 F 
ATOM     26  F   UNL     1      48.322   1.424   7.400  0.00  0.00    +0.000 F 
ENDBRANCH  17  24
ENDBRANCH  15  21
ENDBRANCH   1  15
TORSDOF 5
ENDMDL
MODEL 6
REMARK VINA RESULT:    -7.096      4.851      7.884
REMARK INTER + INTRA:          -9.922
REMARK INTER:                  -9.108
REMARK INTRA:                  -0.814
REMARK UNBOUND:                -0.751
REMARK  Name = 
REMARK  5 active torsions:
REMARK  status: ('A' for Active; 'I' for Inactive)
REMARK    1  A    between atoms: C_2  and  C_5
REMARK    2  A    between atoms: C_9  and  N_10
REMARK    3  A    between atoms: N_10  and  C_11
REMARK    4  A    between atoms: C_11  and  C_12
REMARK    5  A    between atoms: C_17  and  C_18
REMARK                            x       y       z     vdW  Elec       q    Type
REMARK                         _______ _______ _______ _____ _____    ______ ____
ROOT
ATOM      1  C   UNL     1      48.617   7.030  13.772  0.00  0.00    +0.000 C 
ENDROOT
BRANCH   1   2
ATOM      2  C   UNL     1      47.309   7.155  13.018  0.00  0.00    +0.000 A 
ATOM      3  C   UNL     1      46.519   8.294  13.158  0.00  0.00    +0.000 A 
ATOM      4  C   UNL     1      45.302   8.386  12.485  0.00  0.00    +0.000 A 
ATOM      5  C   UNL     1      44.859   7.344  11.657  0.00  0.00    +0.000 A 
ATOM      6 CL   UNL     1      43.268   7.549  10.999  0.00  0.00    +0.000 Cl
ATOM      7  C   UNL     1      45.651   6.194  11.439  0.00  0.00    +0.000 A 
ATOM      8  C   UNL     1      46.883   6.139  12.139  0.00  0.00    +0.000 A 
BRANCH   7   9
ATOM      9  C   UNL     1      45.277   5.057  10.550  0.00  0.00    +0.000 A 
ATOM     10  C   UNL     1      45.646   5.028   9.193  0.00  0.00    +0.000 A 
ATOM     11  C   UNL     1      45.266   3.972   8.362  0.00  0.00    +0.000 A 
ATOM     12  C   UNL     1      44.532   2.939   8.909  0.00  0.00    +0.000 A 
ATOM     13  N   UNL     1      44.139   2.914  10.195  0.00  0.00    +0.000 NA
ATOM     14  C   UNL     1      44.508   3.969  10.972  0.00  0.00    +0.000 A 
ENDBRANCH   7   9
ENDBRANCH   1   2
BRANCH   1  15
ATOM     15  N   UNL     1      48.416   7.494  15.134  0.00  0.00    +0.000 N 
ATOM     16  H   UNL     1      48.945   8.340  15.329  0.00  0.00    +0.000 HD
BRANCH  15  21
ATOM     17  C   UNL     1      48.573   4.369  16.974  0.00  0.00    +0.000 A 
ATOM     18  C   UNL     1      49.077   4.820  18.184  0.00  0.00    +0.000 A 
ATOM     19  N   UNL     1      49.375   6.116  18.417  0.00  0.00    +0.000 NA
ATOM     20  C   UNL     1      49.140   6.952  17.374  0.00  0.00    +0.000 A 
ATOM     21  C   UNL     1      48.650   6.539  16.133  0.00  0.00    +0.000 A 
ATOM     22  N   UNL     1      48.353   5.236  15.931  0.00  0.00    +0.000 NA
BRANCH  17  24
ATOM     23  F   UNL     1      47.208   2.479  17.568  0.00  0.00    +0.000 F 
ATOM     24  C   UNL     1      48.266   2.898  16.809  0.00  0.00    +0.000 C 
ATOM     25  F   UNL     1      49.306   2.091  17.167  0.00  0.00    +0.000 F 
ATOM     26  F   UNL     1      47.948   2.555  15.529  0.00  0.00    +0.000 F 
ENDBRANCH  17  24
ENDBRANCH  15  21
ENDBRANCH   1  15
TORSDOF 5
ENDMDL
MODEL 7
REMARK VINA RESULT:    -7.092      1.846      2.576
REMARK INTER + INTRA:          -9.916
REMARK INTER:                  -9.241
REMARK INTRA:                  -0.675
REMARK UNBOUND:                -0.751
REMARK  Name = 
REMARK  5 active torsions:
REMARK  status: ('A' for Active; 'I' for Inactive)
REMARK    1  A    between atoms: C_2  and  C_5
REMARK    2  A    between atoms: C_9  and  N_10
REMARK    3  A    between atoms: N_10  and  C_11
REMARK    4  A    between atoms: C_11  and  C_12
REMARK    5  A    between atoms: C_17  and  C_18
REMARK                            x       y       z     vdW  Elec       q    Type
REMARK                         _______ _______ _______ _____ _____    ______ ____
ROOT
ATOM      1  C   UNL     1      44.981   5.663  11.307  0.00  0.00    +0.000 C 
ENDROOT
BRANCH   1   2
ATOM      2  C   UNL     1      45.587   7.020  11.604  0.00  0.00    +0.000 A 
ATOM      3  C   UNL     1      44.782   8.157  11.654  0.00  0.00    +0.000 A 
ATOM      4  C   UNL     1      45.353   9.405  11.896  0.00  0.00    +0.000 A 
ATOM      5  C   UNL     1      46.736   9.534  12.100  0.00  0.00    +0.000 A 
ATOM      6 CL   UNL     1      47.310  11.163  12.254  0.00  0.00    +0.000 Cl
ATOM      7  C   UNL     1      47.584   8.404  12.115  0.00  0.00    +0.000 A 
ATOM      8  C   UNL     1      46.965   7.152  11.866  0.00  0.00    +0.000 A 
BRANCH   7   9
ATOM      9  C   UNL     1      49.054   8.444  12.357  0.00  0.00    +0.000 A 
ATOM     10  C   UNL     1      49.979   8.208  11.323  0.00  0.00    +0.000 A 
ATOM     11  C   UNL     1      51.354   8.218  11.566  0.00  0.00    +0.000 A 
ATOM     12  C   UNL     1      51.791   8.486  12.849  0.00  0.00    +0.000 A 
ATOM     13  N   UNL     1      50.957   8.707  13.880  0.00  0.00    +0.000 NA
ATOM     14  C   UNL     1      49.624   8.669  13.613  0.00  0.00    +0.000 A 
ENDBRANCH   7   9
ENDBRANCH   1   2
BRANCH   1  15
ATOM     15  N   UNL     1      44.802   5.538   9.870  0.00  0.00    +0.000 N 
ATOM     16  H   UNL     1      43.874   5.831   9.576  0.00  0.00    +0.000 HD
BRANCH  15  21
ATOM     17  C   UNL     1      46.126   2.883   7.778  0.00  0.00    +0.000 A 
ATOM     18  C   UNL     1      45.518   1.782   8.362  0.00  0.00    +0.000 A 
ATOM     19  N   UNL     1      44.691   1.879   9.425  0.00  0.00    +0.000 NA
ATOM     20  C   UNL     1      44.494   3.142   9.882  0.00  0.00    +0.000 A 
ATOM     21  C   UNL     1      45.099   4.276   9.337  0.00  0.00    +0.000 A 
ATOM     22  N   UNL     1      45.917   4.149   8.267  0.00  0.00    +0.000 NA
BRANCH  17  24
ATOM     23  F   UNL     1      48.359   2.836   6.885  0.00  0.00    +0.000 F 
ATOM     24  C   UNL     1      47.034   2.674   6.588  0.00  0.00    +0.000 C 
ATOM     25  F   UNL     1      46.787   3.545   5.568  0.00  0.00    +0.000 F 
ATOM     26  F   UNL     1      46.936   1.426   6.049  0.00  0.00    +0.000 F 
ENDBRANCH  17  24
ENDBRANCH  15  21
ENDBRANCH   1  15
TORSDOF 5
ENDMDL
MODEL 8
REMARK VINA RESULT:    -6.142      5.377      6.492
REMARK INTER + INTRA:          -8.689
REMARK INTER:                  -8.019
REMARK INTRA:                  -0.670
REMARK UNBOUND:                -0.751
REMARK  Name = 
REMARK  5 active torsions:
REMARK  status: ('A' for Active; 'I' for Inactive)
REMARK    1  A    between atoms: C_2  and  C_5
REMARK    2  A    between atoms: C_9  and  N_10
REMARK    3  A    between atoms: N_10  and  C_11
REMARK    4  A    between atoms: C_11  and  C_12
REMARK    5  A    between atoms: C_17  and  C_18
REMARK                            x       y       z     vdW  Elec       q    Type
REMARK                         _______ _______ _______ _____ _____    ______ ____
ROOT
ATOM      1  C   UNL     1      47.153   3.877  15.285  0.00  0.00    +0.000 C 
ENDROOT
BRANCH   1   2
ATOM      2  C   UNL     1      47.689   4.091  16.685  0.00  0.00    +0.000 A 
ATOM      3  C   UNL     1      47.998   3.002  17.499  0.00  0.00    +0.000 A 
ATOM      4  C   UNL     1      48.461   3.210  18.796  0.00  0.00    +0.000 A 
ATOM      5  C   UNL     1      48.628   4.509  19.300  0.00  0.00    +0.000 A 
ATOM      6 CL   UNL     1      49.080   4.600  20.971  0.00  0.00    +0.000 Cl
ATOM      7  C   UNL     1      48.382   5.644  18.495  0.00  0.00    +0.000 A 
ATOM      8  C   UNL     1      47.914   5.392  17.180  0.00  0.00    +0.000 A 
BRANCH   7   9
ATOM      9  C   UNL     1      48.565   7.057  18.934  0.00  0.00    +0.000 A 
ATOM     10  C   UNL     1      49.843   7.634  19.052  0.00  0.00    +0.000 A 
ATOM     11  C   UNL     1      50.006   8.949  19.492  0.00  0.00    +0.000 A 
ATOM     12  C   UNL     1      48.876   9.684  19.793  0.00  0.00    +0.000 A 
ATOM     13  N   UNL     1      47.630   9.186  19.712  0.00  0.00    +0.000 NA
ATOM     14  C   UNL     1      47.508   7.895  19.300  0.00  0.00    +0.000 A 
ENDBRANCH   7   9
ENDBRANCH   1   2
BRANCH   1  15
ATOM     15  N   UNL     1      47.126   5.156  14.595  0.00  0.00    +0.000 N 
ATOM     16  H   UNL     1      46.814   5.908  15.202  0.00  0.00    +0.000 HD
BRANCH  15  21
ATOM     17  C   UNL     1      44.804   4.318  11.933  0.00  0.00    +0.000 A 
ATOM     18  C   UNL     1      45.146   5.281  10.996  0.00  0.00    +0.000 A 
ATOM     19  N   UNL     1      46.110   6.202  11.209  0.00  0.00    +0.000 NA
ATOM     20  C   UNL     1      46.727   6.115  12.414  0.00  0.00    +0.000 A 
ATOM     21  C   UNL     1      46.403   5.174  13.395  0.00  0.00    +0.000 A 
ATOM     22  N   UNL     1      45.439   4.259  13.150  0.00  0.00    +0.000 NA
BRANCH  17  24
ATOM     23  F   UNL     1      43.980   2.582  10.486  0.00  0.00    +0.000 F 
ATOM     24  C   UNL     1      43.713   3.325  11.602  0.00  0.00    +0.000 C 
ATOM     25  F   UNL     1      42.508   3.916  11.359  0.00  0.00    +0.000 F 
ATOM     26  F   UNL     1      43.494   2.417  12.595  0.00  0.00    +0.000 F 
ENDBRANCH  17  24
ENDBRANCH  15  21
ENDBRANCH   1  15
TORSDOF 5
ENDMDL
MODEL 9
REMARK VINA RESULT:    -5.767      6.321      8.951
REMARK INTER + INTRA:          -8.203
REMARK INTER:                  -7.520
REMARK INTRA:                  -0.684
REMARK UNBOUND:                -0.751
REMARK  Name = 
REMARK  5 active torsions:
REMARK  status: ('A' for Active; 'I' for Inactive)
REMARK    1  A    between atoms: C_2  and  C_5
REMARK    2  A    between atoms: C_9  and  N_10
REMARK    3  A    between atoms: N_10  and  C_11
REMARK    4  A    between atoms: C_11  and  C_12
REMARK    5  A    between atoms: C_17  and  C_18
REMARK                            x       y       z     vdW  Elec       q    Type
REMARK                         _______ _______ _______ _____ _____    ______ ____
ROOT
ATOM      1  C   UNL     1      48.398   6.652  14.838  0.00  0.00    +0.000 C 
ENDROOT
BRANCH   1   2
ATOM      2  C   UNL     1      47.386   7.116  13.811  0.00  0.00    +0.000 A 
ATOM      3  C   UNL     1      46.977   8.448  13.774  0.00  0.00    +0.000 A 
ATOM      4  C   UNL     1      46.022   8.859  12.846  0.00  0.00    +0.000 A 
ATOM      5  C   UNL     1      45.465   7.947  11.937  0.00  0.00    +0.000 A 
ATOM      6 CL   UNL     1      44.194   8.579  10.941  0.00  0.00    +0.000 Cl
ATOM      7  C   UNL     1      45.888   6.599  11.898  0.00  0.00    +0.000 A 
ATOM      8  C   UNL     1      46.864   6.220  12.857  0.00  0.00    +0.000 A 
BRANCH   7   9
ATOM      9  C   UNL     1      45.379   5.571  10.946  0.00  0.00    +0.000 A 
ATOM     10  C   UNL     1      45.881   5.465   9.637  0.00  0.00    +0.000 A 
ATOM     11  C   UNL     1      45.377   4.518   8.743  0.00  0.00    +0.000 A 
ATOM     12  C   UNL     1      44.380   3.669   9.181  0.00  0.00    +0.000 A 
ATOM     13  N   UNL     1      43.850   3.729  10.416  0.00  0.00    +0.000 NA
ATOM     14  C   UNL     1      44.350   4.677  11.254  0.00  0.00    +0.000 A 
ENDBRANCH   7   9
ENDBRANCH   1   2
BRANCH   1  15
ATOM     15  N   UNL     1      47.949   5.387  15.396  0.00  0.00    +0.000 N 
ATOM     16  H   UNL     1      46.953   5.243  15.255  0.00  0.00    +0.000 HD
BRANCH  15  21
ATOM     17  C   UNL     1      48.671   5.919  18.914  0.00  0.00    +0.000 A 
ATOM     18  C   UNL     1      49.021   4.631  19.291  0.00  0.00    +0.000 A 
ATOM     19  N   UNL     1      49.022   3.590  18.431  0.00  0.00    +0.000 NA
ATOM     20  C   UNL     1      48.657   3.898  17.161  0.00  0.00    +0.000 A 
ATOM     21  C   UNL     1      48.280   5.175  16.741  0.00  0.00    +0.000 A 
ATOM     22  N   UNL     1      48.295   6.201  17.623  0.00  0.00    +0.000 NA
BRANCH  17  24
ATOM     23  F   UNL     1      49.505   6.734  21.018  0.00  0.00    +0.000 F 
ATOM     24  C   UNL     1      48.703   7.021  19.948  0.00  0.00    +0.000 C 
ATOM     25  F   UNL     1      47.477   7.291  20.481  0.00  0.00    +0.000 F 
ATOM     26  F   UNL     1      49.169   8.205  19.457  0.00  0.00    +0.000 F 
ENDBRANCH  17  24
ENDBRANCH  15  21
ENDBRANCH   1  15
TORSDOF 5
ENDMDL
