MODEL 1
REMARK VINA RESULT:    -8.225      0.000      0.000
REMARK INTER + INTRA:         -11.989
REMARK INTER:                 -11.110
REMARK INTRA:                  -0.879
REMARK UNBOUND:                -0.879
REMARK  Name = 
REMARK  7 active torsions:
REMARK  status: ('A' for Active; 'I' for Inactive)
REMARK    1  A    between atoms: C_1  and  O_2
REMARK    2  A    between atoms: O_2  and  C_3
REMARK    3  A    between atoms: C_6  and  C_7
REMARK    4  A    between atoms: C_11  and  C_12
REMARK    5  A    between atoms: C_12  and  O_13
REMARK    6  A    between atoms: O_13  and  C_14
REMARK    7  A    between atoms: C_17  and  C_18
REMARK                            x       y       z     vdW  Elec       q    Type
REMARK                         _______ _______ _______ _____ _____    ______ ____
ROOT
ATOM      1  C   UNL     1      46.679   6.373  12.332  0.00  0.00    +0.000 A 
ATOM      2  C   UNL     1      47.226   5.450  13.241  0.00  0.00    +0.000 A 
ATOM      3  C   UNL     1      46.613   4.221  13.495  0.00  0.00    +0.000 A 
ATOM      4  C   UNL     1      45.431   3.881  12.843  0.00  0.00    +0.000 A 
ATOM      5  C   UNL     1      44.849   4.773  11.938  0.00  0.00    +0.000 A 
ATOM      6  C   UNL     1      45.488   5.999  11.678  0.00  0.00    +0.000 A 
ENDROOT
BRANCH   1  10
ATOM      7  C   UNL     1      48.539  10.225  11.671  0.00  0.00    +0.000 A 
ATOM      8  C   UNL     1      47.206  10.145  12.063  0.00  0.00    +0.000 A 
ATOM      9  C   UNL     1      46.601   8.895  12.263  0.00  0.00    +0.000 A 
ATOM     10  C   UNL     1      47.311   7.693  12.093  0.00  0.00    +0.000 A 
ATOM     11  C   UNL     1      48.657   7.801  11.704  0.00  0.00    +0.000 A 
ATOM     12  C   UNL     1      49.260   9.046  11.490  0.00  0.00    +0.000 A 
BRANCH   7  14
ATOM     13  C   UNL     1      50.330  11.277  10.526  0.00  0.00    +0.000 C 
ATOM     14  O   UNL     1      49.244  11.373  11.438  0.00  0.00    +0.000 OA
ENDBRANCH   7  14
ENDBRANCH   1  10
BRANCH   5  15
ATOM     15  C   UNL     1      43.543   4.437  11.260  0.00  0.00    +0.000 C 
BRANCH  15  16
ATOM     16  O   UNL     1      43.665   4.668   9.857  0.00  0.00    +0.000 OA
BRANCH  16  17
ATOM     17  C   UNL     1      44.538   3.865   9.181  0.00  0.00    +0.000 A 
ATOM     18  C   UNL     1      45.527   4.283   8.290  0.00  0.00    +0.000 A 
ATOM     19  C   UNL     1      46.358   3.338   7.686  0.00  0.00    +0.000 A 
ATOM     20  C   UNL     1      46.168   1.997   7.992  0.00  0.00    +0.000 A 
ATOM     21  N   UNL     1      45.208   1.546   8.847  0.00  0.00    +0.000 NA
ATOM     22  C   UNL     1      44.423   2.497   9.411  0.00  0.00    +0.000 A 
BRANCH  20  23
ATOM     23  C   UNL     1      47.058   0.965   7.374  0.00  0.00    +0.000 C 
ATOM     24  N   UNL     1      46.723  -0.334   7.640  0.00  0.00    +0.000 N 
ATOM     25  O   UNL     1      48.025   1.254   6.681  0.00  0.00    +0.000 OA
ATOM     26  H   UNL     1      45.921  -0.534   8.224  0.00  0.00    +0.000 HD
ATOM     27  H   UNL     1      47.286  -1.084   7.268  0.00  0.00    +0.000 HD
ENDBRANCH  20  23
ENDBRANCH  16  17
ENDBRANCH  15  16
ENDBRANCH   5  15
TORSDOF 6
ENDMDL
MODEL 2
REMARK VINA RESULT:    -8.188      2.983      4.596
REMARK INTER + INTRA:         -11.939
REMARK INTER:                 -11.169
REMARK INTRA:                  -0.770
REMARK UNBOUND:                -0.879
REMARK  Name = 
REMARK  7 active torsions:
REMARK  status: ('A' for Active; 'I' for Inactive)
REMARK    1  A    between atoms: C_1  and  O_2
REMARK    2  A    between atoms: O_2  and  C_3
REMARK    3  A    between atoms: C_6  and  C_7
REMARK    4  A    between atoms: C_11  and  C_12
REMARK    5  A    between atoms: C_12  and  O_13
REMARK    6  A    between atoms: O_13  and  C_14
REMARK    7  A    between atoms: C_17  and  C_18
REMARK                            x       y       z     vdW  Elec       q    Type
REMARK                         _______ _______ _______ _____ _____    ______ ____
ROOT
ATOM      1  C   UNL     1      46.848   5.425  13.744  0.00  0.00    +0.000 A 
ATOM      2  C   UNL     1      47.412   6.477  12.999  0.00  0.00    +0.000 A 
ATOM      3  C   UNL     1      46.855   6.896  11.788  0.00  0.00    +0.000 A 
ATOM      4  C   UNL     1      45.715   6.273  11.289  0.00  0.00    +0.000 A 
ATOM      5  C   UNL     1      45.127   5.218  11.994  0.00  0.00    +0.000 A 
ATOM      6  C   UNL     1      45.688   4.820  13.221  0.00  0.00    +0.000 A 
ENDROOT
BRANCH   1  10
ATOM      7  C   UNL     1      48.676   4.049  17.418  0.00  0.00    +0.000 A 
ATOM      8  C   UNL     1      47.884   3.191  16.661  0.00  0.00    +0.000 A 
ATOM      9  C   UNL     1      47.281   3.643  15.479  0.00  0.00    +0.000 A 
ATOM     10  C   UNL     1      47.463   4.956  15.009  0.00  0.00    +0.000 A 
ATOM     11  C   UNL     1      48.273   5.801  15.788  0.00  0.00    +0.000 A 
ATOM     12  C   UNL     1      48.865   5.357  16.976  0.00  0.00    +0.000 A 
BRANCH   7  14
ATOM     13  C   UNL     1      49.000   4.544  19.715  0.00  0.00    +0.000 C 
ATOM     14  O   UNL     1      49.314   3.739  18.586  0.00  0.00    +0.000 OA
ENDBRANCH   7  14
ENDBRANCH   1  10
BRANCH   5  15
ATOM     15  C   UNL     1      43.919   4.503  11.441  0.00  0.00    +0.000 C 
BRANCH  15  16
ATOM     16  O   UNL     1      43.871   4.679  10.026  0.00  0.00    +0.000 OA
BRANCH  16  17
ATOM     17  C   UNL     1      44.684   3.870   9.285  0.00  0.00    +0.000 A 
ATOM     18  C   UNL     1      45.566   4.278   8.284  0.00  0.00    +0.000 A 
ATOM     19  C   UNL     1      46.347   3.330   7.622  0.00  0.00    +0.000 A 
ATOM     20  C   UNL     1      46.215   1.995   7.982  0.00  0.00    +0.000 A 
ATOM     21  N   UNL     1      45.358   1.554   8.944  0.00  0.00    +0.000 NA
ATOM     22  C   UNL     1      44.618   2.508   9.562  0.00  0.00    +0.000 A 
BRANCH  20  23
ATOM     23  C   UNL     1      47.055   0.960   7.302  0.00  0.00    +0.000 C 
ATOM     24  N   UNL     1      46.768  -0.336   7.631  0.00  0.00    +0.000 N 
ATOM     25  O   UNL     1      47.943   1.244   6.509  0.00  0.00    +0.000 OA
ATOM     26  H   UNL     1      46.031  -0.532   8.296  0.00  0.00    +0.000 HD
ATOM     27  H   UNL     1      47.303  -1.088   7.221  0.00  0.00    +0.000 HD
ENDBRANCH  20  23
ENDBRANCH  16  17
ENDBRANCH  15  16
ENDBRANCH   5  15
TORSDOF 6
ENDMDL
MODEL 3
REMARK VINA RESULT:    -7.956      1.899      2.515
REMARK INTER + INTRA:         -11.625
REMARK INTER:                 -10.634
REMARK INTRA:                  -0.991
REMARK UNBOUND:                -0.879
REMARK  Name = 
REMARK  7 active torsions:
REMARK  status: ('A' for Active; 'I' for Inactive)
REMARK    1  A    between atoms: C_1  and  O_2
REMARK    2  A    between atoms: O_2  and  C_3
REMARK    3  A    between atoms: C_6  and  C_7
REMARK    4  A    between atoms: C_11  and  C_12
REMARK    5  A    between atoms: C_12  and  O_13
REMARK    6  A    between atoms: O_13  and  C_14
REMARK    7  A    between atoms: C_17  and  C_18
REMARK                            x       y       z     vdW  Elec       q    Type
REMARK                         _______ _______ _______ _____ _____    ______ ____
ROOT
ATOM      1  C   UNL     1      46.029   6.577  12.101  0.00  0.00    +0.000 A 
ATOM      2  C   UNL     1      45.023   7.501  11.767  0.00  0.00    +0.000 A 
ATOM      3  C   UNL     1      43.742   7.085  11.397  0.00  0.00    +0.000 A 
ATOM      4  C   UNL     1      43.432   5.729  11.350  0.00  0.00    +0.000 A 
ATOM      5  C   UNL     1      44.406   4.777  11.666  0.00  0.00    +0.000 A 
ATOM      6  C   UNL     1      45.686   5.212  12.056  0.00  0.00    +0.000 A 
ENDROOT
BRANCH   1  10
ATOM      7  C   UNL     1      50.043   7.836  13.121  0.00  0.00    +0.000 A 
ATOM      8  C   UNL     1      49.246   7.194  14.064  0.00  0.00    +0.000 A 
ATOM      9  C   UNL     1      47.940   6.800  13.736  0.00  0.00    +0.000 A 
ATOM     10  C   UNL     1      47.400   7.020  12.456  0.00  0.00    +0.000 A 
ATOM     11  C   UNL     1      48.227   7.663  11.520  0.00  0.00    +0.000 A 
ATOM     12  C   UNL     1      49.526   8.071  11.848  0.00  0.00    +0.000 A 
BRANCH   7  14
ATOM     13  C   UNL     1      51.818   8.231  14.643  0.00  0.00    +0.000 C 
ATOM     14  O   UNL     1      51.323   8.275  13.312  0.00  0.00    +0.000 OA
ENDBRANCH   7  14
ENDBRANCH   1  10
BRANCH   5  15
ATOM     15  C   UNL     1      44.098   3.303  11.574  0.00  0.00    +0.000 C 
BRANCH  15  16
ATOM     16  O   UNL     1      43.614   3.000  10.266  0.00  0.00    +0.000 OA
BRANCH  16  17
ATOM     17  C   UNL     1      44.546   2.949   9.270  0.00  0.00    +0.000 A 
ATOM     18  C   UNL     1      44.893   3.990   8.408  0.00  0.00    +0.000 A 
ATOM     19  C   UNL     1      45.881   3.789   7.443  0.00  0.00    +0.000 A 
ATOM     20  C   UNL     1      46.491   2.543   7.369  0.00  0.00    +0.000 A 
ATOM     21  N   UNL     1      46.174   1.498   8.183  0.00  0.00    +0.000 NA
ATOM     22  C   UNL     1      45.209   1.736   9.106  0.00  0.00    +0.000 A 
BRANCH  20  23
ATOM     23  C   UNL     1      47.568   2.307   6.358  0.00  0.00    +0.000 C 
ATOM     24  N   UNL     1      47.562   3.157   5.287  0.00  0.00    +0.000 N 
ATOM     25  O   UNL     1      48.399   1.415   6.471  0.00  0.00    +0.000 OA
ATOM     26  H   UNL     1      46.855   3.878   5.224  0.00  0.00    +0.000 HD
ATOM     27  H   UNL     1      48.251   3.049   4.557  0.00  0.00    +0.000 HD
ENDBRANCH  20  23
ENDBRANCH  16  17
ENDBRANCH  15  16
ENDBRANCH   5  15
TORSDOF 6
ENDMDL
MODEL 4
REMARK VINA RESULT:    -7.504      3.562      7.423
REMARK INTER + INTRA:         -11.015
REMARK INTER:                 -10.503
REMARK INTRA:                  -0.512
REMARK UNBOUND:                -0.879
REMARK  Name = 
REMARK  7 active torsions:
REMARK  status: ('A' for Active; 'I' for Inactive)
REMARK    1  A    between atoms: C_1  and  O_2
REMARK    2  A    between atoms: O_2  and  C_3
REMARK    3  A    between atoms: C_6  and  C_7
REMARK    4  A    between atoms: C_11  and  C_12
REMARK    5  A    between atoms: C_12  and  O_13
REMARK    6  A    between atoms: O_13  and  C_14
REMARK    7  A    between atoms: C_17  and  C_18
REMARK                            x       y       z     vdW  Elec       q    Type
REMARK                         _______ _______ _______ _____ _____    ______ ____
ROOT
ATOM      1  C   UNL     1      44.749   4.599  10.283  0.00  0.00    +0.000 A 
ATOM      2  C   UNL     1      43.381   4.491  10.590  0.00  0.00    +0.000 A 
ATOM      3  C   UNL     1      42.794   5.263  11.596  0.00  0.00    +0.000 A 
ATOM      4  C   UNL     1      43.563   6.167  12.324  0.00  0.00    +0.000 A 
ATOM      5  C   UNL     1      44.929   6.298  12.057  0.00  0.00    +0.000 A 
ATOM      6  C   UNL     1      45.502   5.528  11.028  0.00  0.00    +0.000 A 
ENDROOT
BRANCH   1  10
ATOM      7  C   UNL     1      46.553   2.127   7.222  0.00  0.00    +0.000 A 
ATOM      8  C   UNL     1      45.892   1.544   8.299  0.00  0.00    +0.000 A 
ATOM      9  C   UNL     1      45.320   2.346   9.297  0.00  0.00    +0.000 A 
ATOM     10  C   UNL     1      45.378   3.750   9.242  0.00  0.00    +0.000 A 
ATOM     11  C   UNL     1      46.046   4.315   8.142  0.00  0.00    +0.000 A 
ATOM     12  C   UNL     1      46.629   3.517   7.151  0.00  0.00    +0.000 A 
BRANCH   7  14
ATOM     13  C   UNL     1      47.973   2.242   5.326  0.00  0.00    +0.000 C 
ATOM     14  O   UNL     1      47.156   1.464   6.190  0.00  0.00    +0.000 OA
ENDBRANCH   7  14
ENDBRANCH   1  10
BRANCH   5  15
ATOM     15  C   UNL     1      45.784   7.239  12.869  0.00  0.00    +0.000 C 
BRANCH  15  16
ATOM     16  O   UNL     1      47.110   6.720  12.955  0.00  0.00    +0.000 OA
BRANCH  16  17
ATOM     17  C   UNL     1      47.403   5.980  14.065  0.00  0.00    +0.000 A 
ATOM     18  C   UNL     1      48.214   6.372  15.130  0.00  0.00    +0.000 A 
ATOM     19  C   UNL     1      48.408   5.506  16.207  0.00  0.00    +0.000 A 
ATOM     20  C   UNL     1      47.783   4.266  16.181  0.00  0.00    +0.000 A 
ATOM     21  N   UNL     1      46.993   3.840  15.155  0.00  0.00    +0.000 NA
ATOM     22  C   UNL     1      46.832   4.712  14.129  0.00  0.00    +0.000 A 
BRANCH  20  23
ATOM     23  C   UNL     1      47.957   3.326  17.332  0.00  0.00    +0.000 C 
ATOM     24  N   UNL     1      46.821   2.684  17.741  0.00  0.00    +0.000 N 
ATOM     25  O   UNL     1      49.037   3.142  17.880  0.00  0.00    +0.000 OA
ATOM     26  H   UNL     1      45.945   2.867  17.269  0.00  0.00    +0.000 HD
ATOM     27  H   UNL     1      46.859   2.045  18.521  0.00  0.00    +0.000 HD
ENDBRANCH  20  23
ENDBRANCH  16  17
ENDBRANCH  15  16
ENDBRANCH   5  15
TORSDOF 6
ENDMDL
MODEL 5
REMARK VINA RESULT:    -6.657      5.309      8.242
REMARK INTER + INTRA:          -9.871
REMARK INTER:                  -8.996
REMARK INTRA:                  -0.875
REMARK UNBOUND:                -0.879
REMARK  Name = 
REMARK  7 active torsions:
REMARK  status: ('A' for Active; 'I' for Inactive)
REMARK    1  A    between atoms: C_1  and  O_2
REMARK    2  A    between atoms: O_2  and  C_3
REMARK    3  A    between atoms: C_6  and  C_7
REMARK    4  A    between atoms: C_11  and  C_12
REMARK    5  A    between atoms: C_12  and  O_13
REMARK    6  A    between atoms: O_13  and  C_14
REMARK    7  A    between atoms: C_17  and  C_18
REMARK                            x       y       z     vdW  Elec       q    Type
REMARK                         _______ _______ _______ _____ _____    ______ ____
ROOT
ATOM      1  C   UNL     1      46.996   6.582  13.151  0.00  0.00    +0.000 A 
ATOM      2  C   UNL     1      46.874   7.945  12.827  0.00  0.00    +0.000 A 
ATOM      3  C   UNL     1      47.553   8.931  13.547  0.00  0.00    +0.000 A 
ATOM      4  C   UNL     1      48.374   8.579  14.614  0.00  0.00    +0.000 A 
ATOM      5  C   UNL     1      48.516   7.236  14.975  0.00  0.00    +0.000 A 
ATOM      6  C   UNL     1      47.842   6.252  14.229  0.00  0.00    +0.000 A 
ENDROOT
BRANCH   1  10
ATOM      7  C   UNL     1      44.768   3.558  11.000  0.00  0.00    +0.000 A 
ATOM      8  C   UNL     1      45.217   3.314  12.294  0.00  0.00    +0.000 A 
ATOM      9  C   UNL     1      45.951   4.289  12.984  0.00  0.00    +0.000 A 
ATOM     10  C   UNL     1      46.244   5.540  12.411  0.00  0.00    +0.000 A 
ATOM     11  C   UNL     1      45.773   5.764  11.106  0.00  0.00    +0.000 A 
ATOM     12  C   UNL     1      45.052   4.788  10.409  0.00  0.00    +0.000 A 
BRANCH   7  14
ATOM     13  C   UNL     1      44.656   2.293   8.997  0.00  0.00    +0.000 C 
ATOM     14  O   UNL     1      44.051   2.695  10.218  0.00  0.00    +0.000 OA
ENDBRANCH   7  14
ENDBRANCH   1  10
BRANCH   5  15
ATOM     15  C   UNL     1      49.366   6.843  16.158  0.00  0.00    +0.000 C 
BRANCH  15  16
ATOM     16  O   UNL     1      48.724   5.790  16.875  0.00  0.00    +0.000 OA
BRANCH  16  17
ATOM     17  C   UNL     1      49.457   4.657  17.079  0.00  0.00    +0.000 A 
ATOM     18  C   UNL     1      48.990   3.345  17.007  0.00  0.00    +0.000 A 
ATOM     19  C   UNL     1      49.870   2.284  17.227  0.00  0.00    +0.000 A 
ATOM     20  C   UNL     1      51.197   2.573  17.519  0.00  0.00    +0.000 A 
ATOM     21  N   UNL     1      51.691   3.840  17.610  0.00  0.00    +0.000 NA
ATOM     22  C   UNL     1      50.802   4.841  17.390  0.00  0.00    +0.000 A 
BRANCH  20  23
ATOM     23  C   UNL     1      52.165   1.455  17.739  0.00  0.00    +0.000 C 
ATOM     24  N   UNL     1      51.610   0.264  18.116  0.00  0.00    +0.000 N 
ATOM     25  O   UNL     1      53.375   1.588  17.598  0.00  0.00    +0.000 OA
ATOM     26  H   UNL     1      50.607   0.194  18.230  0.00  0.00    +0.000 HD
ATOM     27  H   UNL     1      52.203  -0.533  18.296  0.00  0.00    +0.000 HD
ENDBRANCH  20  23
ENDBRANCH  16  17
ENDBRANCH  15  16
ENDBRANCH   5  15
TORSDOF 6
ENDMDL
MODEL 6
REMARK VINA RESULT:    -6.365      4.345      7.193
REMARK INTER + INTRA:          -9.477
REMARK INTER:                  -8.671
REMARK INTRA:                  -0.806
REMARK UNBOUND:                -0.879
REMARK  Name = 
REMARK  7 active torsions:
REMARK  status: ('A' for Active; 'I' for Inactive)
REMARK    1  A    between atoms: C_1  and  O_2
REMARK    2  A    between atoms: O_2  and  C_3
REMARK    3  A    between atoms: C_6  and  C_7
REMARK    4  A    between atoms: C_11  and  C_12
REMARK    5  A    between atoms: C_12  and  O_13
REMARK    6  A    between atoms: O_13  and  C_14
REMARK    7  A    between atoms: C_17  and  C_18
REMARK                            x       y       z     vdW  Elec       q    Type
REMARK                         _______ _______ _______ _____ _____    ______ ____
ROOT
ATOM      1  C   UNL     1      48.512   7.811  11.854  0.00  0.00    +0.000 A 
ATOM      2  C   UNL     1      48.134   9.163  11.759  0.00  0.00    +0.000 A 
ATOM      3  C   UNL     1      49.062  10.162  11.454  0.00  0.00    +0.000 A 
ATOM      4  C   UNL     1      50.397   9.834  11.235  0.00  0.00    +0.000 A 
ATOM      5  C   UNL     1      50.816   8.503  11.329  0.00  0.00    +0.000 A 
ATOM      6  C   UNL     1      49.867   7.506  11.618  0.00  0.00    +0.000 A 
ENDROOT
BRANCH   1  10
ATOM      7  C   UNL     1      45.630   4.764  12.925  0.00  0.00    +0.000 A 
ATOM      8  C   UNL     1      46.687   5.064  13.778  0.00  0.00    +0.000 A 
ATOM      9  C   UNL     1      47.628   6.042  13.423  0.00  0.00    +0.000 A 
ATOM     10  C   UNL     1      47.533   6.758  12.217  0.00  0.00    +0.000 A 
ATOM     11  C   UNL     1      46.452   6.441  11.375  0.00  0.00    +0.000 A 
ATOM     12  C   UNL     1      45.519   5.457  11.720  0.00  0.00    +0.000 A 
BRANCH   7  14
ATOM     13  C   UNL     1      43.310   4.276  12.995  0.00  0.00    +0.000 C 
ATOM     14  O   UNL     1      44.653   3.835  13.147  0.00  0.00    +0.000 OA
ENDBRANCH   7  14
ENDBRANCH   1  10
BRANCH   5  15
ATOM     15  C   UNL     1      52.268   8.140  11.141  0.00  0.00    +0.000 C 
BRANCH  15  16
ATOM     16  O   UNL     1      52.640   8.364   9.782  0.00  0.00    +0.000 OA
BRANCH  16  17
ATOM     17  C   UNL     1      52.984   7.261   9.055  0.00  0.00    +0.000 A 
ATOM     18  C   UNL     1      53.834   6.233   9.463  0.00  0.00    +0.000 A 
ATOM     19  C   UNL     1      54.078   5.157   8.608  0.00  0.00    +0.000 A 
ATOM     20  C   UNL     1      53.462   5.146   7.363  0.00  0.00    +0.000 A 
ATOM     21  N   UNL     1      52.635   6.135   6.922  0.00  0.00    +0.000 NA
ATOM     22  C   UNL     1      52.426   7.162   7.783  0.00  0.00    +0.000 A 
BRANCH  20  23
ATOM     23  C   UNL     1      53.690   3.995   6.437  0.00  0.00    +0.000 C 
ATOM     24  N   UNL     1      53.168   2.800   6.847  0.00  0.00    +0.000 N 
ATOM     25  O   UNL     1      54.305   4.103   5.383  0.00  0.00    +0.000 OA
ATOM     26  H   UNL     1      52.672   2.747   7.728  0.00  0.00    +0.000 HD
ATOM     27  H   UNL     1      53.294   1.975   6.280  0.00  0.00    +0.000 HD
ENDBRANCH  20  23
ENDBRANCH  16  17
ENDBRANCH  15  16
ENDBRANCH   5  15
TORSDOF 6
ENDMDL
MODEL 7
REMARK VINA RESULT:    -6.281      5.598      7.892
REMARK INTER + INTRA:          -9.363
REMARK INTER:                  -8.545
REMARK INTRA:                  -0.818
REMARK UNBOUND:                -0.879
REMARK  Name = 
REMARK  7 active torsions:
REMARK  status: ('A' for Active; 'I' for Inactive)
REMARK    1  A    between atoms: C_1  and  O_2
REMARK    2  A    between atoms: O_2  and  C_3
REMARK    3  A    between atoms: C_6  and  C_7
REMARK    4  A    between atoms: C_11  and  C_12
REMARK    5  A    between atoms: C_12  and  O_13
REMARK    6  A    between atoms: O_13  and  C_14
REMARK    7  A    between atoms: C_17  and  C_18
REMARK                            x       y       z     vdW  Elec       q    Type
REMARK                         _______ _______ _______ _____ _____    ______ ____
ROOT
ATOM      1  C   UNL     1      50.174   5.264  17.592  0.00  0.00    +0.000 A 
ATOM      2  C   UNL     1      49.999   6.144  18.675  0.00  0.00    +0.000 A 
ATOM      3  C   UNL     1      49.327   7.360  18.528  0.00  0.00    +0.000 A 
ATOM      4  C   UNL     1      48.811   7.729  17.289  0.00  0.00    +0.000 A 
ATOM      5  C   UNL     1      48.971   6.888  16.185  0.00  0.00    +0.000 A 
ATOM      6  C   UNL     1      49.633   5.658  16.353  0.00  0.00    +0.000 A 
ENDROOT
BRANCH   1  10
ATOM      7  C   UNL     1      52.374   1.559  17.996  0.00  0.00    +0.000 A 
ATOM      8  C   UNL     1      51.093   1.561  17.452  0.00  0.00    +0.000 A 
ATOM      9  C   UNL     1      50.376   2.761  17.336  0.00  0.00    +0.000 A 
ATOM     10  C   UNL     1      50.921   3.992  17.742  0.00  0.00    +0.000 A 
ATOM     11  C   UNL     1      52.219   3.964  18.281  0.00  0.00    +0.000 A 
ATOM     12  C   UNL     1      52.932   2.766  18.412  0.00  0.00    +0.000 A 
BRANCH   7  14
ATOM     13  C   UNL     1      54.104   0.184  17.132  0.00  0.00    +0.000 C 
ATOM     14  O   UNL     1      53.175   0.464  18.171  0.00  0.00    +0.000 OA
ENDBRANCH   7  14
ENDBRANCH   1  10
BRANCH   5  15
ATOM     15  C   UNL     1      48.458   7.296  14.826  0.00  0.00    +0.000 C 
BRANCH  15  16
ATOM     16  O   UNL     1      48.578   6.198  13.923  0.00  0.00    +0.000 OA
BRANCH  16  17
ATOM     17  C   UNL     1      47.415   5.700  13.412  0.00  0.00    +0.000 A 
ATOM     18  C   UNL     1      46.775   6.122  12.246  0.00  0.00    +0.000 A 
ATOM     19  C   UNL     1      45.592   5.502  11.843  0.00  0.00    +0.000 A 
ATOM     20  C   UNL     1      45.082   4.474  12.625  0.00  0.00    +0.000 A 
ATOM     21  N   UNL     1      45.669   4.039  13.775  0.00  0.00    +0.000 NA
ATOM     22  C   UNL     1      46.816   4.669  14.132  0.00  0.00    +0.000 A 
BRANCH  20  23
ATOM     23  C   UNL     1      43.827   3.778  12.204  0.00  0.00    +0.000 C 
ATOM     24  N   UNL     1      43.775   2.441  12.488  0.00  0.00    +0.000 N 
ATOM     25  O   UNL     1      42.907   4.355  11.639  0.00  0.00    +0.000 OA
ATOM     26  H   UNL     1      44.558   1.997  12.950  0.00  0.00    +0.000 HD
ATOM     27  H   UNL     1      42.964   1.902  12.221  0.00  0.00    +0.000 HD
ENDBRANCH  20  23
ENDBRANCH  16  17
ENDBRANCH  15  16
ENDBRANCH   5  15
TORSDOF 6
ENDMDL
MODEL 8
REMARK VINA RESULT:    -6.152      4.321      7.999
REMARK INTER + INTRA:          -9.189
REMARK INTER:                  -8.426
REMARK INTRA:                  -0.763
REMARK UNBOUND:                -0.879
REMARK  Name = 
REMARK  7 active torsions:
REMARK  status: ('A' for Active; 'I' for Inactive)
REMARK    1  A    between atoms: C_1  and  O_2
REMARK    2  A    between atoms: O_2  and  C_3
REMARK    3  A    between atoms: C_6  and  C_7
REMARK    4  A    between atoms: C_11  and  C_12
REMARK    5  A    between atoms: C_12  and  O_13
REMARK    6  A    between atoms: O_13  and  C_14
REMARK    7  A    between atoms: C_17  and  C_18
REMARK                            x       y       z     vdW  Elec       q    Type
REMARK                         _______ _______ _______ _____ _____    ______ ____
ROOT
ATOM      1  C   UNL     1      45.550   6.885  11.549  0.00  0.00    +0.000 A 
ATOM      2  C   UNL     1      44.709   7.973  11.257  0.00  0.00    +0.000 A 
ATOM      3  C   UNL     1      44.867   9.210  11.889  0.00  0.00    +0.000 A 
ATOM      4  C   UNL     1      45.874   9.390  12.832  0.00  0.00    +0.000 A 
ATOM      5  C   UNL     1      46.727   8.332  13.158  0.00  0.00    +0.000 A 
ATOM      6  C   UNL     1      46.568   7.098  12.500  0.00  0.00    +0.000 A 
ENDROOT
BRANCH   1  10
ATOM      7  C   UNL     1      44.948   3.036   9.664  0.00  0.00    +0.000 A 
ATOM      8  C   UNL     1      44.774   3.182  11.037  0.00  0.00    +0.000 A 
ATOM      9  C   UNL     1      44.983   4.427  11.648  0.00  0.00    +0.000 A 
ATOM     10  C   UNL     1      45.356   5.562  10.907  0.00  0.00    +0.000 A 
ATOM     11  C   UNL     1      45.519   5.390   9.521  0.00  0.00    +0.000 A 
ATOM     12  C   UNL     1      45.324   4.146   8.910  0.00  0.00    +0.000 A 
BRANCH   7  14
ATOM     13  C   UNL     1      45.933   1.375   8.286  0.00  0.00    +0.000 C 
ATOM     14  O   UNL     1      44.782   1.883   8.948  0.00  0.00    +0.000 OA
ENDBRANCH   7  14
ENDBRANCH   1  10
BRANCH   5  15
ATOM     15  C   UNL     1      47.793   8.500  14.212  0.00  0.00    +0.000 C 
BRANCH  15  16
ATOM     16  O   UNL     1      48.781   7.483  14.053  0.00  0.00    +0.000 OA
BRANCH  16  17
ATOM     17  C   UNL     1      49.028   6.699  15.144  0.00  0.00    +0.000 A 
ATOM     18  C   UNL     1      50.019   6.905  16.104  0.00  0.00    +0.000 A 
ATOM     19  C   UNL     1      50.139   6.020  17.175  0.00  0.00    +0.000 A 
ATOM     20  C   UNL     1      49.259   4.947  17.251  0.00  0.00    +0.000 A 
ATOM     21  N   UNL     1      48.285   4.704  16.329  0.00  0.00    +0.000 NA
ATOM     22  C   UNL     1      48.204   5.588  15.304  0.00  0.00    +0.000 A 
BRANCH  20  23
ATOM     23  C   UNL     1      49.351   3.995  18.401  0.00  0.00    +0.000 C 
ATOM     24  N   UNL     1      49.931   2.790  18.118  0.00  0.00    +0.000 N 
ATOM     25  O   UNL     1      48.934   4.266  19.520  0.00  0.00    +0.000 OA
ATOM     26  H   UNL     1      50.256   2.599  17.179  0.00  0.00    +0.000 HD
ATOM     27  H   UNL     1      50.015   2.091  18.842  0.00  0.00    +0.000 HD
ENDBRANCH  20  23
ENDBRANCH  16  17
ENDBRANCH  15  16
ENDBRANCH   5  15
TORSDOF 6
ENDMDL
MODEL 9
REMARK VINA RESULT:    -5.874      4.100      6.704
REMARK INTER + INTRA:          -8.813
REMARK INTER:                  -7.996
REMARK INTRA:                  -0.818
REMARK UNBOUND:                -0.879
REMARK  Name = 
REMARK  7 active torsions:
REMARK  status: ('A' for Active; 'I' for Inactive)
REMARK    1  A    between atoms: C_1  and  O_2
REMARK    2  A    between atoms: O_2  and  C_3
REMARK    3  A    between atoms: C_6  and  C_7
REMARK    4  A    between atoms: C_11  and  C_12
REMARK    5  A    between atoms: C_12  and  O_13
REMARK    6  A    between atoms: O_13  and  C_14
REMARK    7  A    between atoms: C_17  and  C_18
REMARK                            x       y       z     vdW  Elec       q    Type
REMARK                         _______ _______ _______ _____ _____    ______ ____
ROOT
ATOM      1  C   UNL     1      51.648   8.119  10.515  0.00  0.00    +0.000 A 
ATOM      2  C   UNL     1      51.926   9.497  10.491  0.00  0.00    +0.000 A 
ATOM      3  C   UNL     1      51.123  10.417  11.170  0.00  0.00    +0.000 A 
ATOM      4  C   UNL     1      50.017   9.981  11.893  0.00  0.00    +0.000 A 
ATOM      5  C   UNL     1      49.700   8.620  11.936  0.00  0.00    +0.000 A 
ATOM      6  C   UNL     1      50.529   7.704  11.264  0.00  0.00    +0.000 A 
ENDROOT
BRANCH   1  10
ATOM      7  C   UNL     1      54.045   5.260   8.321  0.00  0.00    +0.000 A 
ATOM      8  C   UNL     1      54.232   5.433   9.689  0.00  0.00    +0.000 A 
ATOM      9  C   UNL     1      53.465   6.370  10.396  0.00  0.00    +0.000 A 
ATOM     10  C   UNL     1      52.479   7.148   9.763  0.00  0.00    +0.000 A 
ATOM     11  C   UNL     1      52.305   6.950   8.382  0.00  0.00    +0.000 A 
ATOM     12  C   UNL     1      53.079   6.026   7.671  0.00  0.00    +0.000 A 
BRANCH   7  14
ATOM     13  C   UNL     1      53.996   3.809   6.445  0.00  0.00    +0.000 C 
ATOM     14  O   UNL     1      54.727   4.390   7.517  0.00  0.00    +0.000 OA
ENDBRANCH   7  14
ENDBRANCH   1  10
BRANCH   5  15
ATOM     15  C   UNL     1      48.477   8.139  12.677  0.00  0.00    +0.000 C 
BRANCH  15  16
ATOM     16  O   UNL     1      48.502   6.714  12.758  0.00  0.00    +0.000 OA
BRANCH  16  17
ATOM     17  C   UNL     1      47.314   6.072  12.556  0.00  0.00    +0.000 A 
ATOM     18  C   UNL     1      46.450   6.251  11.475  0.00  0.00    +0.000 A 
ATOM     19  C   UNL     1      45.272   5.507  11.401  0.00  0.00    +0.000 A 
ATOM     20  C   UNL     1      44.993   4.604  12.419  0.00  0.00    +0.000 A 
ATOM     21  N   UNL     1      45.804   4.407  13.496  0.00  0.00    +0.000 NA
ATOM     22  C   UNL     1      46.938   5.151  13.529  0.00  0.00    +0.000 A 
BRANCH  20  23
ATOM     23  C   UNL     1      43.748   3.778  12.353  0.00  0.00    +0.000 C 
ATOM     24  N   UNL     1      42.685   4.368  11.728  0.00  0.00    +0.000 N 
ATOM     25  O   UNL     1      43.674   2.651  12.828  0.00  0.00    +0.000 OA
ATOM     26  H   UNL     1      42.782   5.304  11.354  0.00  0.00    +0.000 HD
ATOM     27  H   UNL     1      41.807   3.876  11.657  0.00  0.00    +0.000 HD
ENDBRANCH  20  23
ENDBRANCH  16  17
ENDBRANCH  15  16
ENDBRANCH   5  15
TORSDOF 6
ENDMDL
