MODEL 1
REMARK VINA RESULT:    -8.602      0.000      0.000
REMARK INTER + INTRA:         -12.651
REMARK INTER:                 -11.620
REMARK INTRA:                  -1.031
REMARK UNBOUND:                -1.031
REMARK  Name = 
REMARK  10 active torsions:
REMARK  status: ('A' for Active; 'I' for Inactive)
REMARK    1  A    between atoms: C_1  and  C_2
REMARK    2  A    between atoms: C_2  and  C_3
REMARK    3  A    between atoms: C_5  and  N_6
REMARK    4  A    between atoms: C_9  and  C_10
REMARK    5  A    between atoms: C_10  and  C_11
REMARK    6  A    between atoms: C_10  and  C_12
REMARK    7  A    between atoms: C_10  and  C_13
REMARK    8  A    between atoms: C_13  and  N_14
REMARK    9  A    between atoms: N_14  and  C_15
REMARK   10  A    between atoms: C_18  and  C_19
REMARK                            x       y       z     vdW  Elec       q    Type
REMARK                         _______ _______ _______ _____ _____    ______ ____
ROOT
ATOM      1  C   UNL     1      45.066   6.336  12.003  0.00  0.00    +0.000 C 
ATOM      2  C   UNL     1      43.584   5.897  12.150  0.00  0.00    +0.000 C 
ATOM      3  C   UNL     1      45.160   7.837  12.352  0.00  0.00    +0.000 C 
ENDROOT
BRANCH   1   7
ATOM      4  N   UNL     1      48.252   5.998  15.821  0.00  0.00    +0.000 N 
ATOM      5  C   UNL     1      47.516   5.352  14.804  0.00  0.00    +0.000 A 
ATOM      6  C   UNL     1      46.740   6.124  13.939  0.00  0.00    +0.000 A 
ATOM      7  C   UNL     1      45.929   5.505  12.974  0.00  0.00    +0.000 A 
ATOM      8  C   UNL     1      45.956   4.107  12.959  0.00  0.00    +0.000 A 
ATOM      9  C   UNL     1      46.820   3.418  13.792  0.00  0.00    +0.000 A 
ATOM     10  N   UNL     1      47.587   4.012  14.715  0.00  0.00    +0.000 NA
ATOM     11  H   UNL     1      49.056   6.425  15.367  0.00  0.00    +0.000 HD
BRANCH   4  16
ATOM     12  C   UNL     1      48.955   4.304  19.867  0.00  0.00    +0.000 C 
ATOM     13  C   UNL     1      48.242   5.436  19.127  0.00  0.00    +0.000 C 
ATOM     14  C   UNL     1      47.468   6.335  20.086  0.00  0.00    +0.000 C 
ATOM     15  C   UNL     1      47.408   4.953  17.911  0.00  0.00    +0.000 C 
ATOM     16  C   UNL     1      48.625   5.275  17.002  0.00  0.00    +0.000 C 
ATOM     17  C   UNL     1      49.137   6.212  18.116  0.00  0.00    +0.000 C 
ENDBRANCH   4  16
ENDBRANCH   1   7
BRANCH   1  18
ATOM     18  C   UNL     1      45.442   6.157  10.493  0.00  0.00    +0.000 C 
BRANCH  18  19
ATOM     19  N   UNL     1      44.496   5.302   9.745  0.00  0.00    +0.000 N 
ATOM     20  H   UNL     1      43.940   5.809   9.058  0.00  0.00    +0.000 HD
BRANCH  19  21
ATOM     21  C   UNL     1      45.135   4.200   9.135  0.00  0.00    +0.000 A 
ATOM     22  N   UNL     1      45.992   4.452   8.123  0.00  0.00    +0.000 NA
ATOM     23  C   UNL     1      46.601   3.407   7.516  0.00  0.00    +0.000 A 
ATOM     24  C   UNL     1      46.411   2.081   7.868  0.00  0.00    +0.000 A 
ATOM     25  C   UNL     1      45.539   1.820   8.929  0.00  0.00    +0.000 A 
ATOM     26  C   UNL     1      44.903   2.883   9.573  0.00  0.00    +0.000 A 
ATOM     27 CL   UNL     1      43.752   2.527  10.813  0.00  0.00    +0.000 Cl
BRANCH  24  28
ATOM     28  C   UNL     1      47.070   0.952   7.168  0.00  0.00    +0.000 C 
ATOM     29  N   UNL     1      46.730  -0.326   7.496  0.00  0.00    +0.000 N 
ATOM     30  O   UNL     1      47.916   1.162   6.301  0.00  0.00    +0.000 OA
ATOM     31  H   UNL     1      46.065  -0.613   8.198  0.00  0.00    +0.000 HD
ATOM     32  H   UNL     1      47.217  -1.063   6.996  0.00  0.00    +0.000 HD
ENDBRANCH  24  28
ENDBRANCH  19  21
ENDBRANCH  18  19
ENDBRANCH   1  18
TORSDOF 6
ENDMDL
MODEL 2
REMARK VINA RESULT:    -7.205      3.751      5.086
REMARK INTER + INTRA:         -10.764
REMARK INTER:                 -10.105
REMARK INTRA:                  -0.659
REMARK UNBOUND:                -1.031
REMARK  Name = 
REMARK  10 active torsions:
REMARK  status: ('A' for Active; 'I' for Inactive)
REMARK    1  A    between atoms: C_1  and  C_2
REMARK    2  A    between atoms: C_2  and  C_3
REMARK    3  A    between atoms: C_5  and  N_6
REMARK    4  A    between atoms: C_9  and  C_10
REMARK    5  A    between atoms: C_10  and  C_11
REMARK    6  A    between atoms: C_10  and  C_12
REMARK    7  A    between atoms: C_10  and  C_13
REMARK    8  A    between atoms: C_13  and  N_14
REMARK    9  A    between atoms: N_14  and  C_15
REMARK   10  A    between atoms: C_18  and  C_19
REMARK                            x       y       z     vdW  Elec       q    Type
REMARK                         _______ _______ _______ _____ _____    ______ ____
ROOT
ATOM      1  C   UNL     1      45.609   6.167  12.104  0.00  0.00    +0.000 C 
ATOM      2  C   UNL     1      46.012   4.696  12.395  0.00  0.00    +0.000 C 
ATOM      3  C   UNL     1      44.314   6.475  12.887  0.00  0.00    +0.000 C 
ENDROOT
BRANCH   1   7
ATOM      4  N   UNL     1      50.418   7.474  12.192  0.00  0.00    +0.000 N 
ATOM      5  C   UNL     1      49.099   7.698  12.644  0.00  0.00    +0.000 A 
ATOM      6  C   UNL     1      48.083   6.847  12.207  0.00  0.00    +0.000 A 
ATOM      7  C   UNL     1      46.749   7.095  12.569  0.00  0.00    +0.000 A 
ATOM      8  C   UNL     1      46.532   8.225  13.364  0.00  0.00    +0.000 A 
ATOM      9  C   UNL     1      47.604   8.967  13.828  0.00  0.00    +0.000 A 
ATOM     10  N   UNL     1      48.874   8.730  13.476  0.00  0.00    +0.000 NA
ATOM     11  H   UNL     1      50.768   6.673  12.711  0.00  0.00    +0.000 HD
BRANCH   4  16
ATOM     12  C   UNL     1      53.408  10.651  11.353  0.00  0.00    +0.000 C 
ATOM     13  C   UNL     1      52.625   9.511  10.700  0.00  0.00    +0.000 C 
ATOM     14  C   UNL     1      52.950   9.384   9.215  0.00  0.00    +0.000 C 
ATOM     15  C   UNL     1      51.105   9.547  11.008  0.00  0.00    +0.000 C 
ATOM     16  C   UNL     1      51.360   8.555  12.174  0.00  0.00    +0.000 C 
ATOM     17  C   UNL     1      52.679   8.162  11.476  0.00  0.00    +0.000 C 
ENDBRANCH   4  16
ENDBRANCH   1   7
BRANCH   1  18
ATOM     18  C   UNL     1      45.292   6.254  10.573  0.00  0.00    +0.000 C 
BRANCH  18  19
ATOM     19  N   UNL     1      44.463   5.135  10.075  0.00  0.00    +0.000 N 
ATOM     20  H   UNL     1      43.602   5.434   9.618  0.00  0.00    +0.000 HD
BRANCH  19  21
ATOM     21  C   UNL     1      45.187   4.265   9.230  0.00  0.00    +0.000 A 
ATOM     22  N   UNL     1      45.999   4.820   8.305  0.00  0.00    +0.000 NA
ATOM     23  C   UNL     1      46.687   4.003   7.475  0.00  0.00    +0.000 A 
ATOM     24  C   UNL     1      46.622   2.620   7.511  0.00  0.00    +0.000 A 
ATOM     25  C   UNL     1      45.797   2.044   8.481  0.00  0.00    +0.000 A 
ATOM     26  C   UNL     1      45.080   2.868   9.351  0.00  0.00    +0.000 A 
ATOM     27 CL   UNL     1      43.988   2.133  10.472  0.00  0.00    +0.000 Cl
BRANCH  24  28
ATOM     28  C   UNL     1      47.366   1.747   6.571  0.00  0.00    +0.000 C 
ATOM     29  N   UNL     1      48.222   2.312   5.674  0.00  0.00    +0.000 N 
ATOM     30  O   UNL     1      47.214   0.528   6.595  0.00  0.00    +0.000 OA
ATOM     31  H   UNL     1      48.411   3.295   5.555  0.00  0.00    +0.000 HD
ATOM     32  H   UNL     1      48.699   1.674   5.045  0.00  0.00    +0.000 HD
ENDBRANCH  24  28
ENDBRANCH  19  21
ENDBRANCH  18  19
ENDBRANCH   1  18
TORSDOF 6
ENDMDL
MODEL 3
REMARK VINA RESULT:    -7.150      2.092      2.870
REMARK INTER + INTRA:         -10.690
REMARK INTER:                 -10.046
REMARK INTRA:                  -0.643
REMARK UNBOUND:                -1.031
REMARK  Name = 
REMARK  10 active torsions:
REMARK  status: ('A' for Active; 'I' for Inactive)
REMARK    1  A    between atoms: C_1  and  C_2
REMARK    2  A    between atoms: C_2  and  C_3
REMARK    3  A    between atoms: C_5  and  N_6
REMARK    4  A    between atoms: C_9  and  C_10
REMARK    5  A    between atoms: C_10  and  C_11
REMARK    6  A    between atoms: C_10  and  C_12
REMARK    7  A    between atoms: C_10  and  C_13
REMARK    8  A    between atoms: C_13  and  N_14
REMARK    9  A    between atoms: N_14  and  C_15
REMARK   10  A    between atoms: C_18  and  C_19
REMARK                            x       y       z     vdW  Elec       q    Type
REMARK                         _______ _______ _______ _____ _____    ______ ____
ROOT
ATOM      1  C   UNL     1      45.500   5.825  12.268  0.00  0.00    +0.000 C 
ATOM      2  C   UNL     1      46.029   4.372  12.412  0.00  0.00    +0.000 C 
ATOM      3  C   UNL     1      44.090   5.888  12.894  0.00  0.00    +0.000 C 
ENDROOT
BRANCH   1   7
ATOM      4  N   UNL     1      49.231   6.648  15.470  0.00  0.00    +0.000 N 
ATOM      5  C   UNL     1      48.245   7.173  14.607  0.00  0.00    +0.000 A 
ATOM      6  C   UNL     1      47.391   6.291  13.943  0.00  0.00    +0.000 A 
ATOM      7  C   UNL     1      46.458   6.777  13.012  0.00  0.00    +0.000 A 
ATOM      8  C   UNL     1      46.463   8.162  12.807  0.00  0.00    +0.000 A 
ATOM      9  C   UNL     1      47.281   8.975  13.571  0.00  0.00    +0.000 A 
ATOM     10  N   UNL     1      48.173   8.507  14.454  0.00  0.00    +0.000 NA
ATOM     11  H   UNL     1      48.748   6.363  16.319  0.00  0.00    +0.000 HD
BRANCH   4  16
ATOM     12  C   UNL     1      52.907   8.587  17.039  0.00  0.00    +0.000 C 
ATOM     13  C   UNL     1      51.841   7.544  17.375  0.00  0.00    +0.000 C 
ATOM     14  C   UNL     1      52.095   6.898  18.734  0.00  0.00    +0.000 C 
ATOM     15  C   UNL     1      51.591   6.523  16.233  0.00  0.00    +0.000 C 
ATOM     16  C   UNL     1      50.411   7.411  15.755  0.00  0.00    +0.000 C 
ATOM     17  C   UNL     1      50.375   8.027  17.169  0.00  0.00    +0.000 C 
ENDBRANCH   4  16
ENDBRANCH   1   7
BRANCH   1  18
ATOM     18  C   UNL     1      45.372   6.109  10.734  0.00  0.00    +0.000 C 
BRANCH  18  19
ATOM     19  N   UNL     1      44.482   5.162  10.028  0.00  0.00    +0.000 N 
ATOM     20  H   UNL     1      43.732   5.614   9.507  0.00  0.00    +0.000 HD
BRANCH  19  21
ATOM     21  C   UNL     1      45.196   4.280   9.187  0.00  0.00    +0.000 A 
ATOM     22  N   UNL     1      46.027   4.820   8.270  0.00  0.00    +0.000 NA
ATOM     23  C   UNL     1      46.706   3.991   7.444  0.00  0.00    +0.000 A 
ATOM     24  C   UNL     1      46.614   2.609   7.478  0.00  0.00    +0.000 A 
ATOM     25  C   UNL     1      45.770   2.048   8.440  0.00  0.00    +0.000 A 
ATOM     26  C   UNL     1      45.062   2.885   9.305  0.00  0.00    +0.000 A 
ATOM     27 CL   UNL     1      43.948   2.169  10.416  0.00  0.00    +0.000 Cl
BRANCH  24  28
ATOM     28  C   UNL     1      47.349   1.724   6.542  0.00  0.00    +0.000 C 
ATOM     29  N   UNL     1      48.272   2.266   5.699  0.00  0.00    +0.000 N 
ATOM     30  O   UNL     1      47.129   0.515   6.521  0.00  0.00    +0.000 OA
ATOM     31  H   UNL     1      48.520   3.240   5.619  0.00  0.00    +0.000 HD
ATOM     32  H   UNL     1      48.740   1.620   5.071  0.00  0.00    +0.000 HD
ENDBRANCH  24  28
ENDBRANCH  19  21
ENDBRANCH  18  19
ENDBRANCH   1  18
TORSDOF 6
ENDMDL
MODEL 4
REMARK VINA RESULT:    -6.962      2.258      2.891
REMARK INTER + INTRA:         -10.435
REMARK INTER:                  -9.932
REMARK INTRA:                  -0.503
REMARK UNBOUND:                -1.031
REMARK  Name = 
REMARK  10 active torsions:
REMARK  status: ('A' for Active; 'I' for Inactive)
REMARK    1  A    between atoms: C_1  and  C_2
REMARK    2  A    between atoms: C_2  and  C_3
REMARK    3  A    between atoms: C_5  and  N_6
REMARK    4  A    between atoms: C_9  and  C_10
REMARK    5  A    between atoms: C_10  and  C_11
REMARK    6  A    between atoms: C_10  and  C_12
REMARK    7  A    between atoms: C_10  and  C_13
REMARK    8  A    between atoms: C_13  and  N_14
REMARK    9  A    between atoms: N_14  and  C_15
REMARK   10  A    between atoms: C_18  and  C_19
REMARK                            x       y       z     vdW  Elec       q    Type
REMARK                         _______ _______ _______ _____ _____    ______ ____
ROOT
ATOM      1  C   UNL     1      45.733   6.156  11.999  0.00  0.00    +0.000 C 
ATOM      2  C   UNL     1      46.002   4.666  12.344  0.00  0.00    +0.000 C 
ATOM      3  C   UNL     1      44.382   6.560  12.629  0.00  0.00    +0.000 C 
ENDROOT
BRANCH   1   7
ATOM      4  N   UNL     1      47.511   9.328  15.407  0.00  0.00    +0.000 N 
ATOM      5  C   UNL     1      47.718   8.595  14.219  0.00  0.00    +0.000 A 
ATOM      6  C   UNL     1      46.672   7.823  13.713  0.00  0.00    +0.000 A 
ATOM      7  C   UNL     1      46.873   7.014  12.582  0.00  0.00    +0.000 A 
ATOM      8  C   UNL     1      48.161   7.039  12.035  0.00  0.00    +0.000 A 
ATOM      9  C   UNL     1      49.117   7.899  12.544  0.00  0.00    +0.000 A 
ATOM     10  N   UNL     1      48.922   8.664  13.626  0.00  0.00    +0.000 NA
ATOM     11  H   UNL     1      46.945  10.135  15.153  0.00  0.00    +0.000 HD
BRANCH   4  16
ATOM     12  C   UNL     1      50.496  10.278  18.557  0.00  0.00    +0.000 C 
ATOM     13  C   UNL     1      49.061   9.797  18.344  0.00  0.00    +0.000 C 
ATOM     14  C   UNL     1      48.357   9.521  19.670  0.00  0.00    +0.000 C 
ATOM     15  C   UNL     1      48.940   8.639  17.318  0.00  0.00    +0.000 C 
ATOM     16  C   UNL     1      48.630   9.696  16.225  0.00  0.00    +0.000 C 
ATOM     17  C   UNL     1      48.228  10.665  17.356  0.00  0.00    +0.000 C 
ENDBRANCH   4  16
ENDBRANCH   1   7
BRANCH   1  18
ATOM     18  C   UNL     1      45.595   6.240  10.441  0.00  0.00    +0.000 C 
BRANCH  18  19
ATOM     19  N   UNL     1      44.594   5.305   9.884  0.00  0.00    +0.000 N 
ATOM     20  H   UNL     1      43.919   5.749   9.263  0.00  0.00    +0.000 HD
BRANCH  19  21
ATOM     21  C   UNL     1      45.193   4.200   9.240  0.00  0.00    +0.000 A 
ATOM     22  N   UNL     1      46.061   4.451   8.236  0.00  0.00    +0.000 NA
ATOM     23  C   UNL     1      46.631   3.404   7.597  0.00  0.00    +0.000 A 
ATOM     24  C   UNL     1      46.390   2.076   7.907  0.00  0.00    +0.000 A 
ATOM     25  C   UNL     1      45.508   1.815   8.958  0.00  0.00    +0.000 A 
ATOM     26  C   UNL     1      44.910   2.880   9.635  0.00  0.00    +0.000 A 
ATOM     27 CL   UNL     1      43.745   2.528  10.862  0.00  0.00    +0.000 Cl
BRANCH  24  28
ATOM     28  C   UNL     1      47.008   0.946   7.172  0.00  0.00    +0.000 C 
ATOM     29  N   UNL     1      46.698  -0.332   7.531  0.00  0.00    +0.000 N 
ATOM     30  O   UNL     1      47.793   1.154   6.249  0.00  0.00    +0.000 OA
ATOM     31  H   UNL     1      46.084  -0.618   8.277  0.00  0.00    +0.000 HD
ATOM     32  H   UNL     1      47.156  -1.070   7.004  0.00  0.00    +0.000 HD
ENDBRANCH  24  28
ENDBRANCH  19  21
ENDBRANCH  18  19
ENDBRANCH   1  18
TORSDOF 6
ENDMDL
MODEL 5
REMARK VINA RESULT:    -6.622      3.980      8.269
REMARK INTER + INTRA:          -9.976
REMARK INTER:                  -8.576
REMARK INTRA:                  -1.400
REMARK UNBOUND:                -1.031
REMARK  Name = 
REMARK  10 active torsions:
REMARK  status: ('A' for Active; 'I' for Inactive)
REMARK    1  A    between atoms: C_1  and  C_2
REMARK    2  A    between atoms: C_2  and  C_3
REMARK    3  A    between atoms: C_5  and  N_6
REMARK    4  A    between atoms: C_9  and  C_10
REMARK    5  A    between atoms: C_10  and  C_11
REMARK    6  A    between atoms: C_10  and  C_12
REMARK    7  A    between atoms: C_10  and  C_13
REMARK    8  A    between atoms: C_13  and  N_14
REMARK    9  A    between atoms: N_14  and  C_15
REMARK   10  A    between atoms: C_18  and  C_19
REMARK                            x       y       z     vdW  Elec       q    Type
REMARK                         _______ _______ _______ _____ _____    ______ ____
ROOT
ATOM      1  C   UNL     1      49.578   8.810  16.861  0.00  0.00    +0.000 C 
ATOM      2  C   UNL     1      50.185  10.204  16.548  0.00  0.00    +0.000 C 
ATOM      3  C   UNL     1      48.253   9.022  17.625  0.00  0.00    +0.000 C 
ENDROOT
BRANCH   1   7
ATOM      4  N   UNL     1      46.966   5.597  14.085  0.00  0.00    +0.000 N 
ATOM      5  C   UNL     1      48.068   6.472  14.201  0.00  0.00    +0.000 A 
ATOM      6  C   UNL     1      48.282   7.130  15.413  0.00  0.00    +0.000 A 
ATOM      7  C   UNL     1      49.317   8.072  15.532  0.00  0.00    +0.000 A 
ATOM      8  C   UNL     1      50.078   8.294  14.379  0.00  0.00    +0.000 A 
ATOM      9  C   UNL     1      49.857   7.536  13.243  0.00  0.00    +0.000 A 
ATOM     10  N   UNL     1      48.866   6.642  13.132  0.00  0.00    +0.000 NA
ATOM     11  H   UNL     1      47.220   4.747  14.584  0.00  0.00    +0.000 HD
BRANCH   4  16
ATOM     12  C   UNL     1      44.532   4.757  10.465  0.00  0.00    +0.000 C 
ATOM     13  C   UNL     1      44.430   5.026  11.967  0.00  0.00    +0.000 C 
ATOM     14  C   UNL     1      42.980   5.023  12.442  0.00  0.00    +0.000 C 
ATOM     15  C   UNL     1      45.239   6.267  12.431  0.00  0.00    +0.000 C 
ATOM     16  C   UNL     1      46.410   5.315  12.794  0.00  0.00    +0.000 C 
ATOM     17  C   UNL     1      45.384   4.164  12.845  0.00  0.00    +0.000 C 
ENDBRANCH   4  16
ENDBRANCH   1   7
BRANCH   1  18
ATOM     18  C   UNL     1      50.585   8.083  17.814  0.00  0.00    +0.000 C 
BRANCH  18  19
ATOM     19  N   UNL     1      49.938   7.146  18.758  0.00  0.00    +0.000 N 
ATOM     20  H   UNL     1      48.967   7.376  18.963  0.00  0.00    +0.000 HD
BRANCH  19  21
ATOM     21  C   UNL     1      50.042   5.802  18.336  0.00  0.00    +0.000 A 
ATOM     22  N   UNL     1      51.269   5.336  18.019  0.00  0.00    +0.000 NA
ATOM     23  C   UNL     1      51.385   4.056  17.596  0.00  0.00    +0.000 A 
ATOM     24  C   UNL     1      50.322   3.176  17.471  0.00  0.00    +0.000 A 
ATOM     25  C   UNL     1      49.055   3.652  17.817  0.00  0.00    +0.000 A 
ATOM     26  C   UNL     1      48.912   4.968  18.260  0.00  0.00    +0.000 A 
ATOM     27 CL   UNL     1      47.321   5.561  18.584  0.00  0.00    +0.000 Cl
BRANCH  24  28
ATOM     28  C   UNL     1      50.474   1.786  16.978  0.00  0.00    +0.000 C 
ATOM     29  N   UNL     1      51.249   0.911  17.679  0.00  0.00    +0.000 N 
ATOM     30  O   UNL     1      49.910   1.421  15.948  0.00  0.00    +0.000 OA
ATOM     31  H   UNL     1      51.767   1.105  18.523  0.00  0.00    +0.000 HD
ATOM     32  H   UNL     1      51.330  -0.025  17.295  0.00  0.00    +0.000 HD
ENDBRANCH  24  28
ENDBRANCH  19  21
ENDBRANCH  18  19
ENDBRANCH   1  18
TORSDOF 6
ENDMDL
MODEL 6
REMARK VINA RESULT:    -6.534      1.815      2.346
REMARK INTER + INTRA:          -9.857
REMARK INTER:                 -10.559
REMARK INTRA:                   0.702
REMARK UNBOUND:                -1.031
REMARK  Name = 
REMARK  10 active torsions:
REMARK  status: ('A' for Active; 'I' for Inactive)
REMARK    1  A    between atoms: C_1  and  C_2
REMARK    2  A    between atoms: C_2  and  C_3
REMARK    3  A    between atoms: C_5  and  N_6
REMARK    4  A    between atoms: C_9  and  C_10
REMARK    5  A    between atoms: C_10  and  C_11
REMARK    6  A    between atoms: C_10  and  C_12
REMARK    7  A    between atoms: C_10  and  C_13
REMARK    8  A    between atoms: C_13  and  N_14
REMARK    9  A    between atoms: N_14  and  C_15
REMARK   10  A    between atoms: C_18  and  C_19
REMARK                            x       y       z     vdW  Elec       q    Type
REMARK                         _______ _______ _______ _____ _____    ______ ____
ROOT
ATOM      1  C   UNL     1      43.809   4.420  12.112  0.00  0.00    +0.000 C 
ATOM      2  C   UNL     1      43.227   3.188  12.856  0.00  0.00    +0.000 C 
ATOM      3  C   UNL     1      42.800   5.581  12.241  0.00  0.00    +0.000 C 
ENDROOT
BRANCH   1   7
ATOM      4  N   UNL     1      46.999   4.305  15.941  0.00  0.00    +0.000 N 
ATOM      5  C   UNL     1      46.681   4.781  14.650  0.00  0.00    +0.000 A 
ATOM      6  C   UNL     1      45.460   4.418  14.079  0.00  0.00    +0.000 A 
ATOM      7  C   UNL     1      45.153   4.803  12.764  0.00  0.00    +0.000 A 
ATOM      8  C   UNL     1      46.137   5.542  12.098  0.00  0.00    +0.000 A 
ATOM      9  C   UNL     1      47.284   5.935  12.765  0.00  0.00    +0.000 A 
ATOM     10  N   UNL     1      47.575   5.562  14.017  0.00  0.00    +0.000 NA
ATOM     11  H   UNL     1      46.448   4.858  16.594  0.00  0.00    +0.000 HD
BRANCH   4  16
ATOM     12  C   UNL     1      50.957   4.100  17.946  0.00  0.00    +0.000 C 
ATOM     13  C   UNL     1      49.466   4.303  18.212  0.00  0.00    +0.000 C 
ATOM     14  C   UNL     1      49.181   4.504  19.698  0.00  0.00    +0.000 C 
ATOM     15  C   UNL     1      48.565   3.232  17.542  0.00  0.00    +0.000 C 
ATOM     16  C   UNL     1      48.370   4.204  16.347  0.00  0.00    +0.000 C 
ATOM     17  C   UNL     1      48.781   5.354  17.290  0.00  0.00    +0.000 C 
ENDBRANCH   4  16
ENDBRANCH   1   7
BRANCH   1  18
ATOM     18  C   UNL     1      43.916   4.025  10.601  0.00  0.00    +0.000 C 
BRANCH  18  19
ATOM     19  N   UNL     1      44.471   2.673  10.379  0.00  0.00    +0.000 N 
ATOM     20  H   UNL     1      43.765   1.939  10.348  0.00  0.00    +0.000 HD
BRANCH  19  21
ATOM     21  C   UNL     1      45.289   2.611   9.229  0.00  0.00    +0.000 A 
ATOM     22  N   UNL     1      45.666   1.390   8.791  0.00  0.00    +0.000 NA
ATOM     23  C   UNL     1      46.463   1.312   7.701  0.00  0.00    +0.000 A 
ATOM     24  C   UNL     1      46.920   2.409   6.988  0.00  0.00    +0.000 A 
ATOM     25  C   UNL     1      46.514   3.671   7.428  0.00  0.00    +0.000 A 
ATOM     26  C   UNL     1      45.688   3.776   8.549  0.00  0.00    +0.000 A 
ATOM     27 CL   UNL     1      45.286   5.353   9.133  0.00  0.00    +0.000 Cl
BRANCH  24  28
ATOM     28  C   UNL     1      47.816   2.297   5.812  0.00  0.00    +0.000 C 
ATOM     29  N   UNL     1      47.713   3.209   4.806  0.00  0.00    +0.000 N 
ATOM     30  O   UNL     1      48.644   1.390   5.740  0.00  0.00    +0.000 OA
ATOM     31  H   UNL     1      47.064   3.979   4.752  0.00  0.00    +0.000 HD
ATOM     32  H   UNL     1      48.341   3.083   4.018  0.00  0.00    +0.000 HD
ENDBRANCH  24  28
ENDBRANCH  19  21
ENDBRANCH  18  19
ENDBRANCH   1  18
TORSDOF 6
ENDMDL
MODEL 7
REMARK VINA RESULT:    -6.495      5.193      7.585
REMARK INTER + INTRA:          -9.804
REMARK INTER:                  -9.043
REMARK INTRA:                  -0.761
REMARK UNBOUND:                -1.031
REMARK  Name = 
REMARK  10 active torsions:
REMARK  status: ('A' for Active; 'I' for Inactive)
REMARK    1  A    between atoms: C_1  and  C_2
REMARK    2  A    between atoms: C_2  and  C_3
REMARK    3  A    between atoms: C_5  and  N_6
REMARK    4  A    between atoms: C_9  and  C_10
REMARK    5  A    between atoms: C_10  and  C_11
REMARK    6  A    between atoms: C_10  and  C_12
REMARK    7  A    between atoms: C_10  and  C_13
REMARK    8  A    between atoms: C_13  and  N_14
REMARK    9  A    between atoms: N_14  and  C_15
REMARK   10  A    between atoms: C_18  and  C_19
REMARK                            x       y       z     vdW  Elec       q    Type
REMARK                         _______ _______ _______ _____ _____    ______ ____
ROOT
ATOM      1  C   UNL     1      48.490   8.813  12.768  0.00  0.00    +0.000 C 
ATOM      2  C   UNL     1      48.704   9.565  14.109  0.00  0.00    +0.000 C 
ATOM      3  C   UNL     1      47.277   9.444  12.050  0.00  0.00    +0.000 C 
ENDROOT
BRANCH   1   7
ATOM      4  N   UNL     1      52.312   6.854  10.238  0.00  0.00    +0.000 N 
ATOM      5  C   UNL     1      51.644   8.003  10.716  0.00  0.00    +0.000 A 
ATOM      6  C   UNL     1      50.495   7.841  11.490  0.00  0.00    +0.000 A 
ATOM      7  C   UNL     1      49.760   8.963  11.907  0.00  0.00    +0.000 A 
ATOM      8  C   UNL     1      50.251  10.205  11.488  0.00  0.00    +0.000 A 
ATOM      9  C   UNL     1      51.446  10.284  10.796  0.00  0.00    +0.000 A 
ATOM     10  N   UNL     1      52.141   9.211  10.397  0.00  0.00    +0.000 NA
ATOM     11  H   UNL     1      52.815   6.464  11.031  0.00  0.00    +0.000 HD
BRANCH   4  16
ATOM     12  C   UNL     1      54.581   6.393   6.447  0.00  0.00    +0.000 C 
ATOM     13  C   UNL     1      53.595   5.679   7.372  0.00  0.00    +0.000 C 
ATOM     14  C   UNL     1      53.214   4.303   6.833  0.00  0.00    +0.000 C 
ATOM     15  C   UNL     1      52.378   6.553   7.773  0.00  0.00    +0.000 C 
ATOM     16  C   UNL     1      53.138   6.942   9.069  0.00  0.00    +0.000 C 
ATOM     17  C   UNL     1      54.001   5.678   8.875  0.00  0.00    +0.000 C 
ENDBRANCH   4  16
ENDBRANCH   1   7
BRANCH   1  18
ATOM     18  C   UNL     1      48.131   7.333  13.132  0.00  0.00    +0.000 C 
BRANCH  18  19
ATOM     19  N   UNL     1      46.729   7.153  13.570  0.00  0.00    +0.000 N 
ATOM     20  H   UNL     1      46.159   7.992  13.474  0.00  0.00    +0.000 HD
BRANCH  19  21
ATOM     21  C   UNL     1      46.103   6.063  12.927  0.00  0.00    +0.000 A 
ATOM     22  N   UNL     1      45.429   6.310  11.783  0.00  0.00    +0.000 NA
ATOM     23  C   UNL     1      44.808   5.280  11.163  0.00  0.00    +0.000 A 
ATOM     24  C   UNL     1      44.819   3.973  11.621  0.00  0.00    +0.000 A 
ATOM     25  C   UNL     1      45.532   3.712  12.794  0.00  0.00    +0.000 A 
ATOM     26  C   UNL     1      46.184   4.759  13.449  0.00  0.00    +0.000 A 
ATOM     27 CL   UNL     1      46.971   4.428  14.952  0.00  0.00    +0.000 Cl
BRANCH  24  28
ATOM     28  C   UNL     1      44.106   2.867  10.936  0.00  0.00    +0.000 C 
ATOM     29  N   UNL     1      44.694   2.254   9.870  0.00  0.00    +0.000 N 
ATOM     30  O   UNL     1      42.996   2.506  11.320  0.00  0.00    +0.000 OA
ATOM     31  H   UNL     1      45.589   2.478   9.462  0.00  0.00    +0.000 HD
ATOM     32  H   UNL     1      44.161   1.511   9.429  0.00  0.00    +0.000 HD
ENDBRANCH  24  28
ENDBRANCH  19  21
ENDBRANCH  18  19
ENDBRANCH   1  18
TORSDOF 6
ENDMDL
MODEL 8
REMARK VINA RESULT:    -6.346      2.879      3.560
REMARK INTER + INTRA:          -9.603
REMARK INTER:                  -8.605
REMARK INTRA:                  -0.998
REMARK UNBOUND:                -1.031
REMARK  Name = 
REMARK  10 active torsions:
REMARK  status: ('A' for Active; 'I' for Inactive)
REMARK    1  A    between atoms: C_1  and  C_2
REMARK    2  A    between atoms: C_2  and  C_3
REMARK    3  A    between atoms: C_5  and  N_6
REMARK    4  A    between atoms: C_9  and  C_10
REMARK    5  A    between atoms: C_10  and  C_11
REMARK    6  A    between atoms: C_10  and  C_12
REMARK    7  A    between atoms: C_10  and  C_13
REMARK    8  A    between atoms: C_13  and  N_14
REMARK    9  A    between atoms: N_14  and  C_15
REMARK   10  A    between atoms: C_18  and  C_19
REMARK                            x       y       z     vdW  Elec       q    Type
REMARK                         _______ _______ _______ _____ _____    ______ ____
ROOT
ATOM      1  C   UNL     1      43.735   5.966  11.684  0.00  0.00    +0.000 C 
ATOM      2  C   UNL     1      42.700   5.306  12.635  0.00  0.00    +0.000 C 
ATOM      3  C   UNL     1      43.388   7.466  11.563  0.00  0.00    +0.000 C 
ENDROOT
BRANCH   1   7
ATOM      4  N   UNL     1      48.523   7.297  12.060  0.00  0.00    +0.000 N 
ATOM      5  C   UNL     1      47.485   6.414  12.427  0.00  0.00    +0.000 A 
ATOM      6  C   UNL     1      46.217   6.596  11.873  0.00  0.00    +0.000 A 
ATOM      7  C   UNL     1      45.144   5.789  12.284  0.00  0.00    +0.000 A 
ATOM      8  C   UNL     1      45.438   4.832  13.262  0.00  0.00    +0.000 A 
ATOM      9  C   UNL     1      46.740   4.657  13.695  0.00  0.00    +0.000 A 
ATOM     10  N   UNL     1      47.759   5.433  13.305  0.00  0.00    +0.000 NA
ATOM     11  H   UNL     1      48.815   7.025  11.124  0.00  0.00    +0.000 HD
BRANCH   4  16
ATOM     12  C   UNL     1      51.881   8.673  14.623  0.00  0.00    +0.000 C 
ATOM     13  C   UNL     1      50.781   9.170  13.685  0.00  0.00    +0.000 C 
ATOM     14  C   UNL     1      50.796  10.691  13.557  0.00  0.00    +0.000 C 
ATOM     15  C   UNL     1      49.380   8.583  14.005  0.00  0.00    +0.000 C 
ATOM     16  C   UNL     1      49.642   7.488  12.936  0.00  0.00    +0.000 C 
ATOM     17  C   UNL     1      50.705   8.422  12.322  0.00  0.00    +0.000 C 
ENDBRANCH   4  16
ENDBRANCH   1   7
BRANCH   1  18
ATOM     18  C   UNL     1      43.544   5.301  10.279  0.00  0.00    +0.000 C 
BRANCH  18  19
ATOM     19  N   UNL     1      43.807   3.846  10.272  0.00  0.00    +0.000 N 
ATOM     20  H   UNL     1      42.967   3.278  10.170  0.00  0.00    +0.000 HD
BRANCH  19  21
ATOM     21  C   UNL     1      44.764   3.479   9.300  0.00  0.00    +0.000 A 
ATOM     22  N   UNL     1      45.527   4.458   8.767  0.00  0.00    +0.000 NA
ATOM     23  C   UNL     1      46.437   4.127   7.823  0.00  0.00    +0.000 A 
ATOM     24  C   UNL     1      46.650   2.838   7.363  0.00  0.00    +0.000 A 
ATOM     25  C   UNL     1      45.876   1.821   7.927  0.00  0.00    +0.000 A 
ATOM     26  C   UNL     1      44.933   2.139   8.906  0.00  0.00    +0.000 A 
ATOM     27 CL   UNL     1      43.917   0.878   9.514  0.00  0.00    +0.000 Cl
BRANCH  24  28
ATOM     28  C   UNL     1      47.636   2.507   6.306  0.00  0.00    +0.000 C 
ATOM     29  N   UNL     1      47.511   3.078   5.075  0.00  0.00    +0.000 N 
ATOM     30  O   UNL     1      48.557   1.724   6.531  0.00  0.00    +0.000 OA
ATOM     31  H   UNL     1      46.791   3.717   4.776  0.00  0.00    +0.000 HD
ATOM     32  H   UNL     1      48.204   2.811   4.383  0.00  0.00    +0.000 HD
ENDBRANCH  24  28
ENDBRANCH  19  21
ENDBRANCH  18  19
ENDBRANCH   1  18
TORSDOF 6
ENDMDL
MODEL 9
REMARK VINA RESULT:    -6.144      3.078      4.525
REMARK INTER + INTRA:          -9.330
REMARK INTER:                  -8.492
REMARK INTRA:                  -0.838
REMARK UNBOUND:                -1.031
REMARK  Name = 
REMARK  10 active torsions:
REMARK  status: ('A' for Active; 'I' for Inactive)
REMARK    1  A    between atoms: C_1  and  C_2
REMARK    2  A    between atoms: C_2  and  C_3
REMARK    3  A    between atoms: C_5  and  N_6
REMARK    4  A    between atoms: C_9  and  C_10
REMARK    5  A    between atoms: C_10  and  C_11
REMARK    6  A    between atoms: C_10  and  C_12
REMARK    7  A    between atoms: C_10  and  C_13
REMARK    8  A    between atoms: C_13  and  N_14
REMARK    9  A    between atoms: N_14  and  C_15
REMARK   10  A    between atoms: C_18  and  C_19
REMARK                            x       y       z     vdW  Elec       q    Type
REMARK                         _______ _______ _______ _____ _____    ______ ____
ROOT
ATOM      1  C   UNL     1      48.435   8.393  12.757  0.00  0.00    +0.000 C 
ATOM      2  C   UNL     1      48.783   9.857  12.373  0.00  0.00    +0.000 C 
ATOM      3  C   UNL     1      49.355   7.452  11.950  0.00  0.00    +0.000 C 
ENDROOT
BRANCH   1   7
ATOM      4  N   UNL     1      49.768   5.593  16.659  0.00  0.00    +0.000 N 
ATOM      5  C   UNL     1      49.280   6.824  16.169  0.00  0.00    +0.000 A 
ATOM      6  C   UNL     1      49.075   6.969  14.797  0.00  0.00    +0.000 A 
ATOM      7  C   UNL     1      48.673   8.207  14.270  0.00  0.00    +0.000 A 
ATOM      8  C   UNL     1      48.511   9.243  15.197  0.00  0.00    +0.000 A 
ATOM      9  C   UNL     1      48.648   8.993  16.550  0.00  0.00    +0.000 A 
ATOM     10  N   UNL     1      49.037   7.812  17.048  0.00  0.00    +0.000 NA
ATOM     11  H   UNL     1      48.987   4.942  16.635  0.00  0.00    +0.000 HD
BRANCH   4  16
ATOM     12  C   UNL     1      52.291   4.808  20.231  0.00  0.00    +0.000 C 
ATOM     13  C   UNL     1      51.963   4.286  18.832  0.00  0.00    +0.000 C 
ATOM     14  C   UNL     1      52.784   3.047  18.487  0.00  0.00    +0.000 C 
ATOM     15  C   UNL     1      51.997   5.384  17.736  0.00  0.00    +0.000 C 
ATOM     16  C   UNL     1      50.463   5.548  17.913  0.00  0.00    +0.000 C 
ATOM     17  C   UNL     1      50.442   4.138  18.537  0.00  0.00    +0.000 C 
ENDBRANCH   4  16
ENDBRANCH   1   7
BRANCH   1  18
ATOM     18  C   UNL     1      46.957   8.147  12.303  0.00  0.00    +0.000 C 
BRANCH  18  19
ATOM     19  N   UNL     1      46.169   7.342  13.261  0.00  0.00    +0.000 N 
ATOM     20  H   UNL     1      45.428   7.866  13.724  0.00  0.00    +0.000 HD
BRANCH  19  21
ATOM     21  C   UNL     1      45.642   6.172  12.671  0.00  0.00    +0.000 A 
ATOM     22  N   UNL     1      44.901   6.311  11.551  0.00  0.00    +0.000 NA
ATOM     23  C   UNL     1      44.374   5.202  10.982  0.00  0.00    +0.000 A 
ATOM     24  C   UNL     1      44.548   3.917  11.470  0.00  0.00    +0.000 A 
ATOM     25  C   UNL     1      45.331   3.770  12.618  0.00  0.00    +0.000 A 
ATOM     26  C   UNL     1      45.888   4.900  13.220  0.00  0.00    +0.000 A 
ATOM     27 CL   UNL     1      46.765   4.701  14.696  0.00  0.00    +0.000 Cl
BRANCH  24  28
ATOM     28  C   UNL     1      43.936   2.721  10.843  0.00  0.00    +0.000 C 
ATOM     29  N   UNL     1      44.475   2.221   9.696  0.00  0.00    +0.000 N 
ATOM     30  O   UNL     1      42.951   2.185  11.346  0.00  0.00    +0.000 OA
ATOM     31  H   UNL     1      45.267   2.587   9.190  0.00  0.00    +0.000 HD
ATOM     32  H   UNL     1      44.014   1.408   9.300  0.00  0.00    +0.000 HD
ENDBRANCH  24  28
ENDBRANCH  19  21
ENDBRANCH  18  19
ENDBRANCH   1  18
TORSDOF 6
ENDMDL
