MODEL 1
REMARK VINA RESULT:    -7.837      0.000      0.000
REMARK INTER + INTRA:         -10.330
REMARK INTER:                  -9.899
REMARK INTRA:                  -0.431
REMARK UNBOUND:                -0.431
REMARK  Name = 
REMARK  8 active torsions:
REMARK  status: ('A' for Active; 'I' for Inactive)
REMARK    1  A    between atoms: C_1  and  C_2
REMARK    2  A    between atoms: C_2  and  C_3
REMARK    3  A    between atoms: C_2  and  C_4
REMARK    4  A    between atoms: C_2  and  C_5
REMARK    5  A    between atoms: N_14  and  C_15
REMARK    6  A    between atoms: C_15  and  C_16
REMARK    7  A    between atoms: C_19  and  C_20
REMARK    8  A    between atoms: C_20  and  N_21
REMARK                            x       y       z     vdW  Elec       q    Type
REMARK                         _______ _______ _______ _____ _____    ______ ____
ROOT
ATOM      1  C   UNL     1      47.455   4.768  15.289  0.00  0.00    +0.000 A 
ATOM      2  C   UNL     1      46.470   3.926  14.754  0.00  0.00    +0.000 A 
ATOM      3  N   UNL     1      45.832   4.053  13.561  0.00  0.00    +0.000 NA
ATOM      4  C   UNL     1      46.239   5.123  12.852  0.00  0.00    +0.000 A 
ATOM      5  C   UNL     1      47.214   6.048  13.232  0.00  0.00    +0.000 A 
ATOM      6  C   UNL     1      47.829   5.860  14.491  0.00  0.00    +0.000 A 
ATOM      7  C   UNL     1      47.313   6.982  12.176  0.00  0.00    +0.000 A 
ATOM      8  I   UNL     1      48.564   8.576  12.092  0.00  0.00    +0.000 I 
ATOM      9  C   UNL     1      46.401   6.647  11.202  0.00  0.00    +0.000 A 
ATOM     10  N   UNL     1      45.746   5.512  11.620  0.00  0.00    +0.000 N 
ENDROOT
BRANCH   1  12
ATOM     11  C   UNL     1      48.472   2.957  16.678  0.00  0.00    +0.000 C 
ATOM     12  C   UNL     1      48.104   4.456  16.645  0.00  0.00    +0.000 C 
ATOM     13  C   UNL     1      47.141   4.758  17.815  0.00  0.00    +0.000 C 
ATOM     14  C   UNL     1      49.393   5.268  16.909  0.00  0.00    +0.000 C 
ENDBRANCH   1  12
BRANCH  10  15
ATOM     15  C   UNL     1      44.630   4.901  10.906  0.00  0.00    +0.000 C 
BRANCH  15  16
ATOM     16  C   UNL     1      45.103   4.093   9.720  0.00  0.00    +0.000 A 
ATOM     17  C   UNL     1      45.026   2.695   9.750  0.00  0.00    +0.000 A 
ATOM     18  C   UNL     1      45.655   1.923   8.768  0.00  0.00    +0.000 A 
ATOM     19  C   UNL     1      46.362   2.536   7.724  0.00  0.00    +0.000 A 
ATOM     20  C   UNL     1      46.359   3.936   7.646  0.00  0.00    +0.000 A 
ATOM     21  C   UNL     1      45.728   4.708   8.625  0.00  0.00    +0.000 A 
BRANCH  19  22
ATOM     22  C   UNL     1      47.207   1.728   6.768  0.00  0.00    +0.000 C 
BRANCH  22  23
ATOM     23  N   UNL     1      48.459   2.389   6.419  0.00  0.00    +0.000 NA
ATOM     24  H   UNL     1      49.174   2.107   7.086  0.00  0.00    +0.000 HD
ATOM     25  H   UNL     1      48.341   3.394   6.538  0.00  0.00    +0.000 HD
ENDBRANCH  22  23
ENDBRANCH  19  22
ENDBRANCH  15  16
ENDBRANCH  10  15
TORSDOF 5
ENDMDL
MODEL 2
REMARK VINA RESULT:    -7.359      2.375      3.775
REMARK INTER + INTRA:          -9.726
REMARK INTER:                  -9.051
REMARK INTRA:                  -0.675
REMARK UNBOUND:                -0.431
REMARK  Name = 
REMARK  8 active torsions:
REMARK  status: ('A' for Active; 'I' for Inactive)
REMARK    1  A    between atoms: C_1  and  C_2
REMARK    2  A    between atoms: C_2  and  C_3
REMARK    3  A    between atoms: C_2  and  C_4
REMARK    4  A    between atoms: C_2  and  C_5
REMARK    5  A    between atoms: N_14  and  C_15
REMARK    6  A    between atoms: C_15  and  C_16
REMARK    7  A    between atoms: C_19  and  C_20
REMARK    8  A    between atoms: C_20  and  N_21
REMARK                            x       y       z     vdW  Elec       q    Type
REMARK                         _______ _______ _______ _____ _____    ______ ____
ROOT
ATOM      1  C   UNL     1      47.077   8.025  12.312  0.00  0.00    +0.000 A 
ATOM      2  C   UNL     1      46.129   7.926  11.284  0.00  0.00    +0.000 A 
ATOM      3  N   UNL     1      45.356   6.852  10.973  0.00  0.00    +0.000 NA
ATOM      4  C   UNL     1      45.564   5.795  11.782  0.00  0.00    +0.000 A 
ATOM      5  C   UNL     1      46.456   5.735  12.854  0.00  0.00    +0.000 A 
ATOM      6  C   UNL     1      47.235   6.885  13.115  0.00  0.00    +0.000 A 
ATOM      7  C   UNL     1      46.323   4.443  13.412  0.00  0.00    +0.000 A 
ATOM      8  I   UNL     1      47.329   3.716  15.016  0.00  0.00    +0.000 I 
ATOM      9  C   UNL     1      45.399   3.736  12.677  0.00  0.00    +0.000 A 
ATOM     10  N   UNL     1      44.940   4.566  11.681  0.00  0.00    +0.000 N 
ENDROOT
BRANCH   1  12
ATOM     11  C   UNL     1      49.151   9.295  11.736  0.00  0.00    +0.000 C 
ATOM     12  C   UNL     1      47.841   9.335  12.552  0.00  0.00    +0.000 C 
ATOM     13  C   UNL     1      48.191   9.517  14.047  0.00  0.00    +0.000 C 
ATOM     14  C   UNL     1      47.052  10.593  12.124  0.00  0.00    +0.000 C 
ENDBRANCH   1  12
BRANCH  10  15
ATOM     15  C   UNL     1      44.021   4.148  10.628  0.00  0.00    +0.000 C 
BRANCH  15  16
ATOM     16  C   UNL     1      44.755   3.523   9.464  0.00  0.00    +0.000 A 
ATOM     17  C   UNL     1      44.897   2.132   9.392  0.00  0.00    +0.000 A 
ATOM     18  C   UNL     1      45.755   1.549   8.453  0.00  0.00    +0.000 A 
ATOM     19  C   UNL     1      46.475   2.347   7.554  0.00  0.00    +0.000 A 
ATOM     20  C   UNL     1      46.259   3.732   7.567  0.00  0.00    +0.000 A 
ATOM     21  C   UNL     1      45.401   4.315   8.504  0.00  0.00    +0.000 A 
BRANCH  19  22
ATOM     22  C   UNL     1      47.546   1.758   6.667  0.00  0.00    +0.000 C 
BRANCH  22  23
ATOM     23  N   UNL     1      48.656   2.674   6.432  0.00  0.00    +0.000 NA
ATOM     24  H   UNL     1      48.688   2.901   5.440  0.00  0.00    +0.000 HD
ATOM     25  H   UNL     1      49.527   2.189   6.640  0.00  0.00    +0.000 HD
ENDBRANCH  22  23
ENDBRANCH  19  22
ENDBRANCH  15  16
ENDBRANCH  10  15
TORSDOF 5
ENDMDL
MODEL 3
REMARK VINA RESULT:    -7.203      1.894      2.675
REMARK INTER + INTRA:          -9.529
REMARK INTER:                  -9.017
REMARK INTRA:                  -0.512
REMARK UNBOUND:                -0.431
REMARK  Name = 
REMARK  8 active torsions:
REMARK  status: ('A' for Active; 'I' for Inactive)
REMARK    1  A    between atoms: C_1  and  C_2
REMARK    2  A    between atoms: C_2  and  C_3
REMARK    3  A    between atoms: C_2  and  C_4
REMARK    4  A    between atoms: C_2  and  C_5
REMARK    5  A    between atoms: N_14  and  C_15
REMARK    6  A    between atoms: C_15  and  C_16
REMARK    7  A    between atoms: C_19  and  C_20
REMARK    8  A    between atoms: C_20  and  N_21
REMARK                            x       y       z     vdW  Elec       q    Type
REMARK                         _______ _______ _______ _____ _____    ______ ____
ROOT
ATOM      1  C   UNL     1      47.513   7.084  13.650  0.00  0.00    +0.000 A 
ATOM      2  C   UNL     1      47.313   5.716  13.418  0.00  0.00    +0.000 A 
ATOM      3  N   UNL     1      46.347   5.138  12.656  0.00  0.00    +0.000 NA
ATOM      4  C   UNL     1      45.522   6.031  12.076  0.00  0.00    +0.000 A 
ATOM      5  C   UNL     1      45.592   7.421  12.192  0.00  0.00    +0.000 A 
ATOM      6  C   UNL     1      46.616   7.953  13.009  0.00  0.00    +0.000 A 
ATOM      7  C   UNL     1      44.538   7.941  11.407  0.00  0.00    +0.000 A 
ATOM      8  I   UNL     1      44.096   9.901  11.132  0.00  0.00    +0.000 I 
ATOM      9  C   UNL     1      43.834   6.893  10.860  0.00  0.00    +0.000 A 
ATOM     10  N   UNL     1      44.439   5.728  11.273  0.00  0.00    +0.000 N 
ENDROOT
BRANCH   1  12
ATOM     11  C   UNL     1      48.302   8.932  15.135  0.00  0.00    +0.000 C 
ATOM     12  C   UNL     1      48.685   7.572  14.513  0.00  0.00    +0.000 C 
ATOM     13  C   UNL     1      49.968   7.754  13.670  0.00  0.00    +0.000 C 
ATOM     14  C   UNL     1      49.043   6.606  15.664  0.00  0.00    +0.000 C 
ENDBRANCH   1  12
BRANCH  10  15
ATOM     15  C   UNL     1      43.925   4.394  10.986  0.00  0.00    +0.000 C 
BRANCH  15  16
ATOM     16  C   UNL     1      44.621   3.773   9.797  0.00  0.00    +0.000 A 
ATOM     17  C   UNL     1      44.659   2.380   9.657  0.00  0.00    +0.000 A 
ATOM     18  C   UNL     1      45.479   1.780   8.695  0.00  0.00    +0.000 A 
ATOM     19  C   UNL     1      46.266   2.564   7.841  0.00  0.00    +0.000 A 
ATOM     20  C   UNL     1      46.155   3.959   7.922  0.00  0.00    +0.000 A 
ATOM     21  C   UNL     1      45.334   4.559   8.881  0.00  0.00    +0.000 A 
BRANCH  19  22
ATOM     22  C   UNL     1      47.299   1.940   6.933  0.00  0.00    +0.000 C 
BRANCH  22  23
ATOM     23  N   UNL     1      48.289   2.898   6.456  0.00  0.00    +0.000 NA
ATOM     24  H   UNL     1      47.851   3.505   5.766  0.00  0.00    +0.000 HD
ATOM     25  H   UNL     1      49.022   2.391   5.963  0.00  0.00    +0.000 HD
ENDBRANCH  22  23
ENDBRANCH  19  22
ENDBRANCH  15  16
ENDBRANCH  10  15
TORSDOF 5
ENDMDL
MODEL 4
REMARK VINA RESULT:    -6.594      2.593      7.373
REMARK INTER + INTRA:          -8.759
REMARK INTER:                  -8.253
REMARK INTRA:                  -0.507
REMARK UNBOUND:                -0.431
REMARK  Name = 
REMARK  8 active torsions:
REMARK  status: ('A' for Active; 'I' for Inactive)
REMARK    1  A    between atoms: C_1  and  C_2
REMARK    2  A    between atoms: C_2  and  C_3
REMARK    3  A    between atoms: C_2  and  C_4
REMARK    4  A    between atoms: C_2  and  C_5
REMARK    5  A    between atoms: N_14  and  C_15
REMARK    6  A    between atoms: C_15  and  C_16
REMARK    7  A    between atoms: C_19  and  C_20
REMARK    8  A    between atoms: C_20  and  N_21
REMARK                            x       y       z     vdW  Elec       q    Type
REMARK                         _______ _______ _______ _____ _____    ______ ____
ROOT
ATOM      1  C   UNL     1      45.815   4.997  12.225  0.00  0.00    +0.000 A 
ATOM      2  C   UNL     1      45.598   4.225  13.375  0.00  0.00    +0.000 A 
ATOM      3  N   UNL     1      46.233   4.327  14.572  0.00  0.00    +0.000 NA
ATOM      4  C   UNL     1      47.161   5.303  14.600  0.00  0.00    +0.000 A 
ATOM      5  C   UNL     1      47.488   6.166  13.552  0.00  0.00    +0.000 A 
ATOM      6  C   UNL     1      46.794   5.997  12.332  0.00  0.00    +0.000 A 
ATOM      7  C   UNL     1      48.499   7.024  14.041  0.00  0.00    +0.000 A 
ATOM      8  I   UNL     1      49.402   8.526  13.021  0.00  0.00    +0.000 I 
ATOM      9  C   UNL     1      48.795   6.666  15.337  0.00  0.00    +0.000 A 
ATOM     10  N   UNL     1      47.975   5.614  15.673  0.00  0.00    +0.000 N 
ENDROOT
BRANCH   1  12
ATOM     11  C   UNL     1      44.819   3.255  10.737  0.00  0.00    +0.000 C 
ATOM     12  C   UNL     1      44.976   4.775  10.959  0.00  0.00    +0.000 C 
ATOM     13  C   UNL     1      45.657   5.392   9.716  0.00  0.00    +0.000 C 
ATOM     14  C   UNL     1      43.562   5.392  11.044  0.00  0.00    +0.000 C 
ENDBRANCH   1  12
BRANCH  10  15
ATOM     15  C   UNL     1      48.056   4.885  16.934  0.00  0.00    +0.000 C 
BRANCH  15  16
ATOM     16  C   UNL     1      49.307   4.041  17.011  0.00  0.00    +0.000 A 
ATOM     17  C   UNL     1      49.237   2.662  16.781  0.00  0.00    +0.000 A 
ATOM     18  C   UNL     1      50.329   1.834  17.063  0.00  0.00    +0.000 A 
ATOM     19  C   UNL     1      51.521   2.373  17.566  0.00  0.00    +0.000 A 
ATOM     20  C   UNL     1      51.619   3.764  17.708  0.00  0.00    +0.000 A 
ATOM     21  C   UNL     1      50.529   4.592  17.423  0.00  0.00    +0.000 A 
BRANCH  19  22
ATOM     22  C   UNL     1      52.638   1.483  18.058  0.00  0.00    +0.000 C 
BRANCH  22  23
ATOM     23  N   UNL     1      52.219   0.099  18.249  0.00  0.00    +0.000 NA
ATOM     24  H   UNL     1      52.080  -0.065  19.244  0.00  0.00    +0.000 HD
ATOM     25  H   UNL     1      52.981  -0.514  17.964  0.00  0.00    +0.000 HD
ENDBRANCH  22  23
ENDBRANCH  19  22
ENDBRANCH  15  16
ENDBRANCH  10  15
TORSDOF 5
ENDMDL
MODEL 5
REMARK VINA RESULT:    -5.834      1.784      2.685
REMARK INTER + INTRA:          -7.800
REMARK INTER:                  -7.183
REMARK INTRA:                  -0.617
REMARK UNBOUND:                -0.431
REMARK  Name = 
REMARK  8 active torsions:
REMARK  status: ('A' for Active; 'I' for Inactive)
REMARK    1  A    between atoms: C_1  and  C_2
REMARK    2  A    between atoms: C_2  and  C_3
REMARK    3  A    between atoms: C_2  and  C_4
REMARK    4  A    between atoms: C_2  and  C_5
REMARK    5  A    between atoms: N_14  and  C_15
REMARK    6  A    between atoms: C_15  and  C_16
REMARK    7  A    between atoms: C_19  and  C_20
REMARK    8  A    between atoms: C_20  and  N_21
REMARK                            x       y       z     vdW  Elec       q    Type
REMARK                         _______ _______ _______ _____ _____    ______ ____
ROOT
ATOM      1  C   UNL     1      48.728   4.730  16.602  0.00  0.00    +0.000 A 
ATOM      2  C   UNL     1      47.528   4.167  16.145  0.00  0.00    +0.000 A 
ATOM      3  N   UNL     1      46.724   4.628  15.152  0.00  0.00    +0.000 NA
ATOM      4  C   UNL     1      47.186   5.753  14.572  0.00  0.00    +0.000 A 
ATOM      5  C   UNL     1      48.364   6.429  14.897  0.00  0.00    +0.000 A 
ATOM      6  C   UNL     1      49.147   5.899  15.947  0.00  0.00    +0.000 A 
ATOM      7  C   UNL     1      48.442   7.537  14.024  0.00  0.00    +0.000 A 
ATOM      8  I   UNL     1      49.927   8.918  13.961  0.00  0.00    +0.000 I 
ATOM      9  C   UNL     1      47.327   7.546  13.217  0.00  0.00    +0.000 A 
ATOM     10  N   UNL     1      46.563   6.454  13.557  0.00  0.00    +0.000 N 
ENDROOT
BRANCH   1  12
ATOM     11  C   UNL     1      48.670   4.003  18.993  0.00  0.00    +0.000 C 
ATOM     12  C   UNL     1      49.539   4.055  17.718  0.00  0.00    +0.000 C 
ATOM     13  C   UNL     1      50.833   4.840  18.028  0.00  0.00    +0.000 C 
ATOM     14  C   UNL     1      49.967   2.610  17.375  0.00  0.00    +0.000 C 
ENDBRANCH   1  12
BRANCH  10  15
ATOM     15  C   UNL     1      45.247   6.171  12.996  0.00  0.00    +0.000 C 
BRANCH  15  16
ATOM     16  C   UNL     1      45.325   5.159  11.876  0.00  0.00    +0.000 A 
ATOM     17  C   UNL     1      45.486   5.590  10.553  0.00  0.00    +0.000 A 
ATOM     18  C   UNL     1      45.339   4.696   9.487  0.00  0.00    +0.000 A 
ATOM     19  C   UNL     1      45.043   3.347   9.724  0.00  0.00    +0.000 A 
ATOM     20  C   UNL     1      44.974   2.900  11.051  0.00  0.00    +0.000 A 
ATOM     21  C   UNL     1      45.124   3.792  12.117  0.00  0.00    +0.000 A 
BRANCH  19  22
ATOM     22  C   UNL     1      44.690   2.411   8.593  0.00  0.00    +0.000 C 
BRANCH  22  23
ATOM     23  N   UNL     1      45.353   1.116   8.699  0.00  0.00    +0.000 NA
ATOM     24  H   UNL     1      45.225   0.761   9.645  0.00  0.00    +0.000 HD
ATOM     25  H   UNL     1      46.355   1.252   8.580  0.00  0.00    +0.000 HD
ENDBRANCH  22  23
ENDBRANCH  19  22
ENDBRANCH  15  16
ENDBRANCH  10  15
TORSDOF 5
ENDMDL
MODEL 6
REMARK VINA RESULT:    -5.686      3.936      4.997
REMARK INTER + INTRA:          -7.612
REMARK INTER:                  -6.996
REMARK INTRA:                  -0.616
REMARK UNBOUND:                -0.431
REMARK  Name = 
REMARK  8 active torsions:
REMARK  status: ('A' for Active; 'I' for Inactive)
REMARK    1  A    between atoms: C_1  and  C_2
REMARK    2  A    between atoms: C_2  and  C_3
REMARK    3  A    between atoms: C_2  and  C_4
REMARK    4  A    between atoms: C_2  and  C_5
REMARK    5  A    between atoms: N_14  and  C_15
REMARK    6  A    between atoms: C_15  and  C_16
REMARK    7  A    between atoms: C_19  and  C_20
REMARK    8  A    between atoms: C_20  and  N_21
REMARK                            x       y       z     vdW  Elec       q    Type
REMARK                         _______ _______ _______ _____ _____    ______ ____
ROOT
ATOM      1  C   UNL     1      48.725   6.206  18.282  0.00  0.00    +0.000 A 
ATOM      2  C   UNL     1      48.702   5.256  17.251  0.00  0.00    +0.000 A 
ATOM      3  N   UNL     1      48.732   5.487  15.913  0.00  0.00    +0.000 NA
ATOM      4  C   UNL     1      48.799   6.796  15.601  0.00  0.00    +0.000 A 
ATOM      5  C   UNL     1      48.845   7.861  16.502  0.00  0.00    +0.000 A 
ATOM      6  C   UNL     1      48.799   7.548  17.879  0.00  0.00    +0.000 A 
ATOM      7  C   UNL     1      48.922   9.039  15.724  0.00  0.00    +0.000 A 
ATOM      8  I   UNL     1      49.035  10.939  16.425  0.00  0.00    +0.000 I 
ATOM      9  C   UNL     1      48.892   8.694  14.392  0.00  0.00    +0.000 A 
ATOM     10  N   UNL     1      48.815   7.322  14.322  0.00  0.00    +0.000 N 
ENDROOT
BRANCH   1  12
ATOM     11  C   UNL     1      48.737   4.226  19.807  0.00  0.00    +0.000 C 
ATOM     12  C   UNL     1      48.724   5.769  19.754  0.00  0.00    +0.000 C 
ATOM     13  C   UNL     1      47.468   6.282  20.494  0.00  0.00    +0.000 C 
ATOM     14  C   UNL     1      49.947   6.282  20.547  0.00  0.00    +0.000 C 
ENDBRANCH   1  12
BRANCH  10  15
ATOM     15  C   UNL     1      48.661   6.574  13.080  0.00  0.00    +0.000 C 
BRANCH  15  16
ATOM     16  C   UNL     1      47.219   6.201  12.829  0.00  0.00    +0.000 A 
ATOM     17  C   UNL     1      46.321   7.162  12.349  0.00  0.00    +0.000 A 
ATOM     18  C   UNL     1      44.946   6.904  12.321  0.00  0.00    +0.000 A 
ATOM     19  C   UNL     1      44.443   5.671  12.757  0.00  0.00    +0.000 A 
ATOM     20  C   UNL     1      45.352   4.679  13.149  0.00  0.00    +0.000 A 
ATOM     21  C   UNL     1      46.726   4.935  13.175  0.00  0.00    +0.000 A 
BRANCH  19  22
ATOM     22  C   UNL     1      42.959   5.442  12.918  0.00  0.00    +0.000 C 
BRANCH  22  23
ATOM     23  N   UNL     1      42.179   5.963  11.800  0.00  0.00    +0.000 NA
ATOM     24  H   UNL     1      41.498   5.260  11.522  0.00  0.00    +0.000 HD
ATOM     25  H   UNL     1      42.799   6.088  11.001  0.00  0.00    +0.000 HD
ENDBRANCH  22  23
ENDBRANCH  19  22
ENDBRANCH  15  16
ENDBRANCH  10  15
TORSDOF 5
ENDMDL
MODEL 7
REMARK VINA RESULT:    -5.618      3.040      4.251
REMARK INTER + INTRA:          -7.527
REMARK INTER:                  -6.882
REMARK INTRA:                  -0.646
REMARK UNBOUND:                -0.431
REMARK  Name = 
REMARK  8 active torsions:
REMARK  status: ('A' for Active; 'I' for Inactive)
REMARK    1  A    between atoms: C_1  and  C_2
REMARK    2  A    between atoms: C_2  and  C_3
REMARK    3  A    between atoms: C_2  and  C_4
REMARK    4  A    between atoms: C_2  and  C_5
REMARK    5  A    between atoms: N_14  and  C_15
REMARK    6  A    between atoms: C_15  and  C_16
REMARK    7  A    between atoms: C_19  and  C_20
REMARK    8  A    between atoms: C_20  and  N_21
REMARK                            x       y       z     vdW  Elec       q    Type
REMARK                         _______ _______ _______ _____ _____    ______ ____
ROOT
ATOM      1  C   UNL     1      50.649   7.166  15.992  0.00  0.00    +0.000 A 
ATOM      2  C   UNL     1      49.296   6.838  16.152  0.00  0.00    +0.000 A 
ATOM      3  N   UNL     1      48.309   6.918  15.221  0.00  0.00    +0.000 NA
ATOM      4  C   UNL     1      48.741   7.364  14.025  0.00  0.00    +0.000 A 
ATOM      5  C   UNL     1      50.051   7.718  13.698  0.00  0.00    +0.000 A 
ATOM      6  C   UNL     1      51.025   7.619  14.718  0.00  0.00    +0.000 A 
ATOM      7  C   UNL     1      50.031   8.111  12.340  0.00  0.00    +0.000 A 
ATOM      8  I   UNL     1      51.621   8.726  11.240  0.00  0.00    +0.000 I 
ATOM      9  C   UNL     1      48.739   8.025  11.873  0.00  0.00    +0.000 A 
ATOM     10  N   UNL     1      47.955   7.570  12.907  0.00  0.00    +0.000 N 
ENDROOT
BRANCH   1  12
ATOM     11  C   UNL     1      52.790   8.000  16.974  0.00  0.00    +0.000 C 
ATOM     12  C   UNL     1      51.646   6.978  17.144  0.00  0.00    +0.000 C 
ATOM     13  C   UNL     1      52.247   5.554  17.143  0.00  0.00    +0.000 C 
ATOM     14  C   UNL     1      51.017   7.194  18.540  0.00  0.00    +0.000 C 
ENDBRANCH   1  12
BRANCH  10  15
ATOM     15  C   UNL     1      46.504   7.443  12.839  0.00  0.00    +0.000 C 
BRANCH  15  16
ATOM     16  C   UNL     1      46.088   6.136  12.204  0.00  0.00    +0.000 A 
ATOM     17  C   UNL     1      45.634   6.113  10.880  0.00  0.00    +0.000 A 
ATOM     18  C   UNL     1      45.039   4.964  10.348  0.00  0.00    +0.000 A 
ATOM     19  C   UNL     1      44.902   3.807  11.126  0.00  0.00    +0.000 A 
ATOM     20  C   UNL     1      45.441   3.804  12.420  0.00  0.00    +0.000 A 
ATOM     21  C   UNL     1      46.038   4.950  12.952  0.00  0.00    +0.000 A 
BRANCH  19  22
ATOM     22  C   UNL     1      44.094   2.627  10.641  0.00  0.00    +0.000 C 
BRANCH  22  23
ATOM     23  N   UNL     1      43.034   2.245  11.566  0.00  0.00    +0.000 NA
ATOM     24  H   UNL     1      42.957   2.960  12.287  0.00  0.00    +0.000 HD
ATOM     25  H   UNL     1      43.311   1.389  12.044  0.00  0.00    +0.000 HD
ENDBRANCH  22  23
ENDBRANCH  19  22
ENDBRANCH  15  16
ENDBRANCH  10  15
TORSDOF 5
ENDMDL
MODEL 8
REMARK VINA RESULT:    -5.597      3.728      6.590
REMARK INTER + INTRA:          -7.500
REMARK INTER:                  -6.845
REMARK INTRA:                  -0.655
REMARK UNBOUND:                -0.431
REMARK  Name = 
REMARK  8 active torsions:
REMARK  status: ('A' for Active; 'I' for Inactive)
REMARK    1  A    between atoms: C_1  and  C_2
REMARK    2  A    between atoms: C_2  and  C_3
REMARK    3  A    between atoms: C_2  and  C_4
REMARK    4  A    between atoms: C_2  and  C_5
REMARK    5  A    between atoms: N_14  and  C_15
REMARK    6  A    between atoms: C_15  and  C_16
REMARK    7  A    between atoms: C_19  and  C_20
REMARK    8  A    between atoms: C_20  and  N_21
REMARK                            x       y       z     vdW  Elec       q    Type
REMARK                         _______ _______ _______ _____ _____    ______ ____
ROOT
ATOM      1  C   UNL     1      45.080   5.075  12.061  0.00  0.00    +0.000 A 
ATOM      2  C   UNL     1      45.634   6.198  11.429  0.00  0.00    +0.000 A 
ATOM      3  N   UNL     1      46.668   6.965  11.865  0.00  0.00    +0.000 NA
ATOM      4  C   UNL     1      47.183   6.547  13.038  0.00  0.00    +0.000 A 
ATOM      5  C   UNL     1      46.758   5.446  13.784  0.00  0.00    +0.000 A 
ATOM      6  C   UNL     1      45.671   4.699  13.276  0.00  0.00    +0.000 A 
ATOM      7  C   UNL     1      47.592   5.390  14.924  0.00  0.00    +0.000 A 
ATOM      8  I   UNL     1      47.514   4.008  16.406  0.00  0.00    +0.000 I 
ATOM      9  C   UNL     1      48.474   6.446  14.880  0.00  0.00    +0.000 A 
ATOM     10  N   UNL     1      48.218   7.151  13.727  0.00  0.00    +0.000 N 
ENDROOT
BRANCH   1  12
ATOM     11  C   UNL     1      42.646   5.145  11.497  0.00  0.00    +0.000 C 
ATOM     12  C   UNL     1      43.930   4.294  11.407  0.00  0.00    +0.000 C 
ATOM     13  C   UNL     1      43.686   2.946  12.124  0.00  0.00    +0.000 C 
ATOM     14  C   UNL     1      44.181   3.966   9.918  0.00  0.00    +0.000 C 
ENDBRANCH   1  12
BRANCH  10  15
ATOM     15  C   UNL     1      48.877   8.402  13.370  0.00  0.00    +0.000 C 
BRANCH  15  16
ATOM     16  C   UNL     1      50.210   8.160  12.703  0.00  0.00    +0.000 A 
ATOM     17  C   UNL     1      51.397   8.493  13.368  0.00  0.00    +0.000 A 
ATOM     18  C   UNL     1      52.622   8.486  12.691  0.00  0.00    +0.000 A 
ATOM     19  C   UNL     1      52.686   8.128  11.338  0.00  0.00    +0.000 A 
ATOM     20  C   UNL     1      51.511   7.705  10.701  0.00  0.00    +0.000 A 
ATOM     21  C   UNL     1      50.287   7.709  11.377  0.00  0.00    +0.000 A 
BRANCH  19  22
ATOM     22  C   UNL     1      53.958   8.299  10.541  0.00  0.00    +0.000 C 
BRANCH  22  23
ATOM     23  N   UNL     1      53.766   8.081   9.112  0.00  0.00    +0.000 NA
ATOM     24  H   UNL     1      54.662   7.836   8.696  0.00  0.00    +0.000 HD
ATOM     25  H   UNL     1      53.485   8.961   8.683  0.00  0.00    +0.000 HD
ENDBRANCH  22  23
ENDBRANCH  19  22
ENDBRANCH  15  16
ENDBRANCH  10  15
TORSDOF 5
ENDMDL
MODEL 9
REMARK VINA RESULT:    -5.432      4.528      7.767
REMARK INTER + INTRA:          -7.292
REMARK INTER:                  -6.663
REMARK INTRA:                  -0.629
REMARK UNBOUND:                -0.431
REMARK  Name = 
REMARK  8 active torsions:
REMARK  status: ('A' for Active; 'I' for Inactive)
REMARK    1  A    between atoms: C_1  and  C_2
REMARK    2  A    between atoms: C_2  and  C_3
REMARK    3  A    between atoms: C_2  and  C_4
REMARK    4  A    between atoms: C_2  and  C_5
REMARK    5  A    between atoms: N_14  and  C_15
REMARK    6  A    between atoms: C_15  and  C_16
REMARK    7  A    between atoms: C_19  and  C_20
REMARK    8  A    between atoms: C_20  and  N_21
REMARK                            x       y       z     vdW  Elec       q    Type
REMARK                         _______ _______ _______ _____ _____    ______ ____
ROOT
ATOM      1  C   UNL     1      48.511   8.199  13.593  0.00  0.00    +0.000 A 
ATOM      2  C   UNL     1      49.204   8.051  14.803  0.00  0.00    +0.000 A 
ATOM      3  N   UNL     1      49.106   7.028  15.692  0.00  0.00    +0.000 NA
ATOM      4  C   UNL     1      48.235   6.074  15.311  0.00  0.00    +0.000 A 
ATOM      5  C   UNL     1      47.480   6.063  14.137  0.00  0.00    +0.000 A 
ATOM      6  C   UNL     1      47.624   7.164  13.262  0.00  0.00    +0.000 A 
ATOM      7  C   UNL     1      46.724   4.869  14.159  0.00  0.00    +0.000 A 
ATOM      8  I   UNL     1      45.430   4.235  12.731  0.00  0.00    +0.000 I 
ATOM      9  C   UNL     1      46.993   4.196  15.329  0.00  0.00    +0.000 A 
ATOM     10  N   UNL     1      47.915   4.937  16.030  0.00  0.00    +0.000 N 
ENDROOT
BRANCH   1  12
ATOM     11  C   UNL     1      49.591  10.450  13.472  0.00  0.00    +0.000 C 
ATOM     12  C   UNL     1      48.771   9.407  12.681  0.00  0.00    +0.000 C 
ATOM     13  C   UNL     1      47.449  10.060  12.219  0.00  0.00    +0.000 C 
ATOM     14  C   UNL     1      49.562   9.050  11.402  0.00  0.00    +0.000 C 
ENDBRANCH   1  12
BRANCH  10  15
ATOM     15  C   UNL     1      48.380   4.607  17.373  0.00  0.00    +0.000 C 
BRANCH  15  16
ATOM     16  C   UNL     1      49.658   3.802  17.338  0.00  0.00    +0.000 A 
ATOM     17  C   UNL     1      49.608   2.419  17.118  0.00  0.00    +0.000 A 
ATOM     18  C   UNL     1      50.745   1.625  17.301  0.00  0.00    +0.000 A 
ATOM     19  C   UNL     1      51.961   2.201  17.692  0.00  0.00    +0.000 A 
ATOM     20  C   UNL     1      52.030   3.595  17.821  0.00  0.00    +0.000 A 
ATOM     21  C   UNL     1      50.896   4.390  17.635  0.00  0.00    +0.000 A 
BRANCH  19  22
ATOM     22  C   UNL     1      53.144   1.347  18.082  0.00  0.00    +0.000 C 
BRANCH  22  23
ATOM     23  N   UNL     1      52.820  -0.073  18.153  0.00  0.00    +0.000 NA
ATOM     24  H   UNL     1      53.544  -0.598  17.666  0.00  0.00    +0.000 HD
ATOM     25  H   UNL     1      51.957  -0.236  17.638  0.00  0.00    +0.000 HD
ENDBRANCH  22  23
ENDBRANCH  19  22
ENDBRANCH  15  16
ENDBRANCH  10  15
TORSDOF 5
ENDMDL
