MODEL 1
REMARK VINA RESULT:    -8.616      0.000      0.000
REMARK INTER + INTRA:         -12.740
REMARK INTER:                 -11.639
REMARK INTRA:                  -1.101
REMARK UNBOUND:                -1.101
REMARK  Name = 
REMARK  6 active torsions:
REMARK  status: ('A' for Active; 'I' for Inactive)
REMARK    1  A    between atoms: C_2  and  C_19
REMARK    2  A    between atoms: N_3  and  C_4
REMARK    3  A    between atoms: C_4  and  C_5
REMARK    4  A    between atoms: C_8  and  C_9
REMARK    5  A    between atoms: C_9  and  N_10
REMARK    6  A    between atoms: N_10  and  C_11
REMARK                            x       y       z     vdW  Elec       q    Type
REMARK                         _______ _______ _______ _____ _____    ______ ____
ROOT
ATOM      1  C   UNL     1      46.490   7.533  12.847  0.00  0.00    +0.000 C 
ENDROOT
BRANCH   1   2
ATOM      2  C   UNL     1      45.942   6.415  11.999  0.00  0.00    +0.000 A 
ATOM      3  C   UNL     1      45.191   5.388  12.585  0.00  0.00    +0.000 A 
ATOM      4  C   UNL     1      44.652   4.364  11.801  0.00  0.00    +0.000 A 
ATOM      5  C   UNL     1      44.873   4.329  10.416  0.00  0.00    +0.000 A 
ATOM      6  C   UNL     1      45.626   5.356   9.831  0.00  0.00    +0.000 A 
ATOM      7  C   UNL     1      46.166   6.380  10.616  0.00  0.00    +0.000 A 
BRANCH   5   8
ATOM      8  C   UNL     1      44.334   3.190   9.582  0.00  0.00    +0.000 C 
BRANCH   8   9
ATOM      9  N   UNL     1      44.592   3.412   8.163  0.00  0.00    +0.000 N 
ATOM     10  H   UNL     1      44.579   4.400   7.924  0.00  0.00    +0.000 HD
BRANCH   9  11
ATOM     11  C   UNL     1      45.667   2.730   7.573  0.00  0.00    +0.000 A 
ATOM     12  C   UNL     1      46.466   3.277   6.567  0.00  0.00    +0.000 A 
ATOM     13  C   UNL     1      47.562   2.565   6.098  0.00  0.00    +0.000 A 
ATOM     14  N   UNL     1      47.932   1.356   6.567  0.00  0.00    +0.000 NA
ATOM     15  C   UNL     1      47.179   0.858   7.568  0.00  0.00    +0.000 A 
ATOM     16  C   UNL     1      46.072   1.498   8.104  0.00  0.00    +0.000 A 
ENDBRANCH   9  11
ENDBRANCH   8   9
ENDBRANCH   5   8
ENDBRANCH   1   2
BRANCH   1  19
ATOM     17  O   UNL     1      49.118   6.624  13.322  0.00  0.00    +0.000 OA
ATOM     18  C   UNL     1      48.322   6.663  14.256  0.00  0.00    +0.000 C 
ATOM     19  N   UNL     1      47.019   7.057  14.100  0.00  0.00    +0.000 N 
ATOM     20  H   UNL     1      46.442   7.209  14.918  0.00  0.00    +0.000 HD
BRANCH  18  21
ATOM     21  C   UNL     1      48.711   6.236  15.606  0.00  0.00    +0.000 A 
ATOM     22  C   UNL     1      49.576   7.020  16.358  0.00  0.00    +0.000 A 
ATOM     23  S   UNL     1      49.894   6.389  17.912  0.00  0.00    +0.000 S 
ATOM     24  C   UNL     1      48.860   5.064  17.645  0.00  0.00    +0.000 A 
ATOM     25  N   UNL     1      48.637   4.142  18.620  0.00  0.00    +0.000 NA
ATOM     26  C   UNL     1      47.794   3.219  18.298  0.00  0.00    +0.000 A 
ATOM     27  N   UNL     1      47.171   3.121  17.081  0.00  0.00    +0.000 N 
ATOM     28  C   UNL     1      47.440   3.971  16.037  0.00  0.00    +0.000 A 
ATOM     29  O   UNL     1      47.000   3.752  14.913  0.00  0.00    +0.000 OA
ATOM     30  C   UNL     1      48.318   5.077  16.372  0.00  0.00    +0.000 A 
ATOM     31  H   UNL     1      46.561   2.343  16.875  0.00  0.00    +0.000 HD
ENDBRANCH  18  21
ENDBRANCH   1  19
TORSDOF 6
ENDMDL
MODEL 2
REMARK VINA RESULT:    -7.988      1.839      2.625
REMARK INTER + INTRA:         -11.891
REMARK INTER:                 -10.979
REMARK INTRA:                  -0.912
REMARK UNBOUND:                -1.101
REMARK  Name = 
REMARK  6 active torsions:
REMARK  status: ('A' for Active; 'I' for Inactive)
REMARK    1  A    between atoms: C_2  and  C_19
REMARK    2  A    between atoms: N_3  and  C_4
REMARK    3  A    between atoms: C_4  and  C_5
REMARK    4  A    between atoms: C_8  and  C_9
REMARK    5  A    between atoms: C_9  and  N_10
REMARK    6  A    between atoms: N_10  and  C_11
REMARK                            x       y       z     vdW  Elec       q    Type
REMARK                         _______ _______ _______ _____ _____    ______ ____
ROOT
ATOM      1  C   UNL     1      47.442   6.817  13.521  0.00  0.00    +0.000 C 
ENDROOT
BRANCH   1   2
ATOM      2  C   UNL     1      46.624   5.996  12.557  0.00  0.00    +0.000 A 
ATOM      3  C   UNL     1      46.445   6.430  11.238  0.00  0.00    +0.000 A 
ATOM      4  C   UNL     1      45.714   5.659  10.329  0.00  0.00    +0.000 A 
ATOM      5  C   UNL     1      45.124   4.450  10.725  0.00  0.00    +0.000 A 
ATOM      6  C   UNL     1      45.302   4.018  12.047  0.00  0.00    +0.000 A 
ATOM      7  C   UNL     1      46.032   4.790  12.957  0.00  0.00    +0.000 A 
BRANCH   5   8
ATOM      8  C   UNL     1      44.289   3.649   9.753  0.00  0.00    +0.000 C 
BRANCH   8   9
ATOM      9  N   UNL     1      44.760   3.833   8.384  0.00  0.00    +0.000 N 
ATOM     10  H   UNL     1      44.941   4.810   8.171  0.00  0.00    +0.000 HD
BRANCH   9  11
ATOM     11  C   UNL     1      45.773   2.983   7.915  0.00  0.00    +0.000 A 
ATOM     12  C   UNL     1      45.896   1.647   8.304  0.00  0.00    +0.000 A 
ATOM     13  C   UNL     1      46.878   0.853   7.726  0.00  0.00    +0.000 A 
ATOM     14  N   UNL     1      47.735   1.283   6.779  0.00  0.00    +0.000 NA
ATOM     15  C   UNL     1      47.579   2.562   6.381  0.00  0.00    +0.000 A 
ATOM     16  C   UNL     1      46.625   3.427   6.895  0.00  0.00    +0.000 A 
ENDBRANCH   9  11
ENDBRANCH   8   9
ENDBRANCH   5   8
ENDBRANCH   1   2
BRANCH   1  19
ATOM     17  O   UNL     1      49.723   6.633  15.170  0.00  0.00    +0.000 OA
ATOM     18  C   UNL     1      48.652   6.196  15.582  0.00  0.00    +0.000 C 
ATOM     19  N   UNL     1      47.508   6.215  14.828  0.00  0.00    +0.000 N 
ATOM     20  H   UNL     1      46.622   5.977  15.258  0.00  0.00    +0.000 HD
BRANCH  18  21
ATOM     21  C   UNL     1      48.543   5.574  16.908  0.00  0.00    +0.000 A 
ATOM     22  C   UNL     1      48.677   4.199  17.041  0.00  0.00    +0.000 A 
ATOM     23  S   UNL     1      48.553   3.654  18.653  0.00  0.00    +0.000 S 
ATOM     24  C   UNL     1      48.348   5.240  19.232  0.00  0.00    +0.000 A 
ATOM     25  N   UNL     1      48.231   5.491  20.564  0.00  0.00    +0.000 NA
ATOM     26  C   UNL     1      48.131   6.743  20.865  0.00  0.00    +0.000 A 
ATOM     27  N   UNL     1      48.113   7.766  19.952  0.00  0.00    +0.000 N 
ATOM     28  C   UNL     1      48.130   7.552  18.596  0.00  0.00    +0.000 A 
ATOM     29  O   UNL     1      47.937   8.473  17.808  0.00  0.00    +0.000 OA
ATOM     30  C   UNL     1      48.327   6.168  18.206  0.00  0.00    +0.000 A 
ATOM     31  H   UNL     1      47.980   8.720  20.250  0.00  0.00    +0.000 HD
ENDBRANCH  18  21
ENDBRANCH   1  19
TORSDOF 6
ENDMDL
MODEL 3
REMARK VINA RESULT:    -7.738      1.898      3.457
REMARK INTER + INTRA:         -11.553
REMARK INTER:                 -10.363
REMARK INTRA:                  -1.190
REMARK UNBOUND:                -1.101
REMARK  Name = 
REMARK  6 active torsions:
REMARK  status: ('A' for Active; 'I' for Inactive)
REMARK    1  A    between atoms: C_2  and  C_19
REMARK    2  A    between atoms: N_3  and  C_4
REMARK    3  A    between atoms: C_4  and  C_5
REMARK    4  A    between atoms: C_8  and  C_9
REMARK    5  A    between atoms: C_9  and  N_10
REMARK    6  A    between atoms: N_10  and  C_11
REMARK                            x       y       z     vdW  Elec       q    Type
REMARK                         _______ _______ _______ _____ _____    ______ ____
ROOT
ATOM      1  C   UNL     1      46.644   4.324  14.512  0.00  0.00    +0.000 C 
ENDROOT
BRANCH   1   2
ATOM      2  C   UNL     1      46.084   4.361  13.113  0.00  0.00    +0.000 A 
ATOM      3  C   UNL     1      46.243   5.504  12.320  0.00  0.00    +0.000 A 
ATOM      4  C   UNL     1      45.755   5.536  11.010  0.00  0.00    +0.000 A 
ATOM      5  C   UNL     1      45.074   4.435  10.473  0.00  0.00    +0.000 A 
ATOM      6  C   UNL     1      44.912   3.291  11.268  0.00  0.00    +0.000 A 
ATOM      7  C   UNL     1      45.400   3.260  12.579  0.00  0.00    +0.000 A 
BRANCH   5   8
ATOM      8  C   UNL     1      44.500   4.495   9.076  0.00  0.00    +0.000 C 
BRANCH   8   9
ATOM      9  N   UNL     1      44.412   3.162   8.488  0.00  0.00    +0.000 N 
ATOM     10  H   UNL     1      43.584   3.055   7.909  0.00  0.00    +0.000 HD
BRANCH   9  11
ATOM     11  C   UNL     1      45.563   2.629   7.886  0.00  0.00    +0.000 A 
ATOM     12  C   UNL     1      46.456   3.390   7.129  0.00  0.00    +0.000 A 
ATOM     13  C   UNL     1      47.615   2.801   6.640  0.00  0.00    +0.000 A 
ATOM     14  N   UNL     1      47.959   1.517   6.862  0.00  0.00    +0.000 NA
ATOM     15  C   UNL     1      47.110   0.804   7.631  0.00  0.00    +0.000 A 
ATOM     16  C   UNL     1      45.935   1.308   8.167  0.00  0.00    +0.000 A 
ENDBRANCH   9  11
ENDBRANCH   8   9
ENDBRANCH   5   8
ENDBRANCH   1   2
BRANCH   1  19
ATOM     17  O   UNL     1      48.687   4.630  16.432  0.00  0.00    +0.000 OA
ATOM     18  C   UNL     1      48.322   5.609  15.787  0.00  0.00    +0.000 C 
ATOM     19  N   UNL     1      47.312   5.550  14.863  0.00  0.00    +0.000 N 
ATOM     20  H   UNL     1      47.143   6.344  14.256  0.00  0.00    +0.000 HD
BRANCH  18  21
ATOM     21  C   UNL     1      48.923   6.932  16.005  0.00  0.00    +0.000 A 
ATOM     22  C   UNL     1      48.894   7.506  17.268  0.00  0.00    +0.000 A 
ATOM     23  S   UNL     1      49.665   9.027  17.345  0.00  0.00    +0.000 S 
ATOM     24  C   UNL     1      50.092   8.955  15.700  0.00  0.00    +0.000 A 
ATOM     25  N   UNL     1      50.827   9.943  15.123  0.00  0.00    +0.000 NA
ATOM     26  C   UNL     1      51.120   9.735  13.882  0.00  0.00    +0.000 A 
ATOM     27  N   UNL     1      50.726   8.639  13.160  0.00  0.00    +0.000 N 
ATOM     28  C   UNL     1      49.904   7.666  13.675  0.00  0.00    +0.000 A 
ATOM     29  O   UNL     1      49.429   6.794  12.954  0.00  0.00    +0.000 OA
ATOM     30  C   UNL     1      49.613   7.809  15.089  0.00  0.00    +0.000 A 
ATOM     31  H   UNL     1      50.945   8.562  12.178  0.00  0.00    +0.000 HD
ENDBRANCH  18  21
ENDBRANCH   1  19
TORSDOF 6
ENDMDL
MODEL 4
REMARK VINA RESULT:    -7.433      2.358      3.441
REMARK INTER + INTRA:         -11.141
REMARK INTER:                 -10.277
REMARK INTRA:                  -0.865
REMARK UNBOUND:                -1.101
REMARK  Name = 
REMARK  6 active torsions:
REMARK  status: ('A' for Active; 'I' for Inactive)
REMARK    1  A    between atoms: C_2  and  C_19
REMARK    2  A    between atoms: N_3  and  C_4
REMARK    3  A    between atoms: C_4  and  C_5
REMARK    4  A    between atoms: C_8  and  C_9
REMARK    5  A    between atoms: C_9  and  N_10
REMARK    6  A    between atoms: N_10  and  C_11
REMARK                            x       y       z     vdW  Elec       q    Type
REMARK                         _______ _______ _______ _____ _____    ______ ____
ROOT
ATOM      1  C   UNL     1      46.580   4.750  14.300  0.00  0.00    +0.000 C 
ENDROOT
BRANCH   1   2
ATOM      2  C   UNL     1      46.010   4.665  12.907  0.00  0.00    +0.000 A 
ATOM      3  C   UNL     1      46.163   5.735  12.016  0.00  0.00    +0.000 A 
ATOM      4  C   UNL     1      45.665   5.652  10.713  0.00  0.00    +0.000 A 
ATOM      5  C   UNL     1      44.981   4.508  10.278  0.00  0.00    +0.000 A 
ATOM      6  C   UNL     1      44.826   3.438  11.172  0.00  0.00    +0.000 A 
ATOM      7  C   UNL     1      45.323   3.522  12.477  0.00  0.00    +0.000 A 
BRANCH   5   8
ATOM      8  C   UNL     1      44.397   4.446   8.886  0.00  0.00    +0.000 C 
BRANCH   8   9
ATOM      9  N   UNL     1      44.415   3.080   8.371  0.00  0.00    +0.000 N 
ATOM     10  H   UNL     1      43.643   2.903   7.734  0.00  0.00    +0.000 HD
BRANCH   9  11
ATOM     11  C   UNL     1      45.633   2.571   7.895  0.00  0.00    +0.000 A 
ATOM     12  C   UNL     1      46.061   1.261   8.124  0.00  0.00    +0.000 A 
ATOM     13  C   UNL     1      47.241   0.814   7.545  0.00  0.00    +0.000 A 
ATOM     14  N   UNL     1      48.019   1.568   6.742  0.00  0.00    +0.000 NA
ATOM     15  C   UNL     1      47.574   2.816   6.493  0.00  0.00    +0.000 A 
ATOM     16  C   UNL     1      46.407   3.346   7.021  0.00  0.00    +0.000 A 
ENDBRANCH   9  11
ENDBRANCH   8   9
ENDBRANCH   5   8
ENDBRANCH   1   2
BRANCH   1  19
ATOM     17  O   UNL     1      48.706   5.086  16.123  0.00  0.00    +0.000 OA
ATOM     18  C   UNL     1      48.402   6.017  15.383  0.00  0.00    +0.000 C 
ATOM     19  N   UNL     1      47.360   5.946  14.497  0.00  0.00    +0.000 N 
ATOM     20  H   UNL     1      47.237   6.680  13.810  0.00  0.00    +0.000 HD
BRANCH  18  21
ATOM     21  C   UNL     1      49.118   7.298  15.438  0.00  0.00    +0.000 A 
ATOM     22  C   UNL     1      49.872   7.718  14.350  0.00  0.00    +0.000 A 
ATOM     23  S   UNL     1      50.607   9.241  14.576  0.00  0.00    +0.000 S 
ATOM     24  C   UNL     1      49.916   9.407  16.122  0.00  0.00    +0.000 A 
ATOM     25  N   UNL     1      50.110  10.534  16.859  0.00  0.00    +0.000 NA
ATOM     26  C   UNL     1      49.488  10.545  17.990  0.00  0.00    +0.000 A 
ATOM     27  N   UNL     1      48.707   9.521  18.462  0.00  0.00    +0.000 N 
ATOM     28  C   UNL     1      48.563   8.329  17.796  0.00  0.00    +0.000 A 
ATOM     29  O   UNL     1      48.004   7.373  18.324  0.00  0.00    +0.000 OA
ATOM     30  C   UNL     1      49.174   8.296  16.480  0.00  0.00    +0.000 A 
ATOM     31  H   UNL     1      48.290   9.571  19.379  0.00  0.00    +0.000 HD
ENDBRANCH  18  21
ENDBRANCH   1  19
TORSDOF 6
ENDMDL
MODEL 5
REMARK VINA RESULT:    -7.277      1.473      1.991
REMARK INTER + INTRA:         -10.930
REMARK INTER:                  -9.773
REMARK INTRA:                  -1.157
REMARK UNBOUND:                -1.101
REMARK  Name = 
REMARK  6 active torsions:
REMARK  status: ('A' for Active; 'I' for Inactive)
REMARK    1  A    between atoms: C_2  and  C_19
REMARK    2  A    between atoms: N_3  and  C_4
REMARK    3  A    between atoms: C_4  and  C_5
REMARK    4  A    between atoms: C_8  and  C_9
REMARK    5  A    between atoms: C_9  and  N_10
REMARK    6  A    between atoms: N_10  and  C_11
REMARK                            x       y       z     vdW  Elec       q    Type
REMARK                         _______ _______ _______ _____ _____    ______ ____
ROOT
ATOM      1  C   UNL     1      47.838   8.110  13.679  0.00  0.00    +0.000 C 
ENDROOT
BRANCH   1   2
ATOM      2  C   UNL     1      46.798   7.222  13.045  0.00  0.00    +0.000 A 
ATOM      3  C   UNL     1      45.780   7.777  12.261  0.00  0.00    +0.000 A 
ATOM      4  C   UNL     1      44.830   6.958  11.643  0.00  0.00    +0.000 A 
ATOM      5  C   UNL     1      44.861   5.567  11.817  0.00  0.00    +0.000 A 
ATOM      6  C   UNL     1      45.879   5.012  12.604  0.00  0.00    +0.000 A 
ATOM      7  C   UNL     1      46.829   5.832  13.223  0.00  0.00    +0.000 A 
BRANCH   5   8
ATOM      8  C   UNL     1      43.800   4.692  11.192  0.00  0.00    +0.000 C 
BRANCH   8   9
ATOM      9  N   UNL     1      43.830   4.791   9.736  0.00  0.00    +0.000 N 
ATOM     10  H   UNL     1      43.926   5.752   9.421  0.00  0.00    +0.000 HD
BRANCH   9  11
ATOM     11  C   UNL     1      44.663   3.908   9.032  0.00  0.00    +0.000 A 
ATOM     12  C   UNL     1      45.633   4.329   8.120  0.00  0.00    +0.000 A 
ATOM     13  C   UNL     1      46.472   3.392   7.531  0.00  0.00    +0.000 A 
ATOM     14  N   UNL     1      46.429   2.070   7.794  0.00  0.00    +0.000 NA
ATOM     15  C   UNL     1      45.518   1.681   8.709  0.00  0.00    +0.000 A 
ATOM     16  C   UNL     1      44.643   2.544   9.352  0.00  0.00    +0.000 A 
ENDBRANCH   9  11
ENDBRANCH   8   9
ENDBRANCH   5   8
ENDBRANCH   1   2
BRANCH   1  19
ATOM     17  O   UNL     1      50.418   7.511  14.650  0.00  0.00    +0.000 OA
ATOM     18  C   UNL     1      49.461   7.446  15.417  0.00  0.00    +0.000 C 
ATOM     19  N   UNL     1      48.174   7.686  15.014  0.00  0.00    +0.000 N 
ATOM     20  H   UNL     1      47.439   7.762  15.708  0.00  0.00    +0.000 HD
BRANCH  18  21
ATOM     21  C   UNL     1      49.637   7.055  16.822  0.00  0.00    +0.000 A 
ATOM     22  C   UNL     1      50.266   7.919  17.708  0.00  0.00    +0.000 A 
ATOM     23  S   UNL     1      50.355   7.316  19.302  0.00  0.00    +0.000 S 
ATOM     24  C   UNL     1      49.526   5.894  18.869  0.00  0.00    +0.000 A 
ATOM     25  N   UNL     1      49.222   4.949  19.799  0.00  0.00    +0.000 NA
ATOM     26  C   UNL     1      48.549   3.946  19.341  0.00  0.00    +0.000 A 
ATOM     27  N   UNL     1      48.173   3.792  18.032  0.00  0.00    +0.000 N 
ATOM     28  C   UNL     1      48.543   4.671  17.044  0.00  0.00    +0.000 A 
ATOM     29  O   UNL     1      48.341   4.413  15.861  0.00  0.00    +0.000 OA
ATOM     30  C   UNL     1      49.228   5.858  17.519  0.00  0.00    +0.000 A 
ATOM     31  H   UNL     1      47.693   2.958  17.729  0.00  0.00    +0.000 HD
ENDBRANCH  18  21
ENDBRANCH   1  19
TORSDOF 6
ENDMDL
MODEL 6
REMARK VINA RESULT:    -7.233      2.934      4.595
REMARK INTER + INTRA:         -10.871
REMARK INTER:                  -9.840
REMARK INTRA:                  -1.030
REMARK UNBOUND:                -1.101
REMARK  Name = 
REMARK  6 active torsions:
REMARK  status: ('A' for Active; 'I' for Inactive)
REMARK    1  A    between atoms: C_2  and  C_19
REMARK    2  A    between atoms: N_3  and  C_4
REMARK    3  A    between atoms: C_4  and  C_5
REMARK    4  A    between atoms: C_8  and  C_9
REMARK    5  A    between atoms: C_9  and  N_10
REMARK    6  A    between atoms: N_10  and  C_11
REMARK                            x       y       z     vdW  Elec       q    Type
REMARK                         _______ _______ _______ _____ _____    ______ ____
ROOT
ATOM      1  C   UNL     1      46.807   5.809  14.082  0.00  0.00    +0.000 C 
ENDROOT
BRANCH   1   2
ATOM      2  C   UNL     1      46.148   5.190  12.876  0.00  0.00    +0.000 A 
ATOM      3  C   UNL     1      45.772   3.841  12.893  0.00  0.00    +0.000 A 
ATOM      4  C   UNL     1      45.132   3.267  11.791  0.00  0.00    +0.000 A 
ATOM      5  C   UNL     1      44.876   4.022  10.637  0.00  0.00    +0.000 A 
ATOM      6  C   UNL     1      45.254   5.371  10.620  0.00  0.00    +0.000 A 
ATOM      7  C   UNL     1      45.896   5.945  11.723  0.00  0.00    +0.000 A 
BRANCH   5   8
ATOM      8  C   UNL     1      44.233   3.381   9.429  0.00  0.00    +0.000 C 
BRANCH   8   9
ATOM      9  N   UNL     1      44.907   3.788   8.200  0.00  0.00    +0.000 N 
ATOM     10  H   UNL     1      45.194   4.762   8.228  0.00  0.00    +0.000 HD
BRANCH   9  11
ATOM     11  C   UNL     1      45.905   2.946   7.686  0.00  0.00    +0.000 A 
ATOM     12  C   UNL     1      46.952   3.399   6.880  0.00  0.00    +0.000 A 
ATOM     13  C   UNL     1      47.945   2.513   6.484  0.00  0.00    +0.000 A 
ATOM     14  N   UNL     1      47.983   1.214   6.844  0.00  0.00    +0.000 NA
ATOM     15  C   UNL     1      46.991   0.799   7.657  0.00  0.00    +0.000 A 
ATOM     16  C   UNL     1      45.962   1.611   8.108  0.00  0.00    +0.000 A 
ENDBRANCH   9  11
ENDBRANCH   8   9
ENDBRANCH   5   8
ENDBRANCH   1   2
BRANCH   1  19
ATOM     17  O   UNL     1      49.468   6.647  14.498  0.00  0.00    +0.000 OA
ATOM     18  C   UNL     1      48.667   7.431  13.996  0.00  0.00    +0.000 C 
ATOM     19  N   UNL     1      47.350   7.112  13.796  0.00  0.00    +0.000 N 
ATOM     20  H   UNL     1      46.763   7.733  13.251  0.00  0.00    +0.000 HD
BRANCH  18  21
ATOM     21  C   UNL     1      49.068   8.793  13.621  0.00  0.00    +0.000 A 
ATOM     22  C   UNL     1      48.625   9.876  14.368  0.00  0.00    +0.000 A 
ATOM     23  S   UNL     1      49.212  11.377  13.808  0.00  0.00    +0.000 S 
ATOM     24  C   UNL     1      50.105  10.628  12.569  0.00  0.00    +0.000 A 
ATOM     25  N   UNL     1      50.892  11.358  11.733  0.00  0.00    +0.000 NA
ATOM     26  C   UNL     1      51.551  10.656  10.872  0.00  0.00    +0.000 A 
ATOM     27  N   UNL     1      51.476   9.292  10.756  0.00  0.00    +0.000 N 
ATOM     28  C   UNL     1      50.622   8.527  11.512  0.00  0.00    +0.000 A 
ATOM     29  O   UNL     1      50.450   7.338  11.264  0.00  0.00    +0.000 OA
ATOM     30  C   UNL     1      49.920   9.257  12.552  0.00  0.00    +0.000 A 
ATOM     31  H   UNL     1      51.977   8.808  10.026  0.00  0.00    +0.000 HD
ENDBRANCH  18  21
ENDBRANCH   1  19
TORSDOF 6
ENDMDL
MODEL 7
REMARK VINA RESULT:    -7.015      4.305      8.770
REMARK INTER + INTRA:         -10.577
REMARK INTER:                  -9.703
REMARK INTRA:                  -0.874
REMARK UNBOUND:                -1.101
REMARK  Name = 
REMARK  6 active torsions:
REMARK  status: ('A' for Active; 'I' for Inactive)
REMARK    1  A    between atoms: C_2  and  C_19
REMARK    2  A    between atoms: N_3  and  C_4
REMARK    3  A    between atoms: C_4  and  C_5
REMARK    4  A    between atoms: C_8  and  C_9
REMARK    5  A    between atoms: C_9  and  N_10
REMARK    6  A    between atoms: N_10  and  C_11
REMARK                            x       y       z     vdW  Elec       q    Type
REMARK                         _______ _______ _______ _____ _____    ______ ____
ROOT
ATOM      1  C   UNL     1      47.145   3.554  16.861  0.00  0.00    +0.000 C 
ENDROOT
BRANCH   1   2
ATOM      2  C   UNL     1      48.623   3.630  17.145  0.00  0.00    +0.000 A 
ATOM      3  C   UNL     1      49.385   2.459  17.237  0.00  0.00    +0.000 A 
ATOM      4  C   UNL     1      50.762   2.522  17.469  0.00  0.00    +0.000 A 
ATOM      5  C   UNL     1      51.404   3.756  17.640  0.00  0.00    +0.000 A 
ATOM      6  C   UNL     1      50.641   4.929  17.551  0.00  0.00    +0.000 A 
ATOM      7  C   UNL     1      49.262   4.865  17.320  0.00  0.00    +0.000 A 
BRANCH   5   8
ATOM      8  C   UNL     1      52.883   3.815  17.945  0.00  0.00    +0.000 C 
BRANCH   8   9
ATOM      9  N   UNL     1      53.359   2.542  18.477  0.00  0.00    +0.000 N 
ATOM     10  H   UNL     1      52.625   2.033  18.960  0.00  0.00    +0.000 HD
BRANCH   9  11
ATOM     11  C   UNL     1      54.121   1.719  17.633  0.00  0.00    +0.000 A 
ATOM     12  C   UNL     1      53.886   0.351  17.477  0.00  0.00    +0.000 A 
ATOM     13  C   UNL     1      54.633  -0.372  16.557  0.00  0.00    +0.000 A 
ATOM     14  N   UNL     1      55.587   0.167  15.770  0.00  0.00    +0.000 NA
ATOM     15  C   UNL     1      55.775   1.496  15.899  0.00  0.00    +0.000 A 
ATOM     16  C   UNL     1      55.073   2.300  16.785  0.00  0.00    +0.000 A 
ENDBRANCH   9  11
ENDBRANCH   8   9
ENDBRANCH   5   8
ENDBRANCH   1   2
BRANCH   1  19
ATOM     17  O   UNL     1      47.165   3.170  14.067  0.00  0.00    +0.000 OA
ATOM     18  C   UNL     1      46.742   4.229  14.521  0.00  0.00    +0.000 C 
ATOM     19  N   UNL     1      46.733   4.507  15.862  0.00  0.00    +0.000 N 
ATOM     20  H   UNL     1      46.246   5.329  16.199  0.00  0.00    +0.000 HD
BRANCH  18  21
ATOM     21  C   UNL     1      46.258   5.297  13.636  0.00  0.00    +0.000 A 
ATOM     22  C   UNL     1      47.078   6.379  13.344  0.00  0.00    +0.000 A 
ATOM     23  S   UNL     1      46.367   7.506  12.278  0.00  0.00    +0.000 S 
ATOM     24  C   UNL     1      44.953   6.570  12.144  0.00  0.00    +0.000 A 
ATOM     25  N   UNL     1      43.935   6.951  11.325  0.00  0.00    +0.000 NA
ATOM     26  C   UNL     1      42.945   6.122  11.283  0.00  0.00    +0.000 A 
ATOM     27  N   UNL     1      42.871   4.958  12.003  0.00  0.00    +0.000 N 
ATOM     28  C   UNL     1      43.829   4.584  12.913  0.00  0.00    +0.000 A 
ATOM     29  O   UNL     1      43.649   3.632  13.666  0.00  0.00    +0.000 OA
ATOM     30  C   UNL     1      45.002   5.438  12.938  0.00  0.00    +0.000 A 
ATOM     31  H   UNL     1      42.045   4.380  11.965  0.00  0.00    +0.000 HD
ENDBRANCH  18  21
ENDBRANCH   1  19
TORSDOF 6
ENDMDL
MODEL 8
REMARK VINA RESULT:    -6.936      3.550      7.769
REMARK INTER + INTRA:         -10.470
REMARK INTER:                  -9.272
REMARK INTRA:                  -1.198
REMARK UNBOUND:                -1.101
REMARK  Name = 
REMARK  6 active torsions:
REMARK  status: ('A' for Active; 'I' for Inactive)
REMARK    1  A    between atoms: C_2  and  C_19
REMARK    2  A    between atoms: N_3  and  C_4
REMARK    3  A    between atoms: C_4  and  C_5
REMARK    4  A    between atoms: C_8  and  C_9
REMARK    5  A    between atoms: C_9  and  N_10
REMARK    6  A    between atoms: N_10  and  C_11
REMARK                            x       y       z     vdW  Elec       q    Type
REMARK                         _______ _______ _______ _____ _____    ______ ____
ROOT
ATOM      1  C   UNL     1      49.257   8.537  14.452  0.00  0.00    +0.000 C 
ENDROOT
BRANCH   1   2
ATOM      2  C   UNL     1      49.646   7.760  15.683  0.00  0.00    +0.000 A 
ATOM      3  C   UNL     1      48.807   7.748  16.804  0.00  0.00    +0.000 A 
ATOM      4  C   UNL     1      49.145   7.004  17.938  0.00  0.00    +0.000 A 
ATOM      5  C   UNL     1      50.342   6.276  17.987  0.00  0.00    +0.000 A 
ATOM      6  C   UNL     1      51.183   6.290  16.866  0.00  0.00    +0.000 A 
ATOM      7  C   UNL     1      50.845   7.035  15.731  0.00  0.00    +0.000 A 
BRANCH   5   8
ATOM      8  C   UNL     1      50.728   5.519  19.237  0.00  0.00    +0.000 C 
BRANCH   8   9
ATOM      9  N   UNL     1      49.831   4.390  19.463  0.00  0.00    +0.000 N 
ATOM     10  H   UNL     1      48.953   4.680  19.885  0.00  0.00    +0.000 HD
BRANCH   9  11
ATOM     11  C   UNL     1      49.649   3.472  18.417  0.00  0.00    +0.000 A 
ATOM     12  C   UNL     1      48.439   3.313  17.737  0.00  0.00    +0.000 A 
ATOM     13  C   UNL     1      48.370   2.442  16.658  0.00  0.00    +0.000 A 
ATOM     14  N   UNL     1      49.417   1.730  16.195  0.00  0.00    +0.000 NA
ATOM     15  C   UNL     1      50.589   1.925  16.833  0.00  0.00    +0.000 A 
ATOM     16  C   UNL     1      50.756   2.777  17.913  0.00  0.00    +0.000 A 
ENDBRANCH   9  11
ENDBRANCH   8   9
ENDBRANCH   5   8
ENDBRANCH   1   2
BRANCH   1  19
ATOM     17  O   UNL     1      48.965   6.292  12.769  0.00  0.00    +0.000 OA
ATOM     18  C   UNL     1      47.968   6.934  13.087  0.00  0.00    +0.000 C 
ATOM     19  N   UNL     1      48.030   8.056  13.870  0.00  0.00    +0.000 N 
ATOM     20  H   UNL     1      47.174   8.468  14.223  0.00  0.00    +0.000 HD
BRANCH  18  21
ATOM     21  C   UNL     1      46.634   6.559  12.600  0.00  0.00    +0.000 A 
ATOM     22  C   UNL     1      45.821   7.513  12.003  0.00  0.00    +0.000 A 
ATOM     23  S   UNL     1      44.322   6.895  11.470  0.00  0.00    +0.000 S 
ATOM     24  C   UNL     1      44.722   5.325  11.988  0.00  0.00    +0.000 A 
ATOM     25  N   UNL     1      43.874   4.282  11.782  0.00  0.00    +0.000 NA
ATOM     26  C   UNL     1      44.326   3.140  12.181  0.00  0.00    +0.000 A 
ATOM     27  N   UNL     1      45.540   2.950  12.788  0.00  0.00    +0.000 N 
ATOM     28  C   UNL     1      46.384   3.987  13.103  0.00  0.00    +0.000 A 
ATOM     29  O   UNL     1      47.377   3.804  13.800  0.00  0.00    +0.000 OA
ATOM     30  C   UNL     1      45.961   5.281  12.602  0.00  0.00    +0.000 A 
ATOM     31  H   UNL     1      45.812   2.038  13.124  0.00  0.00    +0.000 HD
ENDBRANCH  18  21
ENDBRANCH   1  19
TORSDOF 6
ENDMDL
MODEL 9
REMARK VINA RESULT:    -6.664      4.605      7.285
REMARK INTER + INTRA:         -10.102
REMARK INTER:                  -9.141
REMARK INTRA:                  -0.961
REMARK UNBOUND:                -1.101
REMARK  Name = 
REMARK  6 active torsions:
REMARK  status: ('A' for Active; 'I' for Inactive)
REMARK    1  A    between atoms: C_2  and  C_19
REMARK    2  A    between atoms: N_3  and  C_4
REMARK    3  A    between atoms: C_4  and  C_5
REMARK    4  A    between atoms: C_8  and  C_9
REMARK    5  A    between atoms: C_9  and  N_10
REMARK    6  A    between atoms: N_10  and  C_11
REMARK                            x       y       z     vdW  Elec       q    Type
REMARK                         _______ _______ _______ _____ _____    ______ ____
ROOT
ATOM      1  C   UNL     1      46.650   8.395  12.681  0.00  0.00    +0.000 C 
ENDROOT
BRANCH   1   2
ATOM      2  C   UNL     1      48.080   8.476  12.210  0.00  0.00    +0.000 A 
ATOM      3  C   UNL     1      48.604   9.691  11.753  0.00  0.00    +0.000 A 
ATOM      4  C   UNL     1      49.938   9.782  11.344  0.00  0.00    +0.000 A 
ATOM      5  C   UNL     1      50.770   8.654  11.358  0.00  0.00    +0.000 A 
ATOM      6  C   UNL     1      50.244   7.437  11.813  0.00  0.00    +0.000 A 
ATOM      7  C   UNL     1      48.909   7.346  12.221  0.00  0.00    +0.000 A 
BRANCH   5   8
ATOM      8  C   UNL     1      52.195   8.746  10.862  0.00  0.00    +0.000 C 
BRANCH   8   9
ATOM      9  N   UNL     1      52.858   7.448  10.932  0.00  0.00    +0.000 N 
ATOM     10  H   UNL     1      52.410   6.826  11.599  0.00  0.00    +0.000 HD
BRANCH   9  11
ATOM     11  C   UNL     1      53.176   6.804   9.726  0.00  0.00    +0.000 A 
ATOM     12  C   UNL     1      54.129   5.788   9.625  0.00  0.00    +0.000 A 
ATOM     13  C   UNL     1      54.321   5.147   8.409  0.00  0.00    +0.000 A 
ATOM     14  N   UNL     1      53.624   5.429   7.289  0.00  0.00    +0.000 NA
ATOM     15  C   UNL     1      52.677   6.381   7.410  0.00  0.00    +0.000 A 
ATOM     16  C   UNL     1      52.410   7.070   8.583  0.00  0.00    +0.000 A 
ENDBRANCH   9  11
ENDBRANCH   8   9
ENDBRANCH   5   8
ENDBRANCH   1   2
BRANCH   1  19
ATOM     17  O   UNL     1      44.482   7.723  11.007  0.00  0.00    +0.000 OA
ATOM     18  C   UNL     1      45.052   6.833  11.631  0.00  0.00    +0.000 C 
ATOM     19  N   UNL     1      46.088   7.082  12.492  0.00  0.00    +0.000 N 
ATOM     20  H   UNL     1      46.619   6.308  12.873  0.00  0.00    +0.000 HD
BRANCH  18  21
ATOM     21  C   UNL     1      44.620   5.433  11.528  0.00  0.00    +0.000 A 
ATOM     22  C   UNL     1      43.917   4.847  12.571  0.00  0.00    +0.000 A 
ATOM     23  S   UNL     1      43.468   3.229  12.268  0.00  0.00    +0.000 S 
ATOM     24  C   UNL     1      44.168   3.267  10.718  0.00  0.00    +0.000 A 
ATOM     25  N   UNL     1      44.092   2.192   9.888  0.00  0.00    +0.000 NA
ATOM     26  C   UNL     1      44.623   2.378   8.725  0.00  0.00    +0.000 A 
ATOM     27  N   UNL     1      45.243   3.533   8.326  0.00  0.00    +0.000 N 
ATOM     28  C   UNL     1      45.428   4.605   9.163  0.00  0.00    +0.000 A 
ATOM     29  O   UNL     1      46.138   5.550   8.833  0.00  0.00    +0.000 OA
ATOM     30  C   UNL     1      44.777   4.481  10.454  0.00  0.00    +0.000 A 
ATOM     31  H   UNL     1      45.685   3.595   7.420  0.00  0.00    +0.000 HD
ENDBRANCH  18  21
ENDBRANCH   1  19
TORSDOF 6
ENDMDL
