MODEL 1
REMARK VINA RESULT:    -7.780      0.000      0.000
REMARK INTER + INTRA:         -11.493
REMARK INTER:                 -10.509
REMARK INTRA:                  -0.984
REMARK UNBOUND:                -0.984
REMARK  Name = 
REMARK  7 active torsions:
REMARK  status: ('A' for Active; 'I' for Inactive)
REMARK    1  A    between atoms: C_1  and  O_2
REMARK    2  A    between atoms: O_2  and  C_3
REMARK    3  A    between atoms: C_5  and  O_6
REMARK    4  A    between atoms: O_6  and  C_7
REMARK    5  A    between atoms: C_10  and  C_11
REMARK    6  A    between atoms: C_11  and  N_12
REMARK    7  A    between atoms: C_13  and  C_15
REMARK                            x       y       z     vdW  Elec       q    Type
REMARK                         _______ _______ _______ _____ _____    ______ ____
ROOT
ATOM      1  C   UNL     1      47.412   8.347  13.606  0.00  0.00    +0.000 C 
ENDROOT
BRANCH   1   5
ATOM      2  C   UNL     1      44.733   5.766  11.421  0.00  0.00    +0.000 A 
ATOM      3  C   UNL     1      44.516   7.144  11.439  0.00  0.00    +0.000 A 
ATOM      4  C   UNL     1      45.387   7.982  12.140  0.00  0.00    +0.000 A 
ATOM      5  C   UNL     1      46.456   7.446  12.871  0.00  0.00    +0.000 A 
ATOM      6  C   UNL     1      46.587   6.053  12.950  0.00  0.00    +0.000 A 
ATOM      7  C   UNL     1      45.736   5.218  12.222  0.00  0.00    +0.000 A 
BRANCH   2   8
ATOM      8  O   UNL     1      43.978   4.866  10.701  0.00  0.00    +0.000 OA
BRANCH   8  11
ATOM      9  C   UNL     1      45.842   3.544   7.815  0.00  0.00    +0.000 A 
ATOM     10  C   UNL     1      45.355   4.492   8.699  0.00  0.00    +0.000 A 
ATOM     11  C   UNL     1      44.574   4.051   9.765  0.00  0.00    +0.000 A 
ATOM     12  C   UNL     1      44.400   2.684   9.961  0.00  0.00    +0.000 A 
ATOM     13  C   UNL     1      44.962   1.815   9.044  0.00  0.00    +0.000 A 
ATOM     14  N   UNL     1      45.664   2.215   7.964  0.00  0.00    +0.000 NA
BRANCH   9  16
ATOM     15  C   UNL     1      46.905   3.000   5.805  0.00  0.00    +0.000 C 
ATOM     16  O   UNL     1      46.511   4.028   6.708  0.00  0.00    +0.000 OA
ENDBRANCH   9  16
ENDBRANCH   8  11
ENDBRANCH   2   8
ENDBRANCH   1   5
BRANCH   1  17
ATOM     17  N   UNL     1      47.734   7.801  14.895  0.00  0.00    +0.000 N 
ATOM     18  C   UNL     1      48.891   7.105  15.115  0.00  0.00    +0.000 C 
ATOM     19  O   UNL     1      49.738   6.945  14.241  0.00  0.00    +0.000 OA
ATOM     20  H   UNL     1      46.962   7.705  15.548  0.00  0.00    +0.000 HD
BRANCH  18  21
ATOM     21  C   UNL     1      49.096   6.620  16.485  0.00  0.00    +0.000 A 
ATOM     22  C   UNL     1      49.708   7.436  17.427  0.00  0.00    +0.000 A 
ATOM     23  S   UNL     1      49.770   6.751  18.987  0.00  0.00    +0.000 S 
ATOM     24  C   UNL     1      49.036   5.314  18.446  0.00  0.00    +0.000 A 
ATOM     25  N   UNL     1      48.796   4.283  19.302  0.00  0.00    +0.000 NA
ATOM     26  C   UNL     1      48.263   3.244  18.749  0.00  0.00    +0.000 A 
ATOM     27  N   UNL     1      47.952   3.140  17.418  0.00  0.00    +0.000 N 
ATOM     28  C   UNL     1      48.159   4.159  16.525  0.00  0.00    +0.000 A 
ATOM     29  O   UNL     1      47.851   4.041  15.343  0.00  0.00    +0.000 OA
ATOM     30  C   UNL     1      48.748   5.357  17.096  0.00  0.00    +0.000 A 
ATOM     31  H   UNL     1      47.541   2.297  17.045  0.00  0.00    +0.000 HD
ENDBRANCH  18  21
ENDBRANCH   1  17
TORSDOF 6
ENDMDL
MODEL 2
REMARK VINA RESULT:    -7.352      1.512      2.009
REMARK INTER + INTRA:         -10.916
REMARK INTER:                  -9.552
REMARK INTRA:                  -1.364
REMARK UNBOUND:                -0.984
REMARK  Name = 
REMARK  7 active torsions:
REMARK  status: ('A' for Active; 'I' for Inactive)
REMARK    1  A    between atoms: C_1  and  O_2
REMARK    2  A    between atoms: O_2  and  C_3
REMARK    3  A    between atoms: C_5  and  O_6
REMARK    4  A    between atoms: O_6  and  C_7
REMARK    5  A    between atoms: C_10  and  C_11
REMARK    6  A    between atoms: C_11  and  N_12
REMARK    7  A    between atoms: C_13  and  C_15
REMARK                            x       y       z     vdW  Elec       q    Type
REMARK                         _______ _______ _______ _____ _____    ______ ____
ROOT
ATOM      1  C   UNL     1      48.082   8.743  14.578  0.00  0.00    +0.000 C 
ENDROOT
BRANCH   1   5
ATOM      2  C   UNL     1      45.733   7.036  11.387  0.00  0.00    +0.000 A 
ATOM      3  C   UNL     1      47.042   6.602  11.602  0.00  0.00    +0.000 A 
ATOM      4  C   UNL     1      47.801   7.148  12.640  0.00  0.00    +0.000 A 
ATOM      5  C   UNL     1      47.277   8.170  13.442  0.00  0.00    +0.000 A 
ATOM      6  C   UNL     1      46.011   8.688  13.135  0.00  0.00    +0.000 A 
ATOM      7  C   UNL     1      45.241   8.118  12.119  0.00  0.00    +0.000 A 
BRANCH   2   8
ATOM      8  O   UNL     1      44.881   6.510  10.442  0.00  0.00    +0.000 OA
BRANCH   8  11
ATOM      9  C   UNL     1      44.405   2.906   9.867  0.00  0.00    +0.000 A 
ATOM     10  C   UNL     1      44.941   4.170   9.691  0.00  0.00    +0.000 A 
ATOM     11  C   UNL     1      44.485   5.193  10.519  0.00  0.00    +0.000 A 
ATOM     12  C   UNL     1      43.599   4.891  11.549  0.00  0.00    +0.000 A 
ATOM     13  C   UNL     1      43.153   3.588  11.667  0.00  0.00    +0.000 A 
ATOM     14  N   UNL     1      43.522   2.591  10.838  0.00  0.00    +0.000 NA
BRANCH   9  16
ATOM     15  C   UNL     1      45.950   2.317   8.214  0.00  0.00    +0.000 C 
ATOM     16  O   UNL     1      44.792   1.945   8.953  0.00  0.00    +0.000 OA
ENDBRANCH   9  16
ENDBRANCH   8  11
ENDBRANCH   2   8
ENDBRANCH   1   5
BRANCH   1  17
ATOM     17  N   UNL     1      48.309   7.749  15.591  0.00  0.00    +0.000 N 
ATOM     18  C   UNL     1      49.502   7.088  15.698  0.00  0.00    +0.000 C 
ATOM     19  O   UNL     1      50.458   7.334  14.967  0.00  0.00    +0.000 OA
ATOM     20  H   UNL     1      47.482   7.361  16.032  0.00  0.00    +0.000 HD
BRANCH  18  21
ATOM     21  C   UNL     1      49.598   6.112  16.790  0.00  0.00    +0.000 A 
ATOM     22  C   UNL     1      50.587   6.245  17.755  0.00  0.00    +0.000 A 
ATOM     23  S   UNL     1      50.484   5.085  19.001  0.00  0.00    +0.000 S 
ATOM     24  C   UNL     1      49.150   4.328  18.264  0.00  0.00    +0.000 A 
ATOM     25  N   UNL     1      48.562   3.237  18.827  0.00  0.00    +0.000 NA
ATOM     26  C   UNL     1      47.582   2.747  18.143  0.00  0.00    +0.000 A 
ATOM     27  N   UNL     1      47.138   3.246  16.946  0.00  0.00    +0.000 N 
ATOM     28  C   UNL     1      47.688   4.353  16.353  0.00  0.00    +0.000 A 
ATOM     29  O   UNL     1      47.253   4.786  15.290  0.00  0.00    +0.000 OA
ATOM     30  C   UNL     1      48.790   4.950  17.085  0.00  0.00    +0.000 A 
ATOM     31  H   UNL     1      46.368   2.815  16.457  0.00  0.00    +0.000 HD
ENDBRANCH  18  21
ENDBRANCH   1  17
TORSDOF 6
ENDMDL
MODEL 3
REMARK VINA RESULT:    -7.316      2.130      2.891
REMARK INTER + INTRA:         -10.867
REMARK INTER:                  -9.827
REMARK INTRA:                  -1.039
REMARK UNBOUND:                -0.984
REMARK  Name = 
REMARK  7 active torsions:
REMARK  status: ('A' for Active; 'I' for Inactive)
REMARK    1  A    between atoms: C_1  and  O_2
REMARK    2  A    between atoms: O_2  and  C_3
REMARK    3  A    between atoms: C_5  and  O_6
REMARK    4  A    between atoms: O_6  and  C_7
REMARK    5  A    between atoms: C_10  and  C_11
REMARK    6  A    between atoms: C_11  and  N_12
REMARK    7  A    between atoms: C_13  and  C_15
REMARK                            x       y       z     vdW  Elec       q    Type
REMARK                         _______ _______ _______ _____ _____    ______ ____
ROOT
ATOM      1  C   UNL     1      48.691   6.941  14.340  0.00  0.00    +0.000 C 
ENDROOT
BRANCH   1   5
ATOM      2  C   UNL     1      45.467   5.688  11.761  0.00  0.00    +0.000 A 
ATOM      3  C   UNL     1      45.929   7.004  11.714  0.00  0.00    +0.000 A 
ATOM      4  C   UNL     1      46.978   7.409  12.543  0.00  0.00    +0.000 A 
ATOM      5  C   UNL     1      47.543   6.516  13.463  0.00  0.00    +0.000 A 
ATOM      6  C   UNL     1      46.985   5.237  13.592  0.00  0.00    +0.000 A 
ATOM      7  C   UNL     1      45.958   4.823  12.739  0.00  0.00    +0.000 A 
BRANCH   2   8
ATOM      8  O   UNL     1      44.492   5.173  10.935  0.00  0.00    +0.000 OA
BRANCH   8  11
ATOM      9  C   UNL     1      45.798   3.640   7.855  0.00  0.00    +0.000 A 
ATOM     10  C   UNL     1      45.593   4.624   8.807  0.00  0.00    +0.000 A 
ATOM     11  C   UNL     1      44.827   4.299   9.925  0.00  0.00    +0.000 A 
ATOM     12  C   UNL     1      44.391   2.989  10.094  0.00  0.00    +0.000 A 
ATOM     13  C   UNL     1      44.683   2.069   9.104  0.00  0.00    +0.000 A 
ATOM     14  N   UNL     1      45.362   2.369   7.979  0.00  0.00    +0.000 NA
BRANCH   9  16
ATOM     15  C   UNL     1      46.928   2.929   5.935  0.00  0.00    +0.000 C 
ATOM     16  O   UNL     1      46.460   4.030   6.706  0.00  0.00    +0.000 OA
ENDBRANCH   9  16
ENDBRANCH   8  11
ENDBRANCH   2   8
ENDBRANCH   1   5
BRANCH   1  17
ATOM     17  N   UNL     1      48.278   7.016  15.714  0.00  0.00    +0.000 N 
ATOM     18  C   UNL     1      48.980   6.399  16.713  0.00  0.00    +0.000 C 
ATOM     19  O   UNL     1      50.023   5.786  16.501  0.00  0.00    +0.000 OA
ATOM     20  H   UNL     1      47.316   7.295  15.880  0.00  0.00    +0.000 HD
BRANCH  18  21
ATOM     21  C   UNL     1      48.452   6.575  18.071  0.00  0.00    +0.000 A 
ATOM     22  C   UNL     1      48.348   5.483  18.922  0.00  0.00    +0.000 A 
ATOM     23  S   UNL     1      47.813   5.890  20.490  0.00  0.00    +0.000 S 
ATOM     24  C   UNL     1      47.644   7.530  20.069  0.00  0.00    +0.000 A 
ATOM     25  N   UNL     1      47.209   8.446  20.976  0.00  0.00    +0.000 NA
ATOM     26  C   UNL     1      47.098   9.647  20.511  0.00  0.00    +0.000 A 
ATOM     27  N   UNL     1      47.380  10.013  19.220  0.00  0.00    +0.000 N 
ATOM     28  C   UNL     1      47.838   9.128  18.280  0.00  0.00    +0.000 A 
ATOM     29  O   UNL     1      48.100   9.492  17.137  0.00  0.00    +0.000 OA
ATOM     30  C   UNL     1      47.990   7.764  18.752  0.00  0.00    +0.000 A 
ATOM     31  H   UNL     1      47.268  10.968  18.916  0.00  0.00    +0.000 HD
ENDBRANCH  18  21
ENDBRANCH   1  17
TORSDOF 6
ENDMDL
MODEL 4
REMARK VINA RESULT:    -7.155      4.398      9.727
REMARK INTER + INTRA:         -10.650
REMARK INTER:                  -9.713
REMARK INTRA:                  -0.937
REMARK UNBOUND:                -0.984
REMARK  Name = 
REMARK  7 active torsions:
REMARK  status: ('A' for Active; 'I' for Inactive)
REMARK    1  A    between atoms: C_1  and  O_2
REMARK    2  A    between atoms: O_2  and  C_3
REMARK    3  A    between atoms: C_5  and  O_6
REMARK    4  A    between atoms: O_6  and  C_7
REMARK    5  A    between atoms: C_10  and  C_11
REMARK    6  A    between atoms: C_11  and  N_12
REMARK    7  A    between atoms: C_13  and  C_15
REMARK                            x       y       z     vdW  Elec       q    Type
REMARK                         _______ _______ _______ _____ _____    ______ ____
ROOT
ATOM      1  C   UNL     1      47.152   3.384  16.812  0.00  0.00    +0.000 C 
ENDROOT
BRANCH   1   5
ATOM      2  C   UNL     1      51.380   3.784  17.570  0.00  0.00    +0.000 A 
ATOM      3  C   UNL     1      50.814   2.518  17.413  0.00  0.00    +0.000 A 
ATOM      4  C   UNL     1      49.447   2.387  17.160  0.00  0.00    +0.000 A 
ATOM      5  C   UNL     1      48.621   3.518  17.110  0.00  0.00    +0.000 A 
ATOM      6  C   UNL     1      49.177   4.773  17.397  0.00  0.00    +0.000 A 
ATOM      7  C   UNL     1      50.550   4.905  17.617  0.00  0.00    +0.000 A 
BRANCH   2   8
ATOM      8  O   UNL     1      52.725   4.022  17.747  0.00  0.00    +0.000 OA
BRANCH   8  11
ATOM      9  C   UNL     1      54.808   1.412  19.295  0.00  0.00    +0.000 A 
ATOM     10  C   UNL     1      54.162   2.101  18.283  0.00  0.00    +0.000 A 
ATOM     11  C   UNL     1      53.457   3.252  18.625  0.00  0.00    +0.000 A 
ATOM     12  C   UNL     1      53.512   3.721  19.933  0.00  0.00    +0.000 A 
ATOM     13  C   UNL     1      54.219   2.982  20.864  0.00  0.00    +0.000 A 
ATOM     14  N   UNL     1      54.854   1.827  20.578  0.00  0.00    +0.000 NA
BRANCH   9  16
ATOM     15  C   UNL     1      54.447  -0.798  18.619  0.00  0.00    +0.000 C 
ATOM     16  O   UNL     1      55.397   0.213  18.940  0.00  0.00    +0.000 OA
ENDBRANCH   9  16
ENDBRANCH   8  11
ENDBRANCH   2   8
ENDBRANCH   1   5
BRANCH   1  17
ATOM     17  N   UNL     1      46.736   4.373  15.855  0.00  0.00    +0.000 N 
ATOM     18  C   UNL     1      46.829   4.157  14.507  0.00  0.00    +0.000 C 
ATOM     19  O   UNL     1      47.230   3.095  14.038  0.00  0.00    +0.000 OA
ATOM     20  H   UNL     1      46.640   5.321  16.203  0.00  0.00    +0.000 HD
BRANCH  18  21
ATOM     21  C   UNL     1      46.352   5.247  13.649  0.00  0.00    +0.000 A 
ATOM     22  C   UNL     1      47.154   6.359  13.427  0.00  0.00    +0.000 A 
ATOM     23  S   UNL     1      46.484   7.474  12.326  0.00  0.00    +0.000 S 
ATOM     24  C   UNL     1      45.071   6.541  12.152  0.00  0.00    +0.000 A 
ATOM     25  N   UNL     1      44.061   6.942  11.334  0.00  0.00    +0.000 NA
ATOM     26  C   UNL     1      43.037   6.154  11.323  0.00  0.00    +0.000 A 
ATOM     27  N   UNL     1      42.931   5.002  12.059  0.00  0.00    +0.000 N 
ATOM     28  C   UNL     1      43.931   4.551  12.881  0.00  0.00    +0.000 A 
ATOM     29  O   UNL     1      43.812   3.505  13.511  0.00  0.00    +0.000 OA
ATOM     30  C   UNL     1      45.111   5.396  12.923  0.00  0.00    +0.000 A 
ATOM     31  H   UNL     1      42.102   4.430  12.011  0.00  0.00    +0.000 HD
ENDBRANCH  18  21
ENDBRANCH   1  17
TORSDOF 6
ENDMDL
MODEL 5
REMARK VINA RESULT:    -7.011      3.240      4.546
REMARK INTER + INTRA:         -10.455
REMARK INTER:                  -9.369
REMARK INTRA:                  -1.085
REMARK UNBOUND:                -0.984
REMARK  Name = 
REMARK  7 active torsions:
REMARK  status: ('A' for Active; 'I' for Inactive)
REMARK    1  A    between atoms: C_1  and  O_2
REMARK    2  A    between atoms: O_2  and  C_3
REMARK    3  A    between atoms: C_5  and  O_6
REMARK    4  A    between atoms: O_6  and  C_7
REMARK    5  A    between atoms: C_10  and  C_11
REMARK    6  A    between atoms: C_11  and  N_12
REMARK    7  A    between atoms: C_13  and  C_15
REMARK                            x       y       z     vdW  Elec       q    Type
REMARK                         _______ _______ _______ _____ _____    ______ ____
ROOT
ATOM      1  C   UNL     1      48.470   5.372  18.105  0.00  0.00    +0.000 C 
ENDROOT
BRANCH   1   5
ATOM      2  C   UNL     1      47.222   5.239  13.977  0.00  0.00    +0.000 A 
ATOM      3  C   UNL     1      46.923   4.178  14.833  0.00  0.00    +0.000 A 
ATOM      4  C   UNL     1      47.320   4.223  16.172  0.00  0.00    +0.000 A 
ATOM      5  C   UNL     1      48.063   5.307  16.657  0.00  0.00    +0.000 A 
ATOM      6  C   UNL     1      48.468   6.303  15.758  0.00  0.00    +0.000 A 
ATOM      7  C   UNL     1      48.042   6.274  14.428  0.00  0.00    +0.000 A 
BRANCH   2   8
ATOM      8  O   UNL     1      46.812   5.323  12.665  0.00  0.00    +0.000 OA
BRANCH   8  11
ATOM      9  C   UNL     1      43.978   3.484  11.204  0.00  0.00    +0.000 A 
ATOM     10  C   UNL     1      45.297   3.758  11.527  0.00  0.00    +0.000 A 
ATOM     11  C   UNL     1      45.558   4.887  12.299  0.00  0.00    +0.000 A 
ATOM     12  C   UNL     1      44.494   5.630  12.801  0.00  0.00    +0.000 A 
ATOM     13  C   UNL     1      43.210   5.251  12.455  0.00  0.00    +0.000 A 
ATOM     14  N   UNL     1      42.928   4.204  11.652  0.00  0.00    +0.000 NA
BRANCH   9  16
ATOM     15  C   UNL     1      44.658   2.432   9.230  0.00  0.00    +0.000 C 
ATOM     16  O   UNL     1      43.767   2.427  10.340  0.00  0.00    +0.000 OA
ENDBRANCH   9  16
ENDBRANCH   8  11
ENDBRANCH   2   8
ENDBRANCH   1   5
BRANCH   1  17
ATOM     17  N   UNL     1      49.656   4.592  18.333  0.00  0.00    +0.000 N 
ATOM     18  C   UNL     1      50.905   5.147  18.282  0.00  0.00    +0.000 C 
ATOM     19  O   UNL     1      51.084   6.346  18.081  0.00  0.00    +0.000 OA
ATOM     20  H   UNL     1      49.554   3.585  18.255  0.00  0.00    +0.000 HD
BRANCH  18  21
ATOM     21  C   UNL     1      52.023   4.236  18.553  0.00  0.00    +0.000 A 
ATOM     22  C   UNL     1      53.110   4.673  19.298  0.00  0.00    +0.000 A 
ATOM     23  S   UNL     1      54.263   3.454  19.602  0.00  0.00    +0.000 S 
ATOM     24  C   UNL     1      53.380   2.314  18.696  0.00  0.00    +0.000 A 
ATOM     25  N   UNL     1      53.827   1.038  18.548  0.00  0.00    +0.000 NA
ATOM     26  C   UNL     1      53.074   0.291  17.810  0.00  0.00    +0.000 A 
ATOM     27  N   UNL     1      51.916   0.706  17.205  0.00  0.00    +0.000 N 
ATOM     28  C   UNL     1      51.420   1.976  17.343  0.00  0.00    +0.000 A 
ATOM     29  O   UNL     1      50.369   2.311  16.803  0.00  0.00    +0.000 OA
ATOM     30  C   UNL     1      52.224   2.856  18.171  0.00  0.00    +0.000 A 
ATOM     31  H   UNL     1      51.373   0.075  16.635  0.00  0.00    +0.000 HD
ENDBRANCH  18  21
ENDBRANCH   1  17
TORSDOF 6
ENDMDL
MODEL 6
REMARK VINA RESULT:    -6.802      3.941      8.811
REMARK INTER + INTRA:         -10.173
REMARK INTER:                  -9.087
REMARK INTRA:                  -1.086
REMARK UNBOUND:                -0.984
REMARK  Name = 
REMARK  7 active torsions:
REMARK  status: ('A' for Active; 'I' for Inactive)
REMARK    1  A    between atoms: C_1  and  O_2
REMARK    2  A    between atoms: O_2  and  C_3
REMARK    3  A    between atoms: C_5  and  O_6
REMARK    4  A    between atoms: O_6  and  C_7
REMARK    5  A    between atoms: C_10  and  C_11
REMARK    6  A    between atoms: C_11  and  N_12
REMARK    7  A    between atoms: C_13  and  C_15
REMARK                            x       y       z     vdW  Elec       q    Type
REMARK                         _______ _______ _______ _____ _____    ______ ____
ROOT
ATOM      1  C   UNL     1      47.307   3.444  16.660  0.00  0.00    +0.000 C 
ENDROOT
BRANCH   1   5
ATOM      2  C   UNL     1      51.251   4.650  17.928  0.00  0.00    +0.000 A 
ATOM      3  C   UNL     1      50.987   3.310  17.643  0.00  0.00    +0.000 A 
ATOM      4  C   UNL     1      49.712   2.918  17.225  0.00  0.00    +0.000 A 
ATOM      5  C   UNL     1      48.675   3.856  17.135  0.00  0.00    +0.000 A 
ATOM      6  C   UNL     1      48.918   5.174  17.547  0.00  0.00    +0.000 A 
ATOM      7  C   UNL     1      50.201   5.569  17.933  0.00  0.00    +0.000 A 
BRANCH   2   8
ATOM      8  O   UNL     1      52.488   5.145  18.274  0.00  0.00    +0.000 OA
BRANCH   8  11
ATOM      9  C   UNL     1      54.455   6.285  15.378  0.00  0.00    +0.000 A 
ATOM     10  C   UNL     1      53.418   6.271  16.297  0.00  0.00    +0.000 A 
ATOM     11  C   UNL     1      53.460   5.321  17.313  0.00  0.00    +0.000 A 
ATOM     12  C   UNL     1      54.576   4.499  17.432  0.00  0.00    +0.000 A 
ATOM     13  C   UNL     1      55.579   4.617  16.487  0.00  0.00    +0.000 A 
ATOM     14  N   UNL     1      55.535   5.479  15.451  0.00  0.00    +0.000 NA
BRANCH   9  16
ATOM     15  C   UNL     1      53.396   8.211  14.580  0.00  0.00    +0.000 C 
ATOM     16  O   UNL     1      54.321   7.160  14.318  0.00  0.00    +0.000 OA
ENDBRANCH   9  16
ENDBRANCH   8  11
ENDBRANCH   2   8
ENDBRANCH   1   5
BRANCH   1  17
ATOM     17  N   UNL     1      46.779   4.410  15.735  0.00  0.00    +0.000 N 
ATOM     18  C   UNL     1      46.791   4.197  14.384  0.00  0.00    +0.000 C 
ATOM     19  O   UNL     1      47.211   3.156  13.887  0.00  0.00    +0.000 OA
ATOM     20  H   UNL     1      46.660   5.354  16.091  0.00  0.00    +0.000 HD
BRANCH  18  21
ATOM     21  C   UNL     1      46.203   5.261  13.562  0.00  0.00    +0.000 A 
ATOM     22  C   UNL     1      46.910   6.435  13.337  0.00  0.00    +0.000 A 
ATOM     23  S   UNL     1      46.120   7.513  12.278  0.00  0.00    +0.000 S 
ATOM     24  C   UNL     1      44.778   6.477  12.131  0.00  0.00    +0.000 A 
ATOM     25  N   UNL     1      43.714   6.813  11.353  0.00  0.00    +0.000 NA
ATOM     26  C   UNL     1      42.754   5.948  11.360  0.00  0.00    +0.000 A 
ATOM     27  N   UNL     1      42.761   4.779  12.077  0.00  0.00    +0.000 N 
ATOM     28  C   UNL     1      43.819   4.393  12.858  0.00  0.00    +0.000 A 
ATOM     29  O   UNL     1      43.802   3.330  13.472  0.00  0.00    +0.000 OA
ATOM     30  C   UNL     1      44.931   5.326  12.879  0.00  0.00    +0.000 A 
ATOM     31  H   UNL     1      41.977   4.146  12.044  0.00  0.00    +0.000 HD
ENDBRANCH  18  21
ENDBRANCH   1  17
TORSDOF 6
ENDMDL
MODEL 7
REMARK VINA RESULT:    -6.772      2.403      3.100
REMARK INTER + INTRA:         -10.132
REMARK INTER:                  -9.069
REMARK INTRA:                  -1.063
REMARK UNBOUND:                -0.984
REMARK  Name = 
REMARK  7 active torsions:
REMARK  status: ('A' for Active; 'I' for Inactive)
REMARK    1  A    between atoms: C_1  and  O_2
REMARK    2  A    between atoms: O_2  and  C_3
REMARK    3  A    between atoms: C_5  and  O_6
REMARK    4  A    between atoms: O_6  and  C_7
REMARK    5  A    between atoms: C_10  and  C_11
REMARK    6  A    between atoms: C_11  and  N_12
REMARK    7  A    between atoms: C_13  and  C_15
REMARK                            x       y       z     vdW  Elec       q    Type
REMARK                         _______ _______ _______ _____ _____    ______ ____
ROOT
ATOM      1  C   UNL     1      48.769   8.060  15.714  0.00  0.00    +0.000 C 
ENDROOT
BRANCH   1   5
ATOM      2  C   UNL     1      46.730   6.809  12.123  0.00  0.00    +0.000 A 
ATOM      3  C   UNL     1      46.639   8.133  12.555  0.00  0.00    +0.000 A 
ATOM      4  C   UNL     1      47.305   8.542  13.713  0.00  0.00    +0.000 A 
ATOM      5  C   UNL     1      48.029   7.619  14.480  0.00  0.00    +0.000 A 
ATOM      6  C   UNL     1      48.007   6.268  14.108  0.00  0.00    +0.000 A 
ATOM      7  C   UNL     1      47.369   5.867  12.932  0.00  0.00    +0.000 A 
BRANCH   2   8
ATOM      8  O   UNL     1      46.175   6.327  10.959  0.00  0.00    +0.000 OA
BRANCH   8  11
ATOM      9  C   UNL     1      43.959   3.413  10.580  0.00  0.00    +0.000 A 
ATOM     10  C   UNL     1      45.127   4.152  10.497  0.00  0.00    +0.000 A 
ATOM     11  C   UNL     1      45.115   5.448  11.006  0.00  0.00    +0.000 A 
ATOM     12  C   UNL     1      43.980   5.911  11.665  0.00  0.00    +0.000 A 
ATOM     13  C   UNL     1      42.877   5.080  11.731  0.00  0.00    +0.000 A 
ATOM     14  N   UNL     1      42.835   3.847  11.187  0.00  0.00    +0.000 NA
BRANCH   9  16
ATOM     15  C   UNL     1      45.003   2.057   8.986  0.00  0.00    +0.000 C 
ATOM     16  O   UNL     1      43.972   2.178   9.960  0.00  0.00    +0.000 OA
ENDBRANCH   9  16
ENDBRANCH   8  11
ENDBRANCH   2   8
ENDBRANCH   1   5
BRANCH   1  17
ATOM     17  N   UNL     1      49.772   7.095  16.076  0.00  0.00    +0.000 N 
ATOM     18  C   UNL     1      49.723   6.414  17.260  0.00  0.00    +0.000 C 
ATOM     19  O   UNL     1      48.802   6.553  18.061  0.00  0.00    +0.000 OA
ATOM     20  H   UNL     1      50.647   7.144  15.563  0.00  0.00    +0.000 HD
BRANCH  18  21
ATOM     21  C   UNL     1      50.804   5.447  17.489  0.00  0.00    +0.000 A 
ATOM     22  C   UNL     1      52.061   5.891  17.876  0.00  0.00    +0.000 A 
ATOM     23  S   UNL     1      53.161   4.627  18.195  0.00  0.00    +0.000 S 
ATOM     24  C   UNL     1      52.013   3.444  17.770  0.00  0.00    +0.000 A 
ATOM     25  N   UNL     1      52.319   2.119  17.820  0.00  0.00    +0.000 NA
ATOM     26  C   UNL     1      51.365   1.336  17.440  0.00  0.00    +0.000 A 
ATOM     27  N   UNL     1      50.132   1.758  17.012  0.00  0.00    +0.000 N 
ATOM     28  C   UNL     1      49.775   3.080  16.964  0.00  0.00    +0.000 A 
ATOM     29  O   UNL     1      48.656   3.424  16.594  0.00  0.00    +0.000 OA
ATOM     30  C   UNL     1      50.810   4.005  17.390  0.00  0.00    +0.000 A 
ATOM     31  H   UNL     1      49.429   1.096  16.723  0.00  0.00    +0.000 HD
ENDBRANCH  18  21
ENDBRANCH   1  17
TORSDOF 6
ENDMDL
MODEL 8
REMARK VINA RESULT:    -6.496      4.449      7.675
REMARK INTER + INTRA:          -9.760
REMARK INTER:                  -8.778
REMARK INTRA:                  -0.981
REMARK UNBOUND:                -0.984
REMARK  Name = 
REMARK  7 active torsions:
REMARK  status: ('A' for Active; 'I' for Inactive)
REMARK    1  A    between atoms: C_1  and  O_2
REMARK    2  A    between atoms: O_2  and  C_3
REMARK    3  A    between atoms: C_5  and  O_6
REMARK    4  A    between atoms: O_6  and  C_7
REMARK    5  A    between atoms: C_10  and  C_11
REMARK    6  A    between atoms: C_11  and  N_12
REMARK    7  A    between atoms: C_13  and  C_15
REMARK                            x       y       z     vdW  Elec       q    Type
REMARK                         _______ _______ _______ _____ _____    ______ ____
ROOT
ATOM      1  C   UNL     1      46.376   8.264  13.175  0.00  0.00    +0.000 C 
ENDROOT
BRANCH   1   5
ATOM      2  C   UNL     1      50.243   8.908  11.373  0.00  0.00    +0.000 A 
ATOM      3  C   UNL     1      49.793   7.610  11.620  0.00  0.00    +0.000 A 
ATOM      4  C   UNL     1      48.538   7.399  12.196  0.00  0.00    +0.000 A 
ATOM      5  C   UNL     1      47.740   8.486  12.577  0.00  0.00    +0.000 A 
ATOM      6  C   UNL     1      48.256   9.782  12.443  0.00  0.00    +0.000 A 
ATOM      7  C   UNL     1      49.497   9.992  11.837  0.00  0.00    +0.000 A 
BRANCH   2   8
ATOM      8  O   UNL     1      51.428   9.217  10.743  0.00  0.00    +0.000 OA
BRANCH   8  11
ATOM      9  C   UNL     1      53.532   6.476   9.475  0.00  0.00    +0.000 A 
ATOM     10  C   UNL     1      52.528   7.430   9.463  0.00  0.00    +0.000 A 
ATOM     11  C   UNL     1      52.400   8.254  10.578  0.00  0.00    +0.000 A 
ATOM     12  C   UNL     1      53.335   8.163  11.605  0.00  0.00    +0.000 A 
ATOM     13  C   UNL     1      54.325   7.203  11.504  0.00  0.00    +0.000 A 
ATOM     14  N   UNL     1      54.434   6.345  10.469  0.00  0.00    +0.000 NA
BRANCH   9  16
ATOM     15  C   UNL     1      52.805   6.068   7.290  0.00  0.00    +0.000 C 
ATOM     16  O   UNL     1      53.555   5.600   8.406  0.00  0.00    +0.000 OA
ENDBRANCH   9  16
ENDBRANCH   8  11
ENDBRANCH   2   8
ENDBRANCH   1   5
BRANCH   1  17
ATOM     17  N   UNL     1      45.899   6.943  12.872  0.00  0.00    +0.000 N 
ATOM     18  C   UNL     1      44.968   6.718  11.895  0.00  0.00    +0.000 C 
ATOM     19  O   UNL     1      44.520   7.622  11.194  0.00  0.00    +0.000 OA
ATOM     20  H   UNL     1      46.060   6.234  13.580  0.00  0.00    +0.000 HD
BRANCH  18  21
ATOM     21  C   UNL     1      44.586   5.317  11.683  0.00  0.00    +0.000 A 
ATOM     22  C   UNL     1      43.906   4.625  12.676  0.00  0.00    +0.000 A 
ATOM     23  S   UNL     1      43.454   3.046  12.218  0.00  0.00    +0.000 S 
ATOM     24  C   UNL     1      44.204   3.209  10.700  0.00  0.00    +0.000 A 
ATOM     25  N   UNL     1      44.190   2.192   9.796  0.00  0.00    +0.000 NA
ATOM     26  C   UNL     1      44.825   2.443   8.699  0.00  0.00    +0.000 A 
ATOM     27  N   UNL     1      45.474   3.619   8.425  0.00  0.00    +0.000 N 
ATOM     28  C   UNL     1      45.498   4.676   9.297  0.00  0.00    +0.000 A 
ATOM     29  O   UNL     1      46.072   5.722   9.012  0.00  0.00    +0.000 OA
ATOM     30  C   UNL     1      44.791   4.450  10.544  0.00  0.00    +0.000 A 
ATOM     31  H   UNL     1      45.957   3.752   7.549  0.00  0.00    +0.000 HD
ENDBRANCH  18  21
ENDBRANCH   1  17
TORSDOF 6
ENDMDL
MODEL 9
REMARK VINA RESULT:    -6.448      4.407      9.772
REMARK INTER + INTRA:          -9.695
REMARK INTER:                  -8.532
REMARK INTRA:                  -1.163
REMARK UNBOUND:                -0.984
REMARK  Name = 
REMARK  7 active torsions:
REMARK  status: ('A' for Active; 'I' for Inactive)
REMARK    1  A    between atoms: C_1  and  O_2
REMARK    2  A    between atoms: O_2  and  C_3
REMARK    3  A    between atoms: C_5  and  O_6
REMARK    4  A    between atoms: O_6  and  C_7
REMARK    5  A    between atoms: C_10  and  C_11
REMARK    6  A    between atoms: C_11  and  N_12
REMARK    7  A    between atoms: C_13  and  C_15
REMARK                            x       y       z     vdW  Elec       q    Type
REMARK                         _______ _______ _______ _____ _____    ______ ____
ROOT
ATOM      1  C   UNL     1      47.301   3.677  17.194  0.00  0.00    +0.000 C 
ENDROOT
BRANCH   1   5
ATOM      2  C   UNL     1      51.588   3.675  17.682  0.00  0.00    +0.000 A 
ATOM      3  C   UNL     1      50.911   2.480  17.434  0.00  0.00    +0.000 A 
ATOM      4  C   UNL     1      49.524   2.479  17.268  0.00  0.00    +0.000 A 
ATOM      5  C   UNL     1      48.792   3.668  17.398  0.00  0.00    +0.000 A 
ATOM      6  C   UNL     1      49.467   4.838  17.774  0.00  0.00    +0.000 A 
ATOM      7  C   UNL     1      50.857   4.842  17.906  0.00  0.00    +0.000 A 
BRANCH   2   8
ATOM      8  O   UNL     1      52.956   3.790  17.785  0.00  0.00    +0.000 OA
BRANCH   8  11
ATOM      9  C   UNL     1      54.863   0.967  19.178  0.00  0.00    +0.000 A 
ATOM     10  C   UNL     1      54.222   1.727  18.215  0.00  0.00    +0.000 A 
ATOM     11  C   UNL     1      53.665   2.942  18.607  0.00  0.00    +0.000 A 
ATOM     12  C   UNL     1      53.861   3.392  19.909  0.00  0.00    +0.000 A 
ATOM     13  C   UNL     1      54.551   2.577  20.786  0.00  0.00    +0.000 A 
ATOM     14  N   UNL     1      55.042   1.365  20.455  0.00  0.00    +0.000 NA
BRANCH   9  16
ATOM     15  C   UNL     1      55.471  -1.183  19.870  0.00  0.00    +0.000 C 
ATOM     16  O   UNL     1      55.299  -0.283  18.781  0.00  0.00    +0.000 OA
ENDBRANCH   9  16
ENDBRANCH   8  11
ENDBRANCH   2   8
ENDBRANCH   1   5
BRANCH   1  17
ATOM     17  N   UNL     1      46.947   4.512  16.079  0.00  0.00    +0.000 N 
ATOM     18  C   UNL     1      47.039   4.069  14.788  0.00  0.00    +0.000 C 
ATOM     19  O   UNL     1      47.386   2.924  14.509  0.00  0.00    +0.000 OA
ATOM     20  H   UNL     1      46.899   5.509  16.262  0.00  0.00    +0.000 HD
BRANCH  18  21
ATOM     21  C   UNL     1      46.627   5.023  13.752  0.00  0.00    +0.000 A 
ATOM     22  C   UNL     1      45.512   4.759  12.968  0.00  0.00    +0.000 A 
ATOM     23  S   UNL     1      45.122   6.021  11.890  0.00  0.00    +0.000 S 
ATOM     24  C   UNL     1      46.464   6.940  12.390  0.00  0.00    +0.000 A 
ATOM     25  N   UNL     1      46.723   8.160  11.845  0.00  0.00    +0.000 NA
ATOM     26  C   UNL     1      47.790   8.731  12.296  0.00  0.00    +0.000 A 
ATOM     27  N   UNL     1      48.625   8.191  13.240  0.00  0.00    +0.000 N 
ATOM     28  C   UNL     1      48.393   6.975  13.829  0.00  0.00    +0.000 A 
ATOM     29  O   UNL     1      49.150   6.529  14.686  0.00  0.00    +0.000 OA
ATOM     30  C   UNL     1      47.199   6.293  13.365  0.00  0.00    +0.000 A 
ATOM     31  H   UNL     1      49.449   8.686  13.548  0.00  0.00    +0.000 HD
ENDBRANCH  18  21
ENDBRANCH   1  17
TORSDOF 6
ENDMDL
