MODEL 1
REMARK VINA RESULT:    -8.556      0.000      0.000
REMARK INTER + INTRA:         -13.251
REMARK INTER:                 -12.058
REMARK INTRA:                  -1.193
REMARK UNBOUND:                -1.193
REMARK  Name = 
REMARK  8 active torsions:
REMARK  status: ('A' for Active; 'I' for Inactive)
REMARK    1  A    between atoms: C_1  and  C_2
REMARK    2  A    between atoms: C_2  and  N_3
REMARK    3  A    between atoms: C_2  and  C_25
REMARK    4  A    between atoms: N_3  and  C_4
REMARK    5  A    between atoms: C_4  and  C_5
REMARK    6  A    between atoms: C_8  and  C_9
REMARK    7  A    between atoms: C_9  and  N_10
REMARK    8  A    between atoms: C_11  and  C_13
REMARK                            x       y       z     vdW  Elec       q    Type
REMARK                         _______ _______ _______ _____ _____    ______ ____
ROOT
ATOM      1  C   UNL     1      44.612   5.686  10.941  0.00  0.00    +0.000 A 
ATOM      2  C   UNL     1      44.094   6.304  12.088  0.00  0.00    +0.000 A 
ATOM      3  C   UNL     1      44.907   7.098  12.901  0.00  0.00    +0.000 A 
ATOM      4  C   UNL     1      46.254   7.299  12.573  0.00  0.00    +0.000 A 
ATOM      5  C   UNL     1      46.779   6.655  11.444  0.00  0.00    +0.000 A 
ATOM      6  C   UNL     1      45.966   5.862  10.632  0.00  0.00    +0.000 A 
ENDROOT
BRANCH   1   7
ATOM      7  C   UNL     1      43.756   4.740  10.134  0.00  0.00    +0.000 C 
BRANCH   7   8
ATOM      8  N   UNL     1      44.413   4.269   8.912  0.00  0.00    +0.000 NA
ATOM      9  H   UNL     1      45.063   4.988   8.591  0.00  0.00    +0.000 HD
BRANCH   8  11
ATOM     10  C   UNL     1      44.216   1.846   9.459  0.00  0.00    +0.000 C 
ATOM     11  C   UNL     1      45.159   3.017   9.123  0.00  0.00    +0.000 C 
BRANCH  11  12
ATOM     12  C   UNL     1      45.998   2.657   7.898  0.00  0.00    +0.000 A 
ATOM     13  C   UNL     1      46.198   3.584   6.862  0.00  0.00    +0.000 A 
ATOM     14  C   UNL     1      47.074   3.299   5.805  0.00  0.00    +0.000 A 
ATOM     15  C   UNL     1      47.759   2.087   5.770  0.00  0.00    +0.000 A 
ATOM     16  C   UNL     1      47.537   1.140   6.766  0.00  0.00    +0.000 A 
ATOM     17  C   UNL     1      46.652   1.415   7.810  0.00  0.00    +0.000 A 
ENDBRANCH  11  12
ENDBRANCH   8  11
ENDBRANCH   7   8
ENDBRANCH   1   7
BRANCH   4  18
ATOM     18  C   UNL     1      47.141   8.162  13.431  0.00  0.00    +0.000 C 
BRANCH  18  19
ATOM     19  N   UNL     1      47.562   7.465  14.617  0.00  0.00    +0.000 N 
ATOM     20  C   UNL     1      48.786   6.846  14.687  0.00  0.00    +0.000 C 
ATOM     21  O   UNL     1      49.592   6.887  13.761  0.00  0.00    +0.000 OA
ATOM     22  H   UNL     1      46.839   7.209  15.281  0.00  0.00    +0.000 HD
BRANCH  20  23
ATOM     23  C   UNL     1      49.108   6.203  15.963  0.00  0.00    +0.000 A 
ATOM     24  C   UNL     1      50.163   6.674  16.732  0.00  0.00    +0.000 A 
ATOM     25  S   UNL     1      50.345   5.856  18.218  0.00  0.00    +0.000 S 
ATOM     26  C   UNL     1      49.065   4.798  17.855  0.00  0.00    +0.000 A 
ATOM     27  N   UNL     1      48.705   3.809  18.721  0.00  0.00    +0.000 NA
ATOM     28  C   UNL     1      47.736   3.061  18.304  0.00  0.00    +0.000 A 
ATOM     29  N   UNL     1      47.100   3.212  17.100  0.00  0.00    +0.000 N 
ATOM     30  C   UNL     1      47.407   4.209  16.206  0.00  0.00    +0.000 A 
ATOM     31  O   UNL     1      46.790   4.336  15.159  0.00  0.00    +0.000 OA
ATOM     32  C   UNL     1      48.493   5.073  16.626  0.00  0.00    +0.000 A 
ATOM     33  H   UNL     1      46.346   2.593  16.834  0.00  0.00    +0.000 HD
ENDBRANCH  20  23
ENDBRANCH  18  19
ENDBRANCH   4  18
TORSDOF 7
ENDMDL
MODEL 2
REMARK VINA RESULT:    -8.363      1.574      1.799
REMARK INTER + INTRA:         -12.978
REMARK INTER:                 -11.829
REMARK INTRA:                  -1.149
REMARK UNBOUND:                -1.193
REMARK  Name = 
REMARK  8 active torsions:
REMARK  status: ('A' for Active; 'I' for Inactive)
REMARK    1  A    between atoms: C_1  and  C_2
REMARK    2  A    between atoms: C_2  and  N_3
REMARK    3  A    between atoms: C_2  and  C_25
REMARK    4  A    between atoms: N_3  and  C_4
REMARK    5  A    between atoms: C_4  and  C_5
REMARK    6  A    between atoms: C_8  and  C_9
REMARK    7  A    between atoms: C_9  and  N_10
REMARK    8  A    between atoms: C_11  and  C_13
REMARK                            x       y       z     vdW  Elec       q    Type
REMARK                         _______ _______ _______ _____ _____    ______ ____
ROOT
ATOM      1  C   UNL     1      44.880   5.337  11.354  0.00  0.00    +0.000 A 
ATOM      2  C   UNL     1      45.199   4.791  12.606  0.00  0.00    +0.000 A 
ATOM      3  C   UNL     1      46.333   5.217  13.303  0.00  0.00    +0.000 A 
ATOM      4  C   UNL     1      47.164   6.207  12.764  0.00  0.00    +0.000 A 
ATOM      5  C   UNL     1      46.863   6.729  11.499  0.00  0.00    +0.000 A 
ATOM      6  C   UNL     1      45.729   6.304  10.803  0.00  0.00    +0.000 A 
ENDROOT
BRANCH   1   7
ATOM      7  C   UNL     1      43.719   4.790  10.560  0.00  0.00    +0.000 C 
BRANCH   7   8
ATOM      8  N   UNL     1      44.123   4.201   9.280  0.00  0.00    +0.000 NA
ATOM      9  H   UNL     1      44.670   4.889   8.761  0.00  0.00    +0.000 HD
BRANCH   8  11
ATOM     10  C   UNL     1      44.062   1.761   9.785  0.00  0.00    +0.000 C 
ATOM     11  C   UNL     1      44.937   2.985   9.455  0.00  0.00    +0.000 C 
BRANCH  11  12
ATOM     12  C   UNL     1      45.769   2.692   8.208  0.00  0.00    +0.000 A 
ATOM     13  C   UNL     1      45.998   3.685   7.241  0.00  0.00    +0.000 A 
ATOM     14  C   UNL     1      46.870   3.453   6.167  0.00  0.00    +0.000 A 
ATOM     15  C   UNL     1      47.521   2.228   6.047  0.00  0.00    +0.000 A 
ATOM     16  C   UNL     1      47.271   1.218   6.972  0.00  0.00    +0.000 A 
ATOM     17  C   UNL     1      46.390   1.442   8.032  0.00  0.00    +0.000 A 
ENDBRANCH  11  12
ENDBRANCH   8  11
ENDBRANCH   7   8
ENDBRANCH   1   7
BRANCH   4  18
ATOM     18  C   UNL     1      48.383   6.686  13.508  0.00  0.00    +0.000 C 
BRANCH  18  19
ATOM     19  N   UNL     1      48.147   6.731  14.926  0.00  0.00    +0.000 N 
ATOM     20  C   UNL     1      49.184   6.687  15.826  0.00  0.00    +0.000 C 
ATOM     21  O   UNL     1      50.358   6.645  15.467  0.00  0.00    +0.000 OA
ATOM     22  H   UNL     1      47.207   6.518  15.243  0.00  0.00    +0.000 HD
BRANCH  20  23
ATOM     23  C   UNL     1      48.811   6.778  17.239  0.00  0.00    +0.000 A 
ATOM     24  C   UNL     1      48.365   7.983  17.765  0.00  0.00    +0.000 A 
ATOM     25  S   UNL     1      47.905   7.885  19.405  0.00  0.00    +0.000 S 
ATOM     26  C   UNL     1      48.353   6.247  19.490  0.00  0.00    +0.000 A 
ATOM     27  N   UNL     1      48.234   5.547  20.653  0.00  0.00    +0.000 NA
ATOM     28  C   UNL     1      48.640   4.320  20.581  0.00  0.00    +0.000 A 
ATOM     29  N   UNL     1      49.154   3.736  19.453  0.00  0.00    +0.000 N 
ATOM     30  C   UNL     1      49.266   4.391  18.251  0.00  0.00    +0.000 A 
ATOM     31  O   UNL     1      49.693   3.824  17.256  0.00  0.00    +0.000 OA
ATOM     32  C   UNL     1      48.830   5.774  18.281  0.00  0.00    +0.000 A 
ATOM     33  H   UNL     1      49.451   2.770  19.463  0.00  0.00    +0.000 HD
ENDBRANCH  20  23
ENDBRANCH  18  19
ENDBRANCH   4  18
TORSDOF 7
ENDMDL
MODEL 3
REMARK VINA RESULT:    -8.047      2.073      2.474
REMARK INTER + INTRA:         -12.533
REMARK INTER:                 -11.338
REMARK INTRA:                  -1.195
REMARK UNBOUND:                -1.193
REMARK  Name = 
REMARK  8 active torsions:
REMARK  status: ('A' for Active; 'I' for Inactive)
REMARK    1  A    between atoms: C_1  and  C_2
REMARK    2  A    between atoms: C_2  and  N_3
REMARK    3  A    between atoms: C_2  and  C_25
REMARK    4  A    between atoms: N_3  and  C_4
REMARK    5  A    between atoms: C_4  and  C_5
REMARK    6  A    between atoms: C_8  and  C_9
REMARK    7  A    between atoms: C_9  and  N_10
REMARK    8  A    between atoms: C_11  and  C_13
REMARK                            x       y       z     vdW  Elec       q    Type
REMARK                         _______ _______ _______ _____ _____    ______ ____
ROOT
ATOM      1  C   UNL     1      44.944   5.355  11.364  0.00  0.00    +0.000 A 
ATOM      2  C   UNL     1      45.501   6.604  11.053  0.00  0.00    +0.000 A 
ATOM      3  C   UNL     1      46.514   7.151  11.844  0.00  0.00    +0.000 A 
ATOM      4  C   UNL     1      46.999   6.452  12.957  0.00  0.00    +0.000 A 
ATOM      5  C   UNL     1      46.420   5.219  13.286  0.00  0.00    +0.000 A 
ATOM      6  C   UNL     1      45.407   4.672  12.494  0.00  0.00    +0.000 A 
ENDROOT
BRANCH   1   7
ATOM      7  C   UNL     1      43.774   4.826  10.571  0.00  0.00    +0.000 C 
BRANCH   7   8
ATOM      8  N   UNL     1      44.167   4.233   9.289  0.00  0.00    +0.000 NA
ATOM      9  H   UNL     1      44.716   4.917   8.767  0.00  0.00    +0.000 HD
BRANCH   8  11
ATOM     10  C   UNL     1      44.090   1.795   9.801  0.00  0.00    +0.000 C 
ATOM     11  C   UNL     1      44.972   3.011   9.460  0.00  0.00    +0.000 C 
BRANCH  11  12
ATOM     12  C   UNL     1      45.792   2.708   8.207  0.00  0.00    +0.000 A 
ATOM     13  C   UNL     1      46.024   3.698   7.238  0.00  0.00    +0.000 A 
ATOM     14  C   UNL     1      46.885   3.456   6.157  0.00  0.00    +0.000 A 
ATOM     15  C   UNL     1      47.521   2.223   6.032  0.00  0.00    +0.000 A 
ATOM     16  C   UNL     1      47.266   1.217   6.959  0.00  0.00    +0.000 A 
ATOM     17  C   UNL     1      46.396   1.451   8.026  0.00  0.00    +0.000 A 
ENDBRANCH  11  12
ENDBRANCH   8  11
ENDBRANCH   7   8
ENDBRANCH   1   7
BRANCH   4  18
ATOM     18  C   UNL     1      48.099   7.022  13.813  0.00  0.00    +0.000 C 
BRANCH  18  19
ATOM     19  N   UNL     1      47.960   6.613  15.185  0.00  0.00    +0.000 N 
ATOM     20  C   UNL     1      49.057   6.353  15.969  0.00  0.00    +0.000 C 
ATOM     21  O   UNL     1      50.205   6.490  15.552  0.00  0.00    +0.000 OA
ATOM     22  H   UNL     1      47.054   6.260  15.471  0.00  0.00    +0.000 HD
BRANCH  20  23
ATOM     23  C   UNL     1      48.781   5.981  17.358  0.00  0.00    +0.000 A 
ATOM     24  C   UNL     1      48.987   4.677  17.784  0.00  0.00    +0.000 A 
ATOM     25  S   UNL     1      48.685   4.444  19.446  0.00  0.00    +0.000 S 
ATOM     26  C   UNL     1      48.202   6.062  19.642  0.00  0.00    +0.000 A 
ATOM     27  N   UNL     1      47.784   6.528  20.852  0.00  0.00    +0.000 NA
ATOM     28  C   UNL     1      47.418   7.769  20.849  0.00  0.00    +0.000 A 
ATOM     29  N   UNL     1      47.430   8.580  19.745  0.00  0.00    +0.000 N 
ATOM     30  C   UNL     1      47.868   8.165  18.511  0.00  0.00    +0.000 A 
ATOM     31  O   UNL     1      47.901   8.930  17.558  0.00  0.00    +0.000 OA
ATOM     32  C   UNL     1      48.284   6.777  18.461  0.00  0.00    +0.000 A 
ATOM     33  H   UNL     1      47.132   9.544  19.810  0.00  0.00    +0.000 HD
ENDBRANCH  20  23
ENDBRANCH  18  19
ENDBRANCH   4  18
TORSDOF 7
ENDMDL
MODEL 4
REMARK VINA RESULT:    -7.465      2.694      3.709
REMARK INTER + INTRA:         -11.714
REMARK INTER:                 -10.613
REMARK INTRA:                  -1.101
REMARK UNBOUND:                -1.193
REMARK  Name = 
REMARK  8 active torsions:
REMARK  status: ('A' for Active; 'I' for Inactive)
REMARK    1  A    between atoms: C_1  and  C_2
REMARK    2  A    between atoms: C_2  and  N_3
REMARK    3  A    between atoms: C_2  and  C_25
REMARK    4  A    between atoms: N_3  and  C_4
REMARK    5  A    between atoms: C_4  and  C_5
REMARK    6  A    between atoms: C_8  and  C_9
REMARK    7  A    between atoms: C_9  and  N_10
REMARK    8  A    between atoms: C_11  and  C_13
REMARK                            x       y       z     vdW  Elec       q    Type
REMARK                         _______ _______ _______ _____ _____    ______ ____
ROOT
ATOM      1  C   UNL     1      45.078   4.871  12.152  0.00  0.00    +0.000 A 
ATOM      2  C   UNL     1      45.598   3.666  12.645  0.00  0.00    +0.000 A 
ATOM      3  C   UNL     1      46.584   3.665  13.635  0.00  0.00    +0.000 A 
ATOM      4  C   UNL     1      47.061   4.874  14.160  0.00  0.00    +0.000 A 
ATOM      5  C   UNL     1      46.564   6.078  13.644  0.00  0.00    +0.000 A 
ATOM      6  C   UNL     1      45.579   6.078  12.655  0.00  0.00    +0.000 A 
ENDROOT
BRANCH   1   7
ATOM      7  C   UNL     1      44.099   4.864  11.004  0.00  0.00    +0.000 C 
BRANCH   7   8
ATOM      8  N   UNL     1      44.357   3.797  10.033  0.00  0.00    +0.000 NA
ATOM      9  H   UNL     1      43.472   3.345   9.800  0.00  0.00    +0.000 HD
BRANCH   8  11
ATOM     10  C   UNL     1      45.949   5.459   9.077  0.00  0.00    +0.000 C 
ATOM     11  C   UNL     1      44.971   4.304   8.793  0.00  0.00    +0.000 C 
BRANCH  11  12
ATOM     12  C   UNL     1      45.702   3.193   8.042  0.00  0.00    +0.000 A 
ATOM     13  C   UNL     1      46.454   3.475   6.889  0.00  0.00    +0.000 A 
ATOM     14  C   UNL     1      47.230   2.479   6.278  0.00  0.00    +0.000 A 
ATOM     15  C   UNL     1      47.263   1.193   6.811  0.00  0.00    +0.000 A 
ATOM     16  C   UNL     1      46.489   0.887   7.926  0.00  0.00    +0.000 A 
ATOM     17  C   UNL     1      45.702   1.873   8.525  0.00  0.00    +0.000 A 
ENDBRANCH  11  12
ENDBRANCH   8  11
ENDBRANCH   7   8
ENDBRANCH   1   7
BRANCH   4  18
ATOM     18  C   UNL     1      48.114   4.890  15.237  0.00  0.00    +0.000 C 
BRANCH  18  19
ATOM     19  N   UNL     1      47.819   5.876  16.242  0.00  0.00    +0.000 N 
ATOM     20  C   UNL     1      48.627   6.042  17.341  0.00  0.00    +0.000 C 
ATOM     21  O   UNL     1      49.654   5.386  17.500  0.00  0.00    +0.000 OA
ATOM     22  H   UNL     1      46.875   6.244  16.263  0.00  0.00    +0.000 HD
BRANCH  20  23
ATOM     23  C   UNL     1      48.237   7.104  18.270  0.00  0.00    +0.000 A 
ATOM     24  C   UNL     1      47.976   6.804  19.599  0.00  0.00    +0.000 A 
ATOM     25  S   UNL     1      47.611   8.171  20.551  0.00  0.00    +0.000 S 
ATOM     26  C   UNL     1      47.720   9.205  19.205  0.00  0.00    +0.000 A 
ATOM     27  N   UNL     1      47.490  10.543  19.327  0.00  0.00    +0.000 NA
ATOM     28  C   UNL     1      47.577  11.203  18.218  0.00  0.00    +0.000 A 
ATOM     29  N   UNL     1      47.871  10.644  17.002  0.00  0.00    +0.000 N 
ATOM     30  C   UNL     1      48.139   9.307  16.833  0.00  0.00    +0.000 A 
ATOM     31  O   UNL     1      48.437   8.853  15.738  0.00  0.00    +0.000 OA
ATOM     32  C   UNL     1      48.047   8.522  18.048  0.00  0.00    +0.000 A 
ATOM     33  H   UNL     1      47.927  11.218  16.172  0.00  0.00    +0.000 HD
ENDBRANCH  20  23
ENDBRANCH  18  19
ENDBRANCH   4  18
TORSDOF 7
ENDMDL
MODEL 5
REMARK VINA RESULT:    -7.463      2.864      3.863
REMARK INTER + INTRA:         -11.710
REMARK INTER:                 -11.041
REMARK INTRA:                  -0.670
REMARK UNBOUND:                -1.193
REMARK  Name = 
REMARK  8 active torsions:
REMARK  status: ('A' for Active; 'I' for Inactive)
REMARK    1  A    between atoms: C_1  and  C_2
REMARK    2  A    between atoms: C_2  and  N_3
REMARK    3  A    between atoms: C_2  and  C_25
REMARK    4  A    between atoms: N_3  and  C_4
REMARK    5  A    between atoms: C_4  and  C_5
REMARK    6  A    between atoms: C_8  and  C_9
REMARK    7  A    between atoms: C_9  and  N_10
REMARK    8  A    between atoms: C_11  and  C_13
REMARK                            x       y       z     vdW  Elec       q    Type
REMARK                         _______ _______ _______ _____ _____    ______ ____
ROOT
ATOM      1  C   UNL     1      46.452   4.414  13.484  0.00  0.00    +0.000 A 
ATOM      2  C   UNL     1      46.737   3.973  14.784  0.00  0.00    +0.000 A 
ATOM      3  C   UNL     1      47.571   4.716  15.624  0.00  0.00    +0.000 A 
ATOM      4  C   UNL     1      48.129   5.922  15.181  0.00  0.00    +0.000 A 
ATOM      5  C   UNL     1      47.870   6.346  13.870  0.00  0.00    +0.000 A 
ATOM      6  C   UNL     1      47.035   5.603  13.032  0.00  0.00    +0.000 A 
ENDROOT
BRANCH   1   7
ATOM      7  C   UNL     1      45.643   3.550  12.548  0.00  0.00    +0.000 C 
BRANCH   7   8
ATOM      8  N   UNL     1      44.218   3.510  12.887  0.00  0.00    +0.000 NA
ATOM      9  H   UNL     1      44.030   4.219  13.597  0.00  0.00    +0.000 HD
BRANCH   8  11
ATOM     10  C   UNL     1      42.743   5.179  11.770  0.00  0.00    +0.000 C 
ATOM     11  C   UNL     1      43.357   3.767  11.720  0.00  0.00    +0.000 C 
BRANCH  11  12
ATOM     12  C   UNL     1      44.128   3.595  10.413  0.00  0.00    +0.000 A 
ATOM     13  C   UNL     1      44.744   4.692   9.787  0.00  0.00    +0.000 A 
ATOM     14  C   UNL     1      45.561   4.510   8.662  0.00  0.00    +0.000 A 
ATOM     15  C   UNL     1      45.770   3.233   8.149  0.00  0.00    +0.000 A 
ATOM     16  C   UNL     1      45.132   2.141   8.730  0.00  0.00    +0.000 A 
ATOM     17  C   UNL     1      44.305   2.323   9.841  0.00  0.00    +0.000 A 
ENDBRANCH  11  12
ENDBRANCH   8  11
ENDBRANCH   7   8
ENDBRANCH   1   7
BRANCH   4  18
ATOM     18  C   UNL     1      49.020   6.741  16.077  0.00  0.00    +0.000 C 
BRANCH  18  19
ATOM     19  N   UNL     1      50.128   5.964  16.564  0.00  0.00    +0.000 N 
ATOM     20  C   UNL     1      50.128   5.435  17.832  0.00  0.00    +0.000 C 
ATOM     21  O   UNL     1      49.174   5.566  18.594  0.00  0.00    +0.000 OA
ATOM     22  H   UNL     1      51.006   6.050  16.064  0.00  0.00    +0.000 HD
BRANCH  20  23
ATOM     23  C   UNL     1      51.299   4.633  18.193  0.00  0.00    +0.000 A 
ATOM     24  C   UNL     1      52.362   5.218  18.866  0.00  0.00    +0.000 A 
ATOM     25  S   UNL     1      53.603   4.120  19.271  0.00  0.00    +0.000 S 
ATOM     26  C   UNL     1      52.797   2.838  18.499  0.00  0.00    +0.000 A 
ATOM     27  N   UNL     1      53.343   1.590  18.455  0.00  0.00    +0.000 NA
ATOM     28  C   UNL     1      52.635   0.720  17.810  0.00  0.00    +0.000 A 
ATOM     29  N   UNL     1      51.435   0.989  17.206  0.00  0.00    +0.000 N 
ATOM     30  C   UNL     1      50.831   2.222  17.247  0.00  0.00    +0.000 A 
ATOM     31  O   UNL     1      49.740   2.412  16.729  0.00  0.00    +0.000 OA
ATOM     32  C   UNL     1      51.589   3.235  17.954  0.00  0.00    +0.000 A 
ATOM     33  H   UNL     1      50.930   0.261  16.718  0.00  0.00    +0.000 HD
ENDBRANCH  20  23
ENDBRANCH  18  19
ENDBRANCH   4  18
TORSDOF 7
ENDMDL
MODEL 6
REMARK VINA RESULT:    -7.265      3.057      8.415
REMARK INTER + INTRA:         -11.432
REMARK INTER:                  -9.600
REMARK INTRA:                  -1.832
REMARK UNBOUND:                -1.193
REMARK  Name = 
REMARK  8 active torsions:
REMARK  status: ('A' for Active; 'I' for Inactive)
REMARK    1  A    between atoms: C_1  and  C_2
REMARK    2  A    between atoms: C_2  and  N_3
REMARK    3  A    between atoms: C_2  and  C_25
REMARK    4  A    between atoms: N_3  and  C_4
REMARK    5  A    between atoms: C_4  and  C_5
REMARK    6  A    between atoms: C_8  and  C_9
REMARK    7  A    between atoms: C_9  and  N_10
REMARK    8  A    between atoms: C_11  and  C_13
REMARK                            x       y       z     vdW  Elec       q    Type
REMARK                         _______ _______ _______ _____ _____    ______ ____
ROOT
ATOM      1  C   UNL     1      49.412   8.125  15.736  0.00  0.00    +0.000 A 
ATOM      2  C   UNL     1      49.619   7.031  14.884  0.00  0.00    +0.000 A 
ATOM      3  C   UNL     1      48.968   6.953  13.650  0.00  0.00    +0.000 A 
ATOM      4  C   UNL     1      48.105   7.977  13.239  0.00  0.00    +0.000 A 
ATOM      5  C   UNL     1      47.874   9.055  14.105  0.00  0.00    +0.000 A 
ATOM      6  C   UNL     1      48.525   9.132  15.338  0.00  0.00    +0.000 A 
ENDROOT
BRANCH   1   7
ATOM      7  C   UNL     1      50.029   8.144  17.113  0.00  0.00    +0.000 C 
BRANCH   7   8
ATOM      8  N   UNL     1      50.630   6.863  17.492  0.00  0.00    +0.000 NA
ATOM      9  H   UNL     1      51.557   7.039  17.882  0.00  0.00    +0.000 HD
BRANCH   8  11
ATOM     10  C   UNL     1      48.679   7.014  19.036  0.00  0.00    +0.000 C 
ATOM     11  C   UNL     1      49.825   6.140  18.492  0.00  0.00    +0.000 C 
BRANCH  11  12
ATOM     12  C   UNL     1      49.248   4.850  17.913  0.00  0.00    +0.000 A 
ATOM     13  C   UNL     1      47.939   4.808  17.406  0.00  0.00    +0.000 A 
ATOM     14  C   UNL     1      47.458   3.663  16.755  0.00  0.00    +0.000 A 
ATOM     15  C   UNL     1      48.278   2.547  16.606  0.00  0.00    +0.000 A 
ATOM     16  C   UNL     1      49.562   2.557  17.142  0.00  0.00    +0.000 A 
ATOM     17  C   UNL     1      50.037   3.691  17.805  0.00  0.00    +0.000 A 
ENDBRANCH  11  12
ENDBRANCH   8  11
ENDBRANCH   7   8
ENDBRANCH   1   7
BRANCH   4  18
ATOM     18  C   UNL     1      47.406   7.916  11.906  0.00  0.00    +0.000 C 
BRANCH  18  19
ATOM     19  N   UNL     1      46.750   6.650  11.717  0.00  0.00    +0.000 N 
ATOM     20  C   UNL     1      45.380   6.545  11.725  0.00  0.00    +0.000 C 
ATOM     21  O   UNL     1      44.652   7.525  11.855  0.00  0.00    +0.000 OA
ATOM     22  H   UNL     1      47.311   5.816  11.855  0.00  0.00    +0.000 HD
BRANCH  20  23
ATOM     23  C   UNL     1      44.838   5.206  11.484  0.00  0.00    +0.000 A 
ATOM     24  C   UNL     1      44.134   4.551  12.484  0.00  0.00    +0.000 A 
ATOM     25  S   UNL     1      43.511   3.037  12.004  0.00  0.00    +0.000 S 
ATOM     26  C   UNL     1      44.220   3.172  10.464  0.00  0.00    +0.000 A 
ATOM     27  N   UNL     1      44.090   2.178   9.542  0.00  0.00    +0.000 NA
ATOM     28  C   UNL     1      44.706   2.401   8.426  0.00  0.00    +0.000 A 
ATOM     29  N   UNL     1      45.439   3.526   8.154  0.00  0.00    +0.000 N 
ATOM     30  C   UNL     1      45.576   4.567   9.040  0.00  0.00    +0.000 A 
ATOM     31  O   UNL     1      46.206   5.573   8.745  0.00  0.00    +0.000 OA
ATOM     32  C   UNL     1      44.908   4.362  10.310  0.00  0.00    +0.000 A 
ATOM     33  H   UNL     1      45.894   3.640   7.259  0.00  0.00    +0.000 HD
ENDBRANCH  20  23
ENDBRANCH  18  19
ENDBRANCH   4  18
TORSDOF 7
ENDMDL
MODEL 7
REMARK VINA RESULT:    -7.213      3.831      8.456
REMARK INTER + INTRA:         -11.359
REMARK INTER:                  -8.958
REMARK INTRA:                  -2.400
REMARK UNBOUND:                -1.193
REMARK  Name = 
REMARK  8 active torsions:
REMARK  status: ('A' for Active; 'I' for Inactive)
REMARK    1  A    between atoms: C_1  and  C_2
REMARK    2  A    between atoms: C_2  and  N_3
REMARK    3  A    between atoms: C_2  and  C_25
REMARK    4  A    between atoms: N_3  and  C_4
REMARK    5  A    between atoms: C_4  and  C_5
REMARK    6  A    between atoms: C_8  and  C_9
REMARK    7  A    between atoms: C_9  and  N_10
REMARK    8  A    between atoms: C_11  and  C_13
REMARK                            x       y       z     vdW  Elec       q    Type
REMARK                         _______ _______ _______ _____ _____    ______ ____
ROOT
ATOM      1  C   UNL     1      49.721   7.524  18.448  0.00  0.00    +0.000 A 
ATOM      2  C   UNL     1      50.354   6.913  17.356  0.00  0.00    +0.000 A 
ATOM      3  C   UNL     1      49.947   7.191  16.048  0.00  0.00    +0.000 A 
ATOM      4  C   UNL     1      48.905   8.096  15.808  0.00  0.00    +0.000 A 
ATOM      5  C   UNL     1      48.252   8.681  16.901  0.00  0.00    +0.000 A 
ATOM      6  C   UNL     1      48.659   8.404  18.208  0.00  0.00    +0.000 A 
ENDROOT
BRANCH   1   7
ATOM      7  C   UNL     1      50.091   7.132  19.858  0.00  0.00    +0.000 C 
BRANCH   7   8
ATOM      8  N   UNL     1      50.310   5.692  20.016  0.00  0.00    +0.000 NA
ATOM      9  H   UNL     1      50.907   5.539  20.830  0.00  0.00    +0.000 HD
BRANCH   8  11
ATOM     10  C   UNL     1      47.933   5.863  20.746  0.00  0.00    +0.000 C 
ATOM     11  C   UNL     1      49.051   4.951  20.207  0.00  0.00    +0.000 C 
BRANCH  11  12
ATOM     12  C   UNL     1      48.589   4.298  18.905  0.00  0.00    +0.000 A 
ATOM     13  C   UNL     1      47.459   4.774  18.220  0.00  0.00    +0.000 A 
ATOM     14  C   UNL     1      47.115   4.260  16.961  0.00  0.00    +0.000 A 
ATOM     15  C   UNL     1      47.895   3.267  16.374  0.00  0.00    +0.000 A 
ATOM     16  C   UNL     1      48.992   2.754  17.060  0.00  0.00    +0.000 A 
ATOM     17  C   UNL     1      49.325   3.252  18.321  0.00  0.00    +0.000 A 
ENDBRANCH  11  12
ENDBRANCH   8  11
ENDBRANCH   7   8
ENDBRANCH   1   7
BRANCH   4  18
ATOM     18  C   UNL     1      48.463   8.416  14.404  0.00  0.00    +0.000 C 
BRANCH  18  19
ATOM     19  N   UNL     1      47.406   7.539  13.976  0.00  0.00    +0.000 N 
ATOM     20  C   UNL     1      47.666   6.414  13.231  0.00  0.00    +0.000 C 
ATOM     21  O   UNL     1      48.810   6.084  12.928  0.00  0.00    +0.000 OA
ATOM     22  H   UNL     1      46.463   7.911  13.996  0.00  0.00    +0.000 HD
BRANCH  20  23
ATOM     23  C   UNL     1      46.508   5.587  12.891  0.00  0.00    +0.000 A 
ATOM     24  C   UNL     1      46.531   4.221  13.138  0.00  0.00    +0.000 A 
ATOM     25  S   UNL     1      45.071   3.430  12.750  0.00  0.00    +0.000 S 
ATOM     26  C   UNL     1      44.379   4.872  12.172  0.00  0.00    +0.000 A 
ATOM     27  N   UNL     1      43.117   4.888  11.659  0.00  0.00    +0.000 NA
ATOM     28  C   UNL     1      42.731   6.046  11.229  0.00  0.00    +0.000 A 
ATOM     29  N   UNL     1      43.494   7.183  11.265  0.00  0.00    +0.000 N 
ATOM     30  C   UNL     1      44.760   7.223  11.798  0.00  0.00    +0.000 A 
ATOM     31  O   UNL     1      45.395   8.267  11.849  0.00  0.00    +0.000 OA
ATOM     32  C   UNL     1      45.242   5.947  12.289  0.00  0.00    +0.000 A 
ATOM     33  H   UNL     1      43.131   8.059  10.915  0.00  0.00    +0.000 HD
ENDBRANCH  20  23
ENDBRANCH  18  19
ENDBRANCH   4  18
TORSDOF 7
ENDMDL
MODEL 8
REMARK VINA RESULT:    -6.793      3.653      5.547
REMARK INTER + INTRA:         -10.766
REMARK INTER:                  -9.456
REMARK INTRA:                  -1.310
REMARK UNBOUND:                -1.193
REMARK  Name = 
REMARK  8 active torsions:
REMARK  status: ('A' for Active; 'I' for Inactive)
REMARK    1  A    between atoms: C_1  and  C_2
REMARK    2  A    between atoms: C_2  and  N_3
REMARK    3  A    between atoms: C_2  and  C_25
REMARK    4  A    between atoms: N_3  and  C_4
REMARK    5  A    between atoms: C_4  and  C_5
REMARK    6  A    between atoms: C_8  and  C_9
REMARK    7  A    between atoms: C_9  and  N_10
REMARK    8  A    between atoms: C_11  and  C_13
REMARK                            x       y       z     vdW  Elec       q    Type
REMARK                         _______ _______ _______ _____ _____    ______ ____
ROOT
ATOM      1  C   UNL     1      47.418   4.306  15.138  0.00  0.00    +0.000 A 
ATOM      2  C   UNL     1      47.530   3.208  16.003  0.00  0.00    +0.000 A 
ATOM      3  C   UNL     1      48.121   3.348  17.262  0.00  0.00    +0.000 A 
ATOM      4  C   UNL     1      48.602   4.594  17.683  0.00  0.00    +0.000 A 
ATOM      5  C   UNL     1      48.519   5.684  16.806  0.00  0.00    +0.000 A 
ATOM      6  C   UNL     1      47.928   5.543  15.548  0.00  0.00    +0.000 A 
ENDROOT
BRANCH   1   7
ATOM      7  C   UNL     1      46.882   4.120  13.740  0.00  0.00    +0.000 C 
BRANCH   7   8
ATOM      8  N   UNL     1      45.458   4.442  13.621  0.00  0.00    +0.000 NA
ATOM      9  H   UNL     1      45.144   4.869  14.494  0.00  0.00    +0.000 HD
BRANCH   8  11
ATOM     10  C   UNL     1      46.315   6.407  12.350  0.00  0.00    +0.000 C 
ATOM     11  C   UNL     1      45.184   5.375  12.514  0.00  0.00    +0.000 C 
BRANCH  11  12
ATOM     12  C   UNL     1      44.985   4.628  11.196  0.00  0.00    +0.000 A 
ATOM     13  C   UNL     1      45.426   5.177   9.980  0.00  0.00    +0.000 A 
ATOM     14  C   UNL     1      45.362   4.434   8.793  0.00  0.00    +0.000 A 
ATOM     15  C   UNL     1      44.857   3.136   8.806  0.00  0.00    +0.000 A 
ATOM     16  C   UNL     1      44.375   2.594   9.994  0.00  0.00    +0.000 A 
ATOM     17  C   UNL     1      44.422   3.339  11.174  0.00  0.00    +0.000 A 
ENDBRANCH  11  12
ENDBRANCH   8  11
ENDBRANCH   7   8
ENDBRANCH   1   7
BRANCH   4  18
ATOM     18  C   UNL     1      49.231   4.764  19.041  0.00  0.00    +0.000 C 
BRANCH  18  19
ATOM     19  N   UNL     1      50.433   3.984  19.163  0.00  0.00    +0.000 N 
ATOM     20  C   UNL     1      51.654   4.486  18.784  0.00  0.00    +0.000 C 
ATOM     21  O   UNL     1      51.785   5.631  18.358  0.00  0.00    +0.000 OA
ATOM     22  H   UNL     1      50.322   2.982  19.271  0.00  0.00    +0.000 HD
BRANCH  20  23
ATOM     23  C   UNL     1      52.804   3.605  18.994  0.00  0.00    +0.000 A 
ATOM     24  C   UNL     1      53.862   4.020  19.791  0.00  0.00    +0.000 A 
ATOM     25  S   UNL     1      55.077   2.838  19.985  0.00  0.00    +0.000 S 
ATOM     26  C   UNL     1      54.266   1.755  18.956  0.00  0.00    +0.000 A 
ATOM     27  N   UNL     1      54.793   0.532  18.669  0.00  0.00    +0.000 NA
ATOM     28  C   UNL     1      54.085  -0.175  17.849  0.00  0.00    +0.000 A 
ATOM     29  N   UNL     1      52.902   0.234  17.291  0.00  0.00    +0.000 N 
ATOM     30  C   UNL     1      52.317   1.445  17.571  0.00  0.00    +0.000 A 
ATOM     31  O   UNL     1      51.240   1.757  17.084  0.00  0.00    +0.000 OA
ATOM     32  C   UNL     1      53.076   2.278  18.482  0.00  0.00    +0.000 A 
ATOM     33  H   UNL     1      52.395  -0.370  16.658  0.00  0.00    +0.000 HD
ENDBRANCH  20  23
ENDBRANCH  18  19
ENDBRANCH   4  18
TORSDOF 7
ENDMDL
MODEL 9
REMARK VINA RESULT:    -6.163      3.954      6.489
REMARK INTER + INTRA:          -9.879
REMARK INTER:                  -8.327
REMARK INTRA:                  -1.552
REMARK UNBOUND:                -1.193
REMARK  Name = 
REMARK  8 active torsions:
REMARK  status: ('A' for Active; 'I' for Inactive)
REMARK    1  A    between atoms: C_1  and  C_2
REMARK    2  A    between atoms: C_2  and  N_3
REMARK    3  A    between atoms: C_2  and  C_25
REMARK    4  A    between atoms: N_3  and  C_4
REMARK    5  A    between atoms: C_4  and  C_5
REMARK    6  A    between atoms: C_8  and  C_9
REMARK    7  A    between atoms: C_9  and  N_10
REMARK    8  A    between atoms: C_11  and  C_13
REMARK                            x       y       z     vdW  Elec       q    Type
REMARK                         _______ _______ _______ _____ _____    ______ ____
ROOT
ATOM      1  C   UNL     1      47.461   4.627  15.472  0.00  0.00    +0.000 A 
ATOM      2  C   UNL     1      47.399   3.625  16.451  0.00  0.00    +0.000 A 
ATOM      3  C   UNL     1      48.081   3.767  17.663  0.00  0.00    +0.000 A 
ATOM      4  C   UNL     1      48.829   4.923  17.923  0.00  0.00    +0.000 A 
ATOM      5  C   UNL     1      48.916   5.910  16.931  0.00  0.00    +0.000 A 
ATOM      6  C   UNL     1      48.235   5.767  15.721  0.00  0.00    +0.000 A 
ENDROOT
BRANCH   1   7
ATOM      7  C   UNL     1      46.817   4.414  14.124  0.00  0.00    +0.000 C 
BRANCH   7   8
ATOM      8  N   UNL     1      46.025   5.563  13.676  0.00  0.00    +0.000 NA
ATOM      9  H   UNL     1      46.218   6.354  14.292  0.00  0.00    +0.000 HD
BRANCH   8  11
ATOM     10  C   UNL     1      45.062   6.217  11.472  0.00  0.00    +0.000 C 
ATOM     11  C   UNL     1      46.340   5.955  12.291  0.00  0.00    +0.000 C 
BRANCH  11  12
ATOM     12  C   UNL     1      47.229   7.197  12.254  0.00  0.00    +0.000 A 
ATOM     13  C   UNL     1      48.623   7.083  12.121  0.00  0.00    +0.000 A 
ATOM     14  C   UNL     1      49.422   8.223  11.955  0.00  0.00    +0.000 A 
ATOM     15  C   UNL     1      48.839   9.488  11.920  0.00  0.00    +0.000 A 
ATOM     16  C   UNL     1      47.465   9.620  12.094  0.00  0.00    +0.000 A 
ATOM     17  C   UNL     1      46.670   8.486  12.277  0.00  0.00    +0.000 A 
ENDBRANCH  11  12
ENDBRANCH   8  11
ENDBRANCH   7   8
ENDBRANCH   1   7
BRANCH   4  18
ATOM     18  C   UNL     1      49.558   5.098  19.229  0.00  0.00    +0.000 C 
BRANCH  18  19
ATOM     19  N   UNL     1      50.696   4.223  19.314  0.00  0.00    +0.000 N 
ATOM     20  C   UNL     1      51.950   4.640  18.935  0.00  0.00    +0.000 C 
ATOM     21  O   UNL     1      52.165   5.784  18.543  0.00  0.00    +0.000 OA
ATOM     22  H   UNL     1      50.509   3.229  19.392  0.00  0.00    +0.000 HD
BRANCH  20  23
ATOM     23  C   UNL     1      53.029   3.666  19.106  0.00  0.00    +0.000 A 
ATOM     24  C   UNL     1      54.136   3.983  19.880  0.00  0.00    +0.000 A 
ATOM     25  S   UNL     1      55.256   2.705  20.029  0.00  0.00    +0.000 S 
ATOM     26  C   UNL     1      54.335   1.705  19.007  0.00  0.00    +0.000 A 
ATOM     27  N   UNL     1      54.754   0.448  18.692  0.00  0.00    +0.000 NA
ATOM     28  C   UNL     1      53.972  -0.188  17.882  0.00  0.00    +0.000 A 
ATOM     29  N   UNL     1      52.812   0.322  17.360  0.00  0.00    +0.000 N 
ATOM     30  C   UNL     1      52.334   1.573  17.669  0.00  0.00    +0.000 A 
ATOM     31  O   UNL     1      51.274   1.978  17.214  0.00  0.00    +0.000 OA
ATOM     32  C   UNL     1      53.181   2.329  18.571  0.00  0.00    +0.000 A 
ATOM     33  H   UNL     1      52.243  -0.229  16.732  0.00  0.00    +0.000 HD
ENDBRANCH  20  23
ENDBRANCH  18  19
ENDBRANCH   4  18
TORSDOF 7
ENDMDL
