MODEL 1
REMARK VINA RESULT:    -7.369      0.000      0.000
REMARK INTER + INTRA:          -9.807
REMARK INTER:                  -9.307
REMARK INTRA:                  -0.500
REMARK UNBOUND:                -0.500
REMARK  Name = 
REMARK  5 active torsions:
REMARK  status: ('A' for Active; 'I' for Inactive)
REMARK    1  A    between atoms: N_1  and  C_2
REMARK    2  A    between atoms: C_2  and  C_3
REMARK    3  A    between atoms: C_6  and  O_7
REMARK    4  A    between atoms: O_7  and  C_8
REMARK    5  A    between atoms: C_8  and  C_9
REMARK                            x       y       z     vdW  Elec       q    Type
REMARK                         _______ _______ _______ _____ _____    ______ ____
ROOT
ATOM      1  C   UNL     1      47.039   2.396   7.267  0.00  0.00    +0.000 A 
ATOM      2  C   UNL     1      46.415   1.405   8.040  0.00  0.00    +0.000 A 
ATOM      3  C   UNL     1      45.323   1.720   8.856  0.00  0.00    +0.000 A 
ATOM      4  C   UNL     1      44.848   3.030   8.917  0.00  0.00    +0.000 A 
ATOM      5  C   UNL     1      45.421   4.005   8.098  0.00  0.00    +0.000 A 
ATOM      6  C   UNL     1      46.516   3.695   7.292  0.00  0.00    +0.000 A 
ENDROOT
BRANCH   1   7
ATOM      7  C   UNL     1      48.261   2.085   6.445  0.00  0.00    +0.000 C 
BRANCH   7   8
ATOM      8  N   UNL     1      48.132   2.583   5.082  0.00  0.00    +0.000 NA
ATOM      9  H   UNL     1      47.347   2.117   4.633  0.00  0.00    +0.000 HD
ATOM     10  H   UNL     1      48.964   2.318   4.558  0.00  0.00    +0.000 HD
ENDBRANCH   7   8
ENDBRANCH   1   7
BRANCH   4  11
ATOM     11  O   UNL     1      43.835   3.260   9.815  0.00  0.00    +0.000 OA
BRANCH  11  12
ATOM     12  C   UNL     1      43.750   4.614  10.268  0.00  0.00    +0.000 C 
BRANCH  12  13
ATOM     13  C   UNL     1      44.816   4.938  11.289  0.00  0.00    +0.000 A 
ATOM     14  C   UNL     1      45.612   6.081  11.101  0.00  0.00    +0.000 A 
ATOM     15  C   UNL     1      46.576   6.440  12.041  0.00  0.00    +0.000 A 
ATOM     16  C   UNL     1      46.748   5.662  13.184  0.00  0.00    +0.000 A 
ATOM     17 CL   UNL     1      47.939   6.104  14.343  0.00  0.00    +0.000 Cl
ATOM     18  C   UNL     1      45.958   4.533  13.392  0.00  0.00    +0.000 A 
ATOM     19  C   UNL     1      44.990   4.174  12.450  0.00  0.00    +0.000 A 
ENDBRANCH  12  13
ENDBRANCH  11  12
ENDBRANCH   4  11
TORSDOF 5
ENDMDL
MODEL 2
REMARK VINA RESULT:    -6.986      3.543      6.223
REMARK INTER + INTRA:          -9.324
REMARK INTER:                  -8.811
REMARK INTRA:                  -0.513
REMARK UNBOUND:                -0.500
REMARK  Name = 
REMARK  5 active torsions:
REMARK  status: ('A' for Active; 'I' for Inactive)
REMARK    1  A    between atoms: N_1  and  C_2
REMARK    2  A    between atoms: C_2  and  C_3
REMARK    3  A    between atoms: C_6  and  O_7
REMARK    4  A    between atoms: O_7  and  C_8
REMARK    5  A    between atoms: C_8  and  C_9
REMARK                            x       y       z     vdW  Elec       q    Type
REMARK                         _______ _______ _______ _____ _____    ______ ____
ROOT
ATOM      1  C   UNL     1      46.876   5.947  13.175  0.00  0.00    +0.000 A 
ATOM      2  C   UNL     1      46.694   6.576  11.933  0.00  0.00    +0.000 A 
ATOM      3  C   UNL     1      45.699   6.139  11.053  0.00  0.00    +0.000 A 
ATOM      4  C   UNL     1      44.880   5.065  11.397  0.00  0.00    +0.000 A 
ATOM      5  C   UNL     1      45.011   4.481  12.659  0.00  0.00    +0.000 A 
ATOM      6  C   UNL     1      46.009   4.908  13.534  0.00  0.00    +0.000 A 
ENDROOT
BRANCH   1   7
ATOM      7  C   UNL     1      47.991   6.359  14.098  0.00  0.00    +0.000 C 
BRANCH   7   8
ATOM      8  N   UNL     1      47.995   5.569  15.321  0.00  0.00    +0.000 NA
ATOM      9  H   UNL     1      48.870   5.052  15.379  0.00  0.00    +0.000 HD
ATOM     10  H   UNL     1      47.253   4.874  15.264  0.00  0.00    +0.000 HD
ENDBRANCH   7   8
ENDBRANCH   1   7
BRANCH   4  11
ATOM     11  O   UNL     1      43.997   4.649  10.431  0.00  0.00    +0.000 OA
BRANCH  11  12
ATOM     12  C   UNL     1      44.104   3.263  10.097  0.00  0.00    +0.000 C 
BRANCH  12  13
ATOM     13  C   UNL     1      45.108   3.022   8.994  0.00  0.00    +0.000 A 
ATOM     14  C   UNL     1      45.617   1.726   8.809  0.00  0.00    +0.000 A 
ATOM     15  C   UNL     1      46.512   1.452   7.776  0.00  0.00    +0.000 A 
ATOM     16  C   UNL     1      46.901   2.473   6.913  0.00  0.00    +0.000 A 
ATOM     17 CL   UNL     1      48.007   2.136   5.639  0.00  0.00    +0.000 Cl
ATOM     18  C   UNL     1      46.396   3.762   7.074  0.00  0.00    +0.000 A 
ATOM     19  C   UNL     1      45.498   4.036   8.109  0.00  0.00    +0.000 A 
ENDBRANCH  12  13
ENDBRANCH  11  12
ENDBRANCH   4  11
TORSDOF 5
ENDMDL
MODEL 3
REMARK VINA RESULT:    -6.347      3.619      6.102
REMARK INTER + INTRA:          -8.517
REMARK INTER:                  -8.035
REMARK INTRA:                  -0.482
REMARK UNBOUND:                -0.500
REMARK  Name = 
REMARK  5 active torsions:
REMARK  status: ('A' for Active; 'I' for Inactive)
REMARK    1  A    between atoms: N_1  and  C_2
REMARK    2  A    between atoms: C_2  and  C_3
REMARK    3  A    between atoms: C_6  and  O_7
REMARK    4  A    between atoms: O_7  and  C_8
REMARK    5  A    between atoms: C_8  and  C_9
REMARK                            x       y       z     vdW  Elec       q    Type
REMARK                         _______ _______ _______ _____ _____    ______ ____
ROOT
ATOM      1  C   UNL     1      44.389   7.770  11.345  0.00  0.00    +0.000 A 
ATOM      2  C   UNL     1      43.288   6.912  11.196  0.00  0.00    +0.000 A 
ATOM      3  C   UNL     1      43.454   5.525  11.254  0.00  0.00    +0.000 A 
ATOM      4  C   UNL     1      44.720   4.976  11.451  0.00  0.00    +0.000 A 
ATOM      5  C   UNL     1      45.807   5.826  11.669  0.00  0.00    +0.000 A 
ATOM      6  C   UNL     1      45.646   7.210  11.602  0.00  0.00    +0.000 A 
ENDROOT
BRANCH   1   7
ATOM      7  C   UNL     1      44.235   9.261  11.210  0.00  0.00    +0.000 C 
BRANCH   7   8
ATOM      8  N   UNL     1      43.191   9.609  10.257  0.00  0.00    +0.000 NA
ATOM      9  H   UNL     1      43.239  10.607  10.063  0.00  0.00    +0.000 HD
ATOM     10  H   UNL     1      42.284   9.442  10.690  0.00  0.00    +0.000 HD
ENDBRANCH   7   8
ENDBRANCH   1   7
BRANCH   4  11
ATOM     11  O   UNL     1      44.798   3.607  11.399  0.00  0.00    +0.000 OA
BRANCH  11  12
ATOM     12  C   UNL     1      44.131   3.024  10.276  0.00  0.00    +0.000 C 
BRANCH  12  13
ATOM     13  C   UNL     1      45.065   2.814   9.108  0.00  0.00    +0.000 A 
ATOM     14  C   UNL     1      45.474   3.927   8.355  0.00  0.00    +0.000 A 
ATOM     15  C   UNL     1      46.370   3.782   7.298  0.00  0.00    +0.000 A 
ATOM     16  C   UNL     1      46.871   2.520   6.987  0.00  0.00    +0.000 A 
ATOM     17 CL   UNL     1      47.974   2.340   5.680  0.00  0.00    +0.000 Cl
ATOM     18  C   UNL     1      46.485   1.406   7.731  0.00  0.00    +0.000 A 
ATOM     19  C   UNL     1      45.588   1.553   8.793  0.00  0.00    +0.000 A 
ENDBRANCH  12  13
ENDBRANCH  11  12
ENDBRANCH   4  11
TORSDOF 5
ENDMDL
MODEL 4
REMARK VINA RESULT:    -5.484      5.446      8.132
REMARK INTER + INTRA:          -7.426
REMARK INTER:                  -7.123
REMARK INTRA:                  -0.304
REMARK UNBOUND:                -0.500
REMARK  Name = 
REMARK  5 active torsions:
REMARK  status: ('A' for Active; 'I' for Inactive)
REMARK    1  A    between atoms: N_1  and  C_2
REMARK    2  A    between atoms: C_2  and  C_3
REMARK    3  A    between atoms: C_6  and  O_7
REMARK    4  A    between atoms: O_7  and  C_8
REMARK    5  A    between atoms: C_8  and  C_9
REMARK                            x       y       z     vdW  Elec       q    Type
REMARK                         _______ _______ _______ _____ _____    ______ ____
ROOT
ATOM      1  C   UNL     1      48.396   4.672  18.446  0.00  0.00    +0.000 A 
ATOM      2  C   UNL     1      47.833   3.439  18.083  0.00  0.00    +0.000 A 
ATOM      3  C   UNL     1      47.387   3.216  16.776  0.00  0.00    +0.000 A 
ATOM      4  C   UNL     1      47.488   4.225  15.819  0.00  0.00    +0.000 A 
ATOM      5  C   UNL     1      48.110   5.429  16.156  0.00  0.00    +0.000 A 
ATOM      6  C   UNL     1      48.546   5.656  17.461  0.00  0.00    +0.000 A 
ENDROOT
BRANCH   1   7
ATOM      7  C   UNL     1      48.811   4.949  19.866  0.00  0.00    +0.000 C 
BRANCH   7   8
ATOM      8  N   UNL     1      48.500   3.830  20.744  0.00  0.00    +0.000 NA
ATOM      9  H   UNL     1      48.859   4.030  21.675  0.00  0.00    +0.000 HD
ATOM     10  H   UNL     1      48.999   3.006  20.413  0.00  0.00    +0.000 HD
ENDBRANCH   7   8
ENDBRANCH   1   7
BRANCH   4  11
ATOM     11  O   UNL     1      46.938   3.947  14.592  0.00  0.00    +0.000 OA
BRANCH  11  12
ATOM     12  C   UNL     1      46.230   5.042  14.005  0.00  0.00    +0.000 C 
BRANCH  12  13
ATOM     13  C   UNL     1      45.778   4.735  12.596  0.00  0.00    +0.000 A 
ATOM     14  C   UNL     1      45.914   5.723  11.608  0.00  0.00    +0.000 A 
ATOM     15  C   UNL     1      45.551   5.466  10.287  0.00  0.00    +0.000 A 
ATOM     16  C   UNL     1      45.053   4.212   9.942  0.00  0.00    +0.000 A 
ATOM     17 CL   UNL     1      44.603   3.894   8.312  0.00  0.00    +0.000 Cl
ATOM     18  C   UNL     1      44.924   3.215  10.907  0.00  0.00    +0.000 A 
ATOM     19  C   UNL     1      45.290   3.473  12.231  0.00  0.00    +0.000 A 
ENDBRANCH  12  13
ENDBRANCH  11  12
ENDBRANCH   4  11
TORSDOF 5
ENDMDL
MODEL 5
REMARK VINA RESULT:    -5.202      4.665      6.502
REMARK INTER + INTRA:          -7.070
REMARK INTER:                  -6.661
REMARK INTRA:                  -0.408
REMARK UNBOUND:                -0.500
REMARK  Name = 
REMARK  5 active torsions:
REMARK  status: ('A' for Active; 'I' for Inactive)
REMARK    1  A    between atoms: N_1  and  C_2
REMARK    2  A    between atoms: C_2  and  C_3
REMARK    3  A    between atoms: C_6  and  O_7
REMARK    4  A    between atoms: O_7  and  C_8
REMARK    5  A    between atoms: C_8  and  C_9
REMARK                            x       y       z     vdW  Elec       q    Type
REMARK                         _______ _______ _______ _____ _____    ______ ____
ROOT
ATOM      1  C   UNL     1      45.159   4.394  11.749  0.00  0.00    +0.000 A 
ATOM      2  C   UNL     1      45.562   5.697  12.082  0.00  0.00    +0.000 A 
ATOM      3  C   UNL     1      46.419   5.923  13.163  0.00  0.00    +0.000 A 
ATOM      4  C   UNL     1      46.877   4.853  13.932  0.00  0.00    +0.000 A 
ATOM      5  C   UNL     1      46.535   3.550  13.563  0.00  0.00    +0.000 A 
ATOM      6  C   UNL     1      45.672   3.323  12.491  0.00  0.00    +0.000 A 
ENDROOT
BRANCH   1   7
ATOM      7  C   UNL     1      44.178   4.145  10.635  0.00  0.00    +0.000 C 
BRANCH   7   8
ATOM      8  N   UNL     1      43.381   5.329  10.347  0.00  0.00    +0.000 NA
ATOM      9  H   UNL     1      43.816   5.843   9.583  0.00  0.00    +0.000 HD
ATOM     10  H   UNL     1      43.403   5.944  11.159  0.00  0.00    +0.000 HD
ENDBRANCH   7   8
ENDBRANCH   1   7
BRANCH   4  11
ATOM     11  O   UNL     1      47.636   5.182  15.028  0.00  0.00    +0.000 OA
BRANCH  11  12
ATOM     12  C   UNL     1      47.446   4.320  16.152  0.00  0.00    +0.000 C 
BRANCH  12  13
ATOM     13  C   UNL     1      48.748   3.730  16.641  0.00  0.00    +0.000 A 
ATOM     14  C   UNL     1      49.688   4.572  17.258  0.00  0.00    +0.000 A 
ATOM     15  C   UNL     1      50.882   4.060  17.762  0.00  0.00    +0.000 A 
ATOM     16  C   UNL     1      51.145   2.696  17.659  0.00  0.00    +0.000 A 
ATOM     17 CL   UNL     1      52.619   2.064  18.279  0.00  0.00    +0.000 Cl
ATOM     18  C   UNL     1      50.218   1.844  17.061  0.00  0.00    +0.000 A 
ATOM     19  C   UNL     1      49.020   2.358  16.557  0.00  0.00    +0.000 A 
ENDBRANCH  12  13
ENDBRANCH  11  12
ENDBRANCH   4  11
TORSDOF 5
ENDMDL
MODEL 6
REMARK VINA RESULT:    -5.124      3.432      4.951
REMARK INTER + INTRA:          -6.972
REMARK INTER:                  -6.672
REMARK INTRA:                  -0.299
REMARK UNBOUND:                -0.500
REMARK  Name = 
REMARK  5 active torsions:
REMARK  status: ('A' for Active; 'I' for Inactive)
REMARK    1  A    between atoms: N_1  and  C_2
REMARK    2  A    between atoms: C_2  and  C_3
REMARK    3  A    between atoms: C_6  and  O_7
REMARK    4  A    between atoms: O_7  and  C_8
REMARK    5  A    between atoms: C_8  and  C_9
REMARK                            x       y       z     vdW  Elec       q    Type
REMARK                         _______ _______ _______ _____ _____    ______ ____
ROOT
ATOM      1  C   UNL     1      44.921   4.278   9.991  0.00  0.00    +0.000 A 
ATOM      2  C   UNL     1      44.736   3.163  10.823  0.00  0.00    +0.000 A 
ATOM      3  C   UNL     1      45.054   3.228  12.184  0.00  0.00    +0.000 A 
ATOM      4  C   UNL     1      45.568   4.404  12.729  0.00  0.00    +0.000 A 
ATOM      5  C   UNL     1      45.689   5.537  11.921  0.00  0.00    +0.000 A 
ATOM      6  C   UNL     1      45.383   5.471  10.562  0.00  0.00    +0.000 A 
ENDROOT
BRANCH   1   7
ATOM      7  C   UNL     1      44.655   4.196   8.513  0.00  0.00    +0.000 C 
BRANCH   7   8
ATOM      8  N   UNL     1      45.567   3.274   7.852  0.00  0.00    +0.000 NA
ATOM      9  H   UNL     1      46.165   3.798   7.216  0.00  0.00    +0.000 HD
ATOM     10  H   UNL     1      45.024   2.633   7.276  0.00  0.00    +0.000 HD
ENDBRANCH   7   8
ENDBRANCH   1   7
BRANCH   4  11
ATOM     11  O   UNL     1      45.938   4.343  14.049  0.00  0.00    +0.000 OA
BRANCH  11  12
ATOM     12  C   UNL     1      47.239   4.871  14.319  0.00  0.00    +0.000 C 
BRANCH  12  13
ATOM     13  C   UNL     1      47.608   4.752  15.779  0.00  0.00    +0.000 A 
ATOM     14  C   UNL     1      47.189   3.618  16.496  0.00  0.00    +0.000 A 
ATOM     15  C   UNL     1      47.547   3.448  17.832  0.00  0.00    +0.000 A 
ATOM     16  C   UNL     1      48.333   4.410  18.464  0.00  0.00    +0.000 A 
ATOM     17 CL   UNL     1      48.771   4.201  20.113  0.00  0.00    +0.000 Cl
ATOM     18  C   UNL     1      48.767   5.534  17.764  0.00  0.00    +0.000 A 
ATOM     19  C   UNL     1      48.410   5.703  16.423  0.00  0.00    +0.000 A 
ENDBRANCH  12  13
ENDBRANCH  11  12
ENDBRANCH   4  11
TORSDOF 5
ENDMDL
MODEL 7
REMARK VINA RESULT:    -5.002      4.001      5.669
REMARK INTER + INTRA:          -6.818
REMARK INTER:                  -6.410
REMARK INTRA:                  -0.408
REMARK UNBOUND:                -0.500
REMARK  Name = 
REMARK  5 active torsions:
REMARK  status: ('A' for Active; 'I' for Inactive)
REMARK    1  A    between atoms: N_1  and  C_2
REMARK    2  A    between atoms: C_2  and  C_3
REMARK    3  A    between atoms: C_6  and  O_7
REMARK    4  A    between atoms: O_7  and  C_8
REMARK    5  A    between atoms: C_8  and  C_9
REMARK                            x       y       z     vdW  Elec       q    Type
REMARK                         _______ _______ _______ _____ _____    ______ ____
ROOT
ATOM      1  C   UNL     1      44.466   4.097  11.477  0.00  0.00    +0.000 A 
ATOM      2  C   UNL     1      45.240   4.018  12.645  0.00  0.00    +0.000 A 
ATOM      3  C   UNL     1      45.804   5.168  13.206  0.00  0.00    +0.000 A 
ATOM      4  C   UNL     1      45.610   6.410  12.603  0.00  0.00    +0.000 A 
ATOM      5  C   UNL     1      44.784   6.505  11.481  0.00  0.00    +0.000 A 
ATOM      6  C   UNL     1      44.229   5.357  10.914  0.00  0.00    +0.000 A 
ENDROOT
BRANCH   1   7
ATOM      7  C   UNL     1      43.917   2.858  10.823  0.00  0.00    +0.000 C 
BRANCH   7   8
ATOM      8  N   UNL     1      43.026   2.129  11.715  0.00  0.00    +0.000 NA
ATOM      9  H   UNL     1      42.177   1.886  11.208  0.00  0.00    +0.000 HD
ATOM     10  H   UNL     1      42.743   2.749  12.472  0.00  0.00    +0.000 HD
ENDBRANCH   7   8
ENDBRANCH   1   7
BRANCH   4  11
ATOM     11  O   UNL     1      46.279   7.466  13.171  0.00  0.00    +0.000 OA
BRANCH  11  12
ATOM     12  C   UNL     1      46.484   8.573  12.290  0.00  0.00    +0.000 C 
BRANCH  12  13
ATOM     13  C   UNL     1      47.947   8.784  11.976  0.00  0.00    +0.000 A 
ATOM     14  C   UNL     1      48.767   7.662  11.771  0.00  0.00    +0.000 A 
ATOM     15  C   UNL     1      50.111   7.814  11.434  0.00  0.00    +0.000 A 
ATOM     16  C   UNL     1      50.646   9.092  11.294  0.00  0.00    +0.000 A 
ATOM     17 CL   UNL     1      52.306   9.279  10.882  0.00  0.00    +0.000 Cl
ATOM     18  C   UNL     1      49.844  10.216  11.481  0.00  0.00    +0.000 A 
ATOM     19  C   UNL     1      48.496  10.063  11.817  0.00  0.00    +0.000 A 
ENDBRANCH  12  13
ENDBRANCH  11  12
ENDBRANCH   4  11
TORSDOF 5
ENDMDL
MODEL 8
REMARK VINA RESULT:    -4.891      5.590      8.660
REMARK INTER + INTRA:          -6.677
REMARK INTER:                  -6.240
REMARK INTRA:                  -0.437
REMARK UNBOUND:                -0.500
REMARK  Name = 
REMARK  5 active torsions:
REMARK  status: ('A' for Active; 'I' for Inactive)
REMARK    1  A    between atoms: N_1  and  C_2
REMARK    2  A    between atoms: C_2  and  C_3
REMARK    3  A    between atoms: C_6  and  O_7
REMARK    4  A    between atoms: O_7  and  C_8
REMARK    5  A    between atoms: C_8  and  C_9
REMARK                            x       y       z     vdW  Elec       q    Type
REMARK                         _______ _______ _______ _____ _____    ______ ____
ROOT
ATOM      1  C   UNL     1      48.419   5.459  18.838  0.00  0.00    +0.000 A 
ATOM      2  C   UNL     1      48.856   6.645  18.227  0.00  0.00    +0.000 A 
ATOM      3  C   UNL     1      48.886   6.759  16.834  0.00  0.00    +0.000 A 
ATOM      4  C   UNL     1      48.488   5.689  16.033  0.00  0.00    +0.000 A 
ATOM      5  C   UNL     1      47.987   4.533  16.635  0.00  0.00    +0.000 A 
ATOM      6  C   UNL     1      47.966   4.413  18.024  0.00  0.00    +0.000 A 
ENDROOT
BRANCH   1   7
ATOM      7  C   UNL     1      48.454   5.297  20.334  0.00  0.00    +0.000 C 
BRANCH   7   8
ATOM      8  N   UNL     1      48.491   3.894  20.722  0.00  0.00    +0.000 NA
ATOM      9  H   UNL     1      47.815   3.739  21.467  0.00  0.00    +0.000 HD
ATOM     10  H   UNL     1      49.408   3.688  21.115  0.00  0.00    +0.000 HD
ENDBRANCH   7   8
ENDBRANCH   1   7
BRANCH   4  11
ATOM     11  O   UNL     1      48.642   5.862  14.679  0.00  0.00    +0.000 OA
BRANCH  11  12
ATOM     12  C   UNL     1      47.731   6.800  14.101  0.00  0.00    +0.000 C 
BRANCH  12  13
ATOM     13  C   UNL     1      46.838   6.159  13.065  0.00  0.00    +0.000 A 
ATOM     14  C   UNL     1      46.003   5.097  13.449  0.00  0.00    +0.000 A 
ATOM     15  C   UNL     1      45.132   4.508  12.535  0.00  0.00    +0.000 A 
ATOM     16  C   UNL     1      45.084   4.980  11.226  0.00  0.00    +0.000 A 
ATOM     17 CL   UNL     1      44.011   4.252  10.096  0.00  0.00    +0.000 Cl
ATOM     18  C   UNL     1      45.897   6.042  10.830  0.00  0.00    +0.000 A 
ATOM     19  C   UNL     1      46.769   6.633  11.748  0.00  0.00    +0.000 A 
ENDBRANCH  12  13
ENDBRANCH  11  12
ENDBRANCH   4  11
TORSDOF 5
ENDMDL
MODEL 9
REMARK VINA RESULT:    -4.830      4.171      6.594
REMARK INTER + INTRA:          -6.600
REMARK INTER:                  -6.098
REMARK INTRA:                  -0.502
REMARK UNBOUND:                -0.500
REMARK  Name = 
REMARK  5 active torsions:
REMARK  status: ('A' for Active; 'I' for Inactive)
REMARK    1  A    between atoms: N_1  and  C_2
REMARK    2  A    between atoms: C_2  and  C_3
REMARK    3  A    between atoms: C_6  and  O_7
REMARK    4  A    between atoms: O_7  and  C_8
REMARK    5  A    between atoms: C_8  and  C_9
REMARK                            x       y       z     vdW  Elec       q    Type
REMARK                         _______ _______ _______ _____ _____    ______ ____
ROOT
ATOM      1  C   UNL     1      49.411   7.882  13.803  0.00  0.00    +0.000 A 
ATOM      2  C   UNL     1      49.354   7.364  12.500  0.00  0.00    +0.000 A 
ATOM      3  C   UNL     1      48.146   7.340  11.795  0.00  0.00    +0.000 A 
ATOM      4  C   UNL     1      46.979   7.824  12.385  0.00  0.00    +0.000 A 
ATOM      5  C   UNL     1      47.044   8.404  13.654  0.00  0.00    +0.000 A 
ATOM      6  C   UNL     1      48.245   8.419  14.363  0.00  0.00    +0.000 A 
ENDROOT
BRANCH   1   7
ATOM      7  C   UNL     1      50.687   7.844  14.599  0.00  0.00    +0.000 C 
BRANCH   7   8
ATOM      8  N   UNL     1      50.729   6.696  15.493  0.00  0.00    +0.000 NA
ATOM      9  H   UNL     1      51.696   6.511  15.750  0.00  0.00    +0.000 HD
ATOM     10  H   UNL     1      50.402   5.875  14.987  0.00  0.00    +0.000 HD
ENDBRANCH   7   8
ENDBRANCH   1   7
BRANCH   4  11
ATOM     11  O   UNL     1      45.828   7.672  11.653  0.00  0.00    +0.000 OA
BRANCH  11  12
ATOM     12  C   UNL     1      44.886   6.761  12.225  0.00  0.00    +0.000 C 
BRANCH  12  13
ATOM     13  C   UNL     1      44.773   5.485  11.425  0.00  0.00    +0.000 A 
ATOM     14  C   UNL     1      45.326   5.440  10.134  0.00  0.00    +0.000 A 
ATOM     15  C   UNL     1      45.283   4.269   9.380  0.00  0.00    +0.000 A 
ATOM     16  C   UNL     1      44.692   3.127   9.915  0.00  0.00    +0.000 A 
ATOM     17 CL   UNL     1      44.637   1.681   8.984  0.00  0.00    +0.000 Cl
ATOM     18  C   UNL     1      44.150   3.150  11.199  0.00  0.00    +0.000 A 
ATOM     19  C   UNL     1      44.195   4.324  11.955  0.00  0.00    +0.000 A 
ENDBRANCH  12  13
ENDBRANCH  11  12
ENDBRANCH   4  11
TORSDOF 5
ENDMDL
