MODEL 1
REMARK VINA RESULT:    -9.000      0.000      0.000
REMARK INTER + INTRA:         -12.414
REMARK INTER:                 -11.631
REMARK INTRA:                  -0.784
REMARK UNBOUND:                -0.784
REMARK  Name = 
REMARK  5 active torsions:
REMARK  status: ('A' for Active; 'I' for Inactive)
REMARK    1  A    between atoms: C_2  and  C_4
REMARK    2  A    between atoms: C_7  and  N_8
REMARK    3  A    between atoms: N_8  and  C_9
REMARK    4  A    between atoms: C_9  and  C_10
REMARK    5  A    between atoms: C_12  and  C_13
REMARK                            x       y       z     vdW  Elec       q    Type
REMARK                         _______ _______ _______ _____ _____    ______ ____
ROOT
ATOM      1  C   UNL     1      43.671   4.412  11.488  0.00  0.00    +0.000 C 
ENDROOT
BRANCH   1   2
ATOM      2  C   UNL     1      44.956   4.814  12.182  0.00  0.00    +0.000 A 
ATOM      3  C   UNL     1      45.568   6.024  11.849  0.00  0.00    +0.000 A 
ATOM      4  C   UNL     1      46.719   6.444  12.529  0.00  0.00    +0.000 A 
ATOM      5  C   UNL     1      47.206   5.591  13.528  0.00  0.00    +0.000 A 
ATOM      6  C   UNL     1      46.540   4.408  13.801  0.00  0.00    +0.000 A 
ATOM      7  N   UNL     1      45.430   4.001  13.155  0.00  0.00    +0.000 NA
BRANCH   4   8
ATOM      8  C   UNL     1      47.365   7.739  12.226  0.00  0.00    +0.000 A 
ATOM      9  C   UNL     1      48.717   7.816  11.834  0.00  0.00    +0.000 A 
ATOM     10  C   UNL     1      49.317   9.036  11.504  0.00  0.00    +0.000 A 
ATOM     11  C   UNL     1      48.578  10.211  11.571  0.00  0.00    +0.000 A 
ATOM     12  C   UNL     1      47.251  10.156  11.970  0.00  0.00    +0.000 A 
ATOM     13  F   UNL     1      46.533  11.284  12.038  0.00  0.00    +0.000 F 
ATOM     14  C   UNL     1      46.646   8.945  12.294  0.00  0.00    +0.000 A 
ENDBRANCH   4   8
ENDBRANCH   1   2
BRANCH   1  15
ATOM     15  N   UNL     1      43.751   4.692  10.053  0.00  0.00    +0.000 N 
ATOM     16  H   UNL     1      43.842   5.691   9.882  0.00  0.00    +0.000 HD
BRANCH  15  20
ATOM     17  C   UNL     1      46.384   2.289   7.792  0.00  0.00    +0.000 A 
ATOM     18  C   UNL     1      46.372   3.669   7.600  0.00  0.00    +0.000 A 
ATOM     19  C   UNL     1      45.480   4.470   8.320  0.00  0.00    +0.000 A 
ATOM     20  C   UNL     1      44.563   3.917   9.224  0.00  0.00    +0.000 A 
ATOM     21  C   UNL     1      44.592   2.528   9.406  0.00  0.00    +0.000 A 
ATOM     22  C   UNL     1      45.477   1.715   8.688  0.00  0.00    +0.000 A 
BRANCH  17  24
ATOM     23  N   UNL     1      48.453   2.013   6.546  0.00  0.00    +0.000 N 
ATOM     24  C   UNL     1      47.332   1.419   7.060  0.00  0.00    +0.000 C 
ATOM     25  O   UNL     1      47.147   0.213   6.947  0.00  0.00    +0.000 OA
ATOM     26  H   UNL     1      49.137   1.394   6.134  0.00  0.00    +0.000 HD
ATOM     27  H   UNL     1      48.767   2.923   6.853  0.00  0.00    +0.000 HD
ENDBRANCH  17  24
ENDBRANCH  15  20
ENDBRANCH   1  15
TORSDOF 5
ENDMDL
MODEL 2
REMARK VINA RESULT:    -8.936      1.133      1.788
REMARK INTER + INTRA:         -12.332
REMARK INTER:                 -11.589
REMARK INTRA:                  -0.743
REMARK UNBOUND:                -0.784
REMARK  Name = 
REMARK  5 active torsions:
REMARK  status: ('A' for Active; 'I' for Inactive)
REMARK    1  A    between atoms: C_2  and  C_4
REMARK    2  A    between atoms: C_7  and  N_8
REMARK    3  A    between atoms: N_8  and  C_9
REMARK    4  A    between atoms: C_9  and  C_10
REMARK    5  A    between atoms: C_12  and  C_13
REMARK                            x       y       z     vdW  Elec       q    Type
REMARK                         _______ _______ _______ _____ _____    ______ ____
ROOT
ATOM      1  C   UNL     1      43.540   4.798  11.357  0.00  0.00    +0.000 C 
ENDROOT
BRANCH   1   2
ATOM      2  C   UNL     1      44.869   5.029  12.045  0.00  0.00    +0.000 A 
ATOM      3  C   UNL     1      45.628   6.154  11.716  0.00  0.00    +0.000 A 
ATOM      4  C   UNL     1      46.827   6.419  12.390  0.00  0.00    +0.000 A 
ATOM      5  C   UNL     1      47.208   5.503  13.380  0.00  0.00    +0.000 A 
ATOM      6  C   UNL     1      46.399   4.412  13.649  0.00  0.00    +0.000 A 
ATOM      7  N   UNL     1      45.242   4.154  13.009  0.00  0.00    +0.000 NA
BRANCH   4   8
ATOM      8  C   UNL     1      47.630   7.624  12.092  0.00  0.00    +0.000 A 
ATOM      9  C   UNL     1      47.068   8.916  12.139  0.00  0.00    +0.000 A 
ATOM     10  C   UNL     1      47.838  10.060  11.901  0.00  0.00    +0.000 A 
ATOM     11  C   UNL     1      49.189   9.934  11.597  0.00  0.00    +0.000 A 
ATOM     12  C   UNL     1      49.754   8.670  11.531  0.00  0.00    +0.000 A 
ATOM     13  F   UNL     1      51.055   8.541  11.238  0.00  0.00    +0.000 F 
ATOM     14  C   UNL     1      48.996   7.528  11.773  0.00  0.00    +0.000 A 
ENDBRANCH   4   8
ENDBRANCH   1   2
BRANCH   1  15
ATOM     15  N   UNL     1      43.705   4.798   9.902  0.00  0.00    +0.000 N 
ATOM     16  H   UNL     1      43.722   5.748   9.538  0.00  0.00    +0.000 HD
BRANCH  15  20
ATOM     17  C   UNL     1      46.390   2.308   7.803  0.00  0.00    +0.000 A 
ATOM     18  C   UNL     1      45.500   1.748   8.717  0.00  0.00    +0.000 A 
ATOM     19  C   UNL     1      44.630   2.567   9.441  0.00  0.00    +0.000 A 
ATOM     20  C   UNL     1      44.643   3.961   9.296  0.00  0.00    +0.000 A 
ATOM     21  C   UNL     1      45.542   4.506   8.370  0.00  0.00    +0.000 A 
ATOM     22  C   UNL     1      46.422   3.696   7.641  0.00  0.00    +0.000 A 
BRANCH  17  24
ATOM     23  N   UNL     1      48.428   2.066   6.500  0.00  0.00    +0.000 N 
ATOM     24  C   UNL     1      47.308   1.463   7.006  0.00  0.00    +0.000 C 
ATOM     25  O   UNL     1      47.101   0.268   6.832  0.00  0.00    +0.000 OA
ATOM     26  H   UNL     1      49.094   1.459   6.041  0.00  0.00    +0.000 HD
ATOM     27  H   UNL     1      48.764   2.953   6.849  0.00  0.00    +0.000 HD
ENDBRANCH  17  24
ENDBRANCH  15  20
ENDBRANCH   1  15
TORSDOF 5
ENDMDL
MODEL 3
REMARK VINA RESULT:    -8.629      2.709      3.992
REMARK INTER + INTRA:         -11.935
REMARK INTER:                 -11.400
REMARK INTRA:                  -0.535
REMARK UNBOUND:                -0.784
REMARK  Name = 
REMARK  5 active torsions:
REMARK  status: ('A' for Active; 'I' for Inactive)
REMARK    1  A    between atoms: C_2  and  C_4
REMARK    2  A    between atoms: C_7  and  N_8
REMARK    3  A    between atoms: N_8  and  C_9
REMARK    4  A    between atoms: C_9  and  C_10
REMARK    5  A    between atoms: C_12  and  C_13
REMARK                            x       y       z     vdW  Elec       q    Type
REMARK                         _______ _______ _______ _____ _____    ______ ____
ROOT
ATOM      1  C   UNL     1      43.872   4.733  11.530  0.00  0.00    +0.000 C 
ENDROOT
BRANCH   1   2
ATOM      2  C   UNL     1      45.134   5.398  12.041  0.00  0.00    +0.000 A 
ATOM      3  C   UNL     1      45.671   5.002  13.268  0.00  0.00    +0.000 A 
ATOM      4  C   UNL     1      46.874   5.558  13.723  0.00  0.00    +0.000 A 
ATOM      5  C   UNL     1      47.479   6.514  12.897  0.00  0.00    +0.000 A 
ATOM      6  C   UNL     1      46.883   6.851  11.693  0.00  0.00    +0.000 A 
ATOM      7  N   UNL     1      45.731   6.317  11.245  0.00  0.00    +0.000 NA
BRANCH   4   8
ATOM      8  C   UNL     1      47.488   5.129  14.999  0.00  0.00    +0.000 A 
ATOM      9  C   UNL     1      48.466   5.910  15.647  0.00  0.00    +0.000 A 
ATOM     10  C   UNL     1      49.014   5.527  16.875  0.00  0.00    +0.000 A 
ATOM     11  C   UNL     1      48.604   4.344  17.478  0.00  0.00    +0.000 A 
ATOM     12  C   UNL     1      47.655   3.555  16.847  0.00  0.00    +0.000 A 
ATOM     13  F   UNL     1      47.255   2.413  17.421  0.00  0.00    +0.000 F 
ATOM     14  C   UNL     1      47.100   3.933  15.627  0.00  0.00    +0.000 A 
ENDBRANCH   4   8
ENDBRANCH   1   2
BRANCH   1  15
ATOM     15  N   UNL     1      43.795   4.827  10.070  0.00  0.00    +0.000 N 
ATOM     16  H   UNL     1      43.797   5.799   9.769  0.00  0.00    +0.000 HD
BRANCH  15  20
ATOM     17  C   UNL     1      46.342   2.270   7.882  0.00  0.00    +0.000 A 
ATOM     18  C   UNL     1      46.370   3.642   7.642  0.00  0.00    +0.000 A 
ATOM     19  C   UNL     1      45.507   4.494   8.339  0.00  0.00    +0.000 A 
ATOM     20  C   UNL     1      44.579   4.000   9.265  0.00  0.00    +0.000 A 
ATOM     21  C   UNL     1      44.567   2.618   9.495  0.00  0.00    +0.000 A 
ATOM     22  C   UNL     1      45.423   1.754   8.801  0.00  0.00    +0.000 A 
BRANCH  17  24
ATOM     23  N   UNL     1      48.309   1.907   6.501  0.00  0.00    +0.000 N 
ATOM     24  C   UNL     1      47.258   1.346   7.176  0.00  0.00    +0.000 C 
ATOM     25  O   UNL     1      47.112   0.131   7.219  0.00  0.00    +0.000 OA
ATOM     26  H   UNL     1      48.981   1.264   6.105  0.00  0.00    +0.000 HD
ATOM     27  H   UNL     1      48.613   2.856   6.673  0.00  0.00    +0.000 HD
ENDBRANCH  17  24
ENDBRANCH  15  20
ENDBRANCH   1  15
TORSDOF 5
ENDMDL
MODEL 4
REMARK VINA RESULT:    -8.319      3.811      6.895
REMARK INTER + INTRA:         -11.534
REMARK INTER:                 -10.718
REMARK INTRA:                  -0.817
REMARK UNBOUND:                -0.784
REMARK  Name = 
REMARK  5 active torsions:
REMARK  status: ('A' for Active; 'I' for Inactive)
REMARK    1  A    between atoms: C_2  and  C_4
REMARK    2  A    between atoms: C_7  and  N_8
REMARK    3  A    between atoms: N_8  and  C_9
REMARK    4  A    between atoms: C_9  and  C_10
REMARK    5  A    between atoms: C_12  and  C_13
REMARK                            x       y       z     vdW  Elec       q    Type
REMARK                         _______ _______ _______ _____ _____    ______ ____
ROOT
ATOM      1  C   UNL     1      43.266   6.279  11.391  0.00  0.00    +0.000 C 
ENDROOT
BRANCH   1   2
ATOM      2  C   UNL     1      43.525   4.817  11.094  0.00  0.00    +0.000 A 
ATOM      3  C   UNL     1      44.299   4.466   9.986  0.00  0.00    +0.000 A 
ATOM      4  C   UNL     1      44.605   3.122   9.736  0.00  0.00    +0.000 A 
ATOM      5  C   UNL     1      44.091   2.180  10.637  0.00  0.00    +0.000 A 
ATOM      6  C   UNL     1      43.333   2.609  11.714  0.00  0.00    +0.000 A 
ATOM      7  N   UNL     1      43.040   3.900  11.965  0.00  0.00    +0.000 NA
BRANCH   4   8
ATOM      8  C   UNL     1      45.456   2.724   8.594  0.00  0.00    +0.000 A 
ATOM      9  C   UNL     1      45.893   3.663   7.637  0.00  0.00    +0.000 A 
ATOM     10  C   UNL     1      46.735   3.296   6.581  0.00  0.00    +0.000 A 
ATOM     11  C   UNL     1      47.150   1.976   6.453  0.00  0.00    +0.000 A 
ATOM     12  C   UNL     1      46.717   1.036   7.376  0.00  0.00    +0.000 A 
ATOM     13  F   UNL     1      47.111  -0.238   7.259  0.00  0.00    +0.000 F 
ATOM     14  C   UNL     1      45.884   1.395   8.432  0.00  0.00    +0.000 A 
ENDBRANCH   4   8
ENDBRANCH   1   2
BRANCH   1  15
ATOM     15  N   UNL     1      44.036   6.713  12.558  0.00  0.00    +0.000 N 
ATOM     16  H   UNL     1      43.758   6.196  13.390  0.00  0.00    +0.000 HD
BRANCH  15  20
ATOM     17  C   UNL     1      48.215   7.307  12.586  0.00  0.00    +0.000 A 
ATOM     18  C   UNL     1      47.378   8.310  12.099  0.00  0.00    +0.000 A 
ATOM     19  C   UNL     1      45.996   8.109  12.056  0.00  0.00    +0.000 A 
ATOM     20  C   UNL     1      45.416   6.901  12.466  0.00  0.00    +0.000 A 
ATOM     21  C   UNL     1      46.273   5.906  12.955  0.00  0.00    +0.000 A 
ATOM     22  C   UNL     1      47.660   6.093  13.000  0.00  0.00    +0.000 A 
BRANCH  17  24
ATOM     23  N   UNL     1      50.260   7.374  13.899  0.00  0.00    +0.000 N 
ATOM     24  C   UNL     1      49.681   7.500  12.665  0.00  0.00    +0.000 C 
ATOM     25  O   UNL     1      50.358   7.725  11.669  0.00  0.00    +0.000 OA
ATOM     26  H   UNL     1      51.270   7.411  13.925  0.00  0.00    +0.000 HD
ATOM     27  H   UNL     1      49.787   6.924  14.671  0.00  0.00    +0.000 HD
ENDBRANCH  17  24
ENDBRANCH  15  20
ENDBRANCH   1  15
TORSDOF 5
ENDMDL
MODEL 5
REMARK VINA RESULT:    -8.183      4.058      7.364
REMARK INTER + INTRA:         -11.358
REMARK INTER:                 -10.906
REMARK INTRA:                  -0.452
REMARK UNBOUND:                -0.784
REMARK  Name = 
REMARK  5 active torsions:
REMARK  status: ('A' for Active; 'I' for Inactive)
REMARK    1  A    between atoms: C_2  and  C_4
REMARK    2  A    between atoms: C_7  and  N_8
REMARK    3  A    between atoms: N_8  and  C_9
REMARK    4  A    between atoms: C_9  and  C_10
REMARK    5  A    between atoms: C_12  and  C_13
REMARK                            x       y       z     vdW  Elec       q    Type
REMARK                         _______ _______ _______ _____ _____    ______ ____
ROOT
ATOM      1  C   UNL     1      45.953   7.304  11.736  0.00  0.00    +0.000 C 
ENDROOT
BRANCH   1   2
ATOM      2  C   UNL     1      45.167   6.199  11.061  0.00  0.00    +0.000 A 
ATOM      3  C   UNL     1      45.782   5.418  10.080  0.00  0.00    +0.000 A 
ATOM      4  C   UNL     1      45.091   4.349   9.494  0.00  0.00    +0.000 A 
ATOM      5  C   UNL     1      43.780   4.128   9.937  0.00  0.00    +0.000 A 
ATOM      6  C   UNL     1      43.243   4.946  10.917  0.00  0.00    +0.000 A 
ATOM      7  N   UNL     1      43.903   5.972  11.489  0.00  0.00    +0.000 NA
BRANCH   4   8
ATOM      8  C   UNL     1      45.730   3.480   8.483  0.00  0.00    +0.000 A 
ATOM      9  C   UNL     1      46.276   4.007   7.295  0.00  0.00    +0.000 A 
ATOM     10  C   UNL     1      46.920   3.191   6.358  0.00  0.00    +0.000 A 
ATOM     11  C   UNL     1      47.021   1.824   6.585  0.00  0.00    +0.000 A 
ATOM     12  C   UNL     1      46.476   1.286   7.740  0.00  0.00    +0.000 A 
ATOM     13  F   UNL     1      46.569  -0.031   7.966  0.00  0.00    +0.000 F 
ATOM     14  C   UNL     1      45.839   2.092   8.680  0.00  0.00    +0.000 A 
ENDBRANCH   4   8
ENDBRANCH   1   2
BRANCH   1  15
ATOM     15  N   UNL     1      47.287   6.832  12.114  0.00  0.00    +0.000 N 
ATOM     16  H   UNL     1      47.982   7.563  11.981  0.00  0.00    +0.000 HD
BRANCH  15  20
ATOM     17  C   UNL     1      47.556   4.687  15.739  0.00  0.00    +0.000 A 
ATOM     18  C   UNL     1      48.216   5.907  15.608  0.00  0.00    +0.000 A 
ATOM     19  C   UNL     1      48.160   6.609  14.400  0.00  0.00    +0.000 A 
ATOM     20  C   UNL     1      47.473   6.103  13.289  0.00  0.00    +0.000 A 
ATOM     21  C   UNL     1      46.812   4.876  13.440  0.00  0.00    +0.000 A 
ATOM     22  C   UNL     1      46.864   4.162  14.644  0.00  0.00    +0.000 A 
BRANCH  17  24
ATOM     23  N   UNL     1      48.670   4.107  17.821  0.00  0.00    +0.000 N 
ATOM     24  C   UNL     1      47.579   3.932  17.012  0.00  0.00    +0.000 C 
ATOM     25  O   UNL     1      46.650   3.209  17.353  0.00  0.00    +0.000 OA
ATOM     26  H   UNL     1      48.630   3.664  18.728  0.00  0.00    +0.000 HD
ATOM     27  H   UNL     1      49.302   4.888  17.707  0.00  0.00    +0.000 HD
ENDBRANCH  17  24
ENDBRANCH  15  20
ENDBRANCH   1  15
TORSDOF 5
ENDMDL
MODEL 6
REMARK VINA RESULT:    -8.081      1.913      2.434
REMARK INTER + INTRA:         -11.227
REMARK INTER:                 -10.508
REMARK INTRA:                  -0.720
REMARK UNBOUND:                -0.784
REMARK  Name = 
REMARK  5 active torsions:
REMARK  status: ('A' for Active; 'I' for Inactive)
REMARK    1  A    between atoms: C_2  and  C_4
REMARK    2  A    between atoms: C_7  and  N_8
REMARK    3  A    between atoms: N_8  and  C_9
REMARK    4  A    between atoms: C_9  and  C_10
REMARK    5  A    between atoms: C_12  and  C_13
REMARK                            x       y       z     vdW  Elec       q    Type
REMARK                         _______ _______ _______ _____ _____    ______ ____
ROOT
ATOM      1  C   UNL     1      44.403   4.000  11.877  0.00  0.00    +0.000 C 
ENDROOT
BRANCH   1   2
ATOM      2  C   UNL     1      44.844   5.449  11.902  0.00  0.00    +0.000 A 
ATOM      3  C   UNL     1      46.159   5.762  12.253  0.00  0.00    +0.000 A 
ATOM      4  C   UNL     1      46.603   7.090  12.215  0.00  0.00    +0.000 A 
ATOM      5  C   UNL     1      45.666   8.056  11.823  0.00  0.00    +0.000 A 
ATOM      6  C   UNL     1      44.380   7.664  11.488  0.00  0.00    +0.000 A 
ATOM      7  N   UNL     1      43.949   6.388  11.516  0.00  0.00    +0.000 NA
BRANCH   4   8
ATOM      8  C   UNL     1      48.000   7.447  12.541  0.00  0.00    +0.000 A 
ATOM      9  C   UNL     1      48.767   8.277  11.697  0.00  0.00    +0.000 A 
ATOM     10  C   UNL     1      50.073   8.651  12.027  0.00  0.00    +0.000 A 
ATOM     11  C   UNL     1      50.648   8.192  13.207  0.00  0.00    +0.000 A 
ATOM     12  C   UNL     1      49.914   7.362  14.041  0.00  0.00    +0.000 A 
ATOM     13  F   UNL     1      50.462   6.916  15.179  0.00  0.00    +0.000 F 
ATOM     14  C   UNL     1      48.611   6.991  13.722  0.00  0.00    +0.000 A 
ENDBRANCH   4   8
ENDBRANCH   1   2
BRANCH   1  15
ATOM     15  N   UNL     1      43.821   3.660  10.578  0.00  0.00    +0.000 N 
ATOM     16  H   UNL     1      43.061   4.295  10.343  0.00  0.00    +0.000 HD
BRANCH  15  20
ATOM     17  C   UNL     1      46.532   2.696   7.489  0.00  0.00    +0.000 A 
ATOM     18  C   UNL     1      46.136   4.019   7.672  0.00  0.00    +0.000 A 
ATOM     19  C   UNL     1      45.214   4.344   8.671  0.00  0.00    +0.000 A 
ATOM     20  C   UNL     1      44.642   3.361   9.490  0.00  0.00    +0.000 A 
ATOM     21  C   UNL     1      45.055   2.036   9.294  0.00  0.00    +0.000 A 
ATOM     22  C   UNL     1      45.975   1.697   8.294  0.00  0.00    +0.000 A 
BRANCH  17  24
ATOM     23  N   UNL     1      47.507   3.044   5.290  0.00  0.00    +0.000 N 
ATOM     24  C   UNL     1      47.524   2.325   6.455  0.00  0.00    +0.000 C 
ATOM     25  O   UNL     1      48.351   1.441   6.639  0.00  0.00    +0.000 OA
ATOM     26  H   UNL     1      48.249   2.847   4.632  0.00  0.00    +0.000 HD
ATOM     27  H   UNL     1      47.040   3.938   5.217  0.00  0.00    +0.000 HD
ENDBRANCH  17  24
ENDBRANCH  15  20
ENDBRANCH   1  15
TORSDOF 5
ENDMDL
MODEL 7
REMARK VINA RESULT:    -7.481      3.975      7.226
REMARK INTER + INTRA:         -10.451
REMARK INTER:                  -9.773
REMARK INTRA:                  -0.678
REMARK UNBOUND:                -0.784
REMARK  Name = 
REMARK  5 active torsions:
REMARK  status: ('A' for Active; 'I' for Inactive)
REMARK    1  A    between atoms: C_2  and  C_4
REMARK    2  A    between atoms: C_7  and  N_8
REMARK    3  A    between atoms: N_8  and  C_9
REMARK    4  A    between atoms: C_9  and  C_10
REMARK    5  A    between atoms: C_12  and  C_13
REMARK                            x       y       z     vdW  Elec       q    Type
REMARK                         _______ _______ _______ _____ _____    ______ ____
ROOT
ATOM      1  C   UNL     1      45.723   5.129  13.442  0.00  0.00    +0.000 C 
ENDROOT
BRANCH   1   2
ATOM      2  C   UNL     1      45.026   4.232  12.440  0.00  0.00    +0.000 A 
ATOM      3  C   UNL     1      45.597   4.035  11.180  0.00  0.00    +0.000 A 
ATOM      4  C   UNL     1      45.001   3.155  10.266  0.00  0.00    +0.000 A 
ATOM      5  C   UNL     1      43.827   2.513  10.682  0.00  0.00    +0.000 A 
ATOM      6  C   UNL     1      43.327   2.760  11.950  0.00  0.00    +0.000 A 
ATOM      7  N   UNL     1      43.896   3.600  12.836  0.00  0.00    +0.000 NA
BRANCH   4   8
ATOM      8  C   UNL     1      45.604   2.895   8.941  0.00  0.00    +0.000 A 
ATOM      9  C   UNL     1      45.866   3.940   8.031  0.00  0.00    +0.000 A 
ATOM     10  C   UNL     1      46.477   3.701   6.796  0.00  0.00    +0.000 A 
ATOM     11  C   UNL     1      46.830   2.405   6.437  0.00  0.00    +0.000 A 
ATOM     12  C   UNL     1      46.566   1.363   7.313  0.00  0.00    +0.000 A 
ATOM     13  F   UNL     1      46.903   0.112   6.975  0.00  0.00    +0.000 F 
ATOM     14  C   UNL     1      45.964   1.595   8.547  0.00  0.00    +0.000 A 
ENDBRANCH   4   8
ENDBRANCH   1   2
BRANCH   1  15
ATOM     15  N   UNL     1      45.342   6.527  13.234  0.00  0.00    +0.000 N 
ATOM     16  H   UNL     1      44.847   6.893  14.045  0.00  0.00    +0.000 HD
BRANCH  15  20
ATOM     17  C   UNL     1      48.275   9.219  11.831  0.00  0.00    +0.000 A 
ATOM     18  C   UNL     1      47.065   9.709  12.319  0.00  0.00    +0.000 A 
ATOM     19  C   UNL     1      46.075   8.824  12.755  0.00  0.00    +0.000 A 
ATOM     20  C   UNL     1      46.251   7.435  12.690  0.00  0.00    +0.000 A 
ATOM     21  C   UNL     1      47.475   6.961  12.199  0.00  0.00    +0.000 A 
ATOM     22  C   UNL     1      48.473   7.837  11.755  0.00  0.00    +0.000 A 
BRANCH  17  24
ATOM     23  N   UNL     1      48.984  11.180  10.581  0.00  0.00    +0.000 N 
ATOM     24  C   UNL     1      49.350  10.132  11.382  0.00  0.00    +0.000 C 
ATOM     25  O   UNL     1      50.514   9.985  11.738  0.00  0.00    +0.000 OA
ATOM     26  H   UNL     1      49.709  11.849  10.361  0.00  0.00    +0.000 HD
ATOM     27  H   UNL     1      48.023  11.485  10.501  0.00  0.00    +0.000 HD
ENDBRANCH  17  24
ENDBRANCH  15  20
ENDBRANCH   1  15
TORSDOF 5
ENDMDL
MODEL 8
REMARK VINA RESULT:    -7.328      4.628      8.112
REMARK INTER + INTRA:         -10.254
REMARK INTER:                  -9.754
REMARK INTRA:                  -0.500
REMARK UNBOUND:                -0.784
REMARK  Name = 
REMARK  5 active torsions:
REMARK  status: ('A' for Active; 'I' for Inactive)
REMARK    1  A    between atoms: C_2  and  C_4
REMARK    2  A    between atoms: C_7  and  N_8
REMARK    3  A    between atoms: N_8  and  C_9
REMARK    4  A    between atoms: C_9  and  C_10
REMARK    5  A    between atoms: C_12  and  C_13
REMARK                            x       y       z     vdW  Elec       q    Type
REMARK                         _______ _______ _______ _____ _____    ______ ____
ROOT
ATOM      1  C   UNL     1      45.956   6.011  13.483  0.00  0.00    +0.000 C 
ENDROOT
BRANCH   1   2
ATOM      2  C   UNL     1      45.071   5.459  12.384  0.00  0.00    +0.000 A 
ATOM      3  C   UNL     1      45.655   4.836  11.278  0.00  0.00    +0.000 A 
ATOM      4  C   UNL     1      44.850   4.261  10.286  0.00  0.00    +0.000 A 
ATOM      5  C   UNL     1      43.464   4.357  10.465  0.00  0.00    +0.000 A 
ATOM      6  C   UNL     1      42.963   4.989  11.591  0.00  0.00    +0.000 A 
ATOM      7  N   UNL     1      43.730   5.539  12.552  0.00  0.00    +0.000 NA
BRANCH   4   8
ATOM      8  C   UNL     1      45.440   3.559   9.126  0.00  0.00    +0.000 A 
ATOM      9  C   UNL     1      45.959   4.265   8.021  0.00  0.00    +0.000 A 
ATOM     10  C   UNL     1      46.557   3.604   6.943  0.00  0.00    +0.000 A 
ATOM     11  C   UNL     1      46.639   2.216   6.941  0.00  0.00    +0.000 A 
ATOM     12  C   UNL     1      46.119   1.505   8.012  0.00  0.00    +0.000 A 
ATOM     13  F   UNL     1      46.194   0.168   8.017  0.00  0.00    +0.000 F 
ATOM     14  C   UNL     1      45.528   2.157   9.091  0.00  0.00    +0.000 A 
ENDBRANCH   4   8
ENDBRANCH   1   2
BRANCH   1  15
ATOM     15  N   UNL     1      47.044   5.079  13.785  0.00  0.00    +0.000 N 
ATOM     16  H   UNL     1      47.822   5.207  13.142  0.00  0.00    +0.000 HD
BRANCH  15  20
ATOM     17  C   UNL     1      48.564   4.412  17.667  0.00  0.00    +0.000 A 
ATOM     18  C   UNL     1      47.766   3.443  17.061  0.00  0.00    +0.000 A 
ATOM     19  C   UNL     1      47.232   3.668  15.789  0.00  0.00    +0.000 A 
ATOM     20  C   UNL     1      47.451   4.870  15.103  0.00  0.00    +0.000 A 
ATOM     21  C   UNL     1      48.258   5.832  15.727  0.00  0.00    +0.000 A 
ATOM     22  C   UNL     1      48.796   5.620  17.002  0.00  0.00    +0.000 A 
BRANCH  17  24
ATOM     23  N   UNL     1      48.435   3.453  19.897  0.00  0.00    +0.000 N 
ATOM     24  C   UNL     1      49.162   4.192  19.003  0.00  0.00    +0.000 C 
ATOM     25  O   UNL     1      50.273   4.618  19.292  0.00  0.00    +0.000 OA
ATOM     26  H   UNL     1      48.893   3.228  20.768  0.00  0.00    +0.000 HD
ATOM     27  H   UNL     1      47.664   2.866  19.607  0.00  0.00    +0.000 HD
ENDBRANCH  17  24
ENDBRANCH  15  20
ENDBRANCH   1  15
TORSDOF 5
ENDMDL
MODEL 9
REMARK VINA RESULT:    -7.111      4.057      7.189
REMARK INTER + INTRA:          -9.973
REMARK INTER:                  -9.256
REMARK INTRA:                  -0.717
REMARK UNBOUND:                -0.784
REMARK  Name = 
REMARK  5 active torsions:
REMARK  status: ('A' for Active; 'I' for Inactive)
REMARK    1  A    between atoms: C_2  and  C_4
REMARK    2  A    between atoms: C_7  and  N_8
REMARK    3  A    between atoms: N_8  and  C_9
REMARK    4  A    between atoms: C_9  and  C_10
REMARK    5  A    between atoms: C_12  and  C_13
REMARK                            x       y       z     vdW  Elec       q    Type
REMARK                         _______ _______ _______ _____ _____    ______ ____
ROOT
ATOM      1  C   UNL     1      45.686   6.922  12.902  0.00  0.00    +0.000 C 
ENDROOT
BRANCH   1   2
ATOM      2  C   UNL     1      44.877   6.027  11.986  0.00  0.00    +0.000 A 
ATOM      3  C   UNL     1      45.518   5.341  10.952  0.00  0.00    +0.000 A 
ATOM      4  C   UNL     1      44.797   4.457  10.139  0.00  0.00    +0.000 A 
ATOM      5  C   UNL     1      43.431   4.316  10.417  0.00  0.00    +0.000 A 
ATOM      6  C   UNL     1      42.871   5.029  11.464  0.00  0.00    +0.000 A 
ATOM      7  N   UNL     1      43.558   5.877  12.253  0.00  0.00    +0.000 NA
BRANCH   4   8
ATOM      8  C   UNL     1      45.457   3.686   9.063  0.00  0.00    +0.000 A 
ATOM      9  C   UNL     1      46.094   4.327   7.980  0.00  0.00    +0.000 A 
ATOM     10  C   UNL     1      46.757   3.601   6.986  0.00  0.00    +0.000 A 
ATOM     11  C   UNL     1      46.786   2.212   7.046  0.00  0.00    +0.000 A 
ATOM     12  C   UNL     1      46.151   1.565   8.094  0.00  0.00    +0.000 A 
ATOM     13  F   UNL     1      46.175   0.228   8.158  0.00  0.00    +0.000 F 
ATOM     14  C   UNL     1      45.496   2.282   9.091  0.00  0.00    +0.000 A 
ENDBRANCH   4   8
ENDBRANCH   1   2
BRANCH   1  15
ATOM     15  N   UNL     1      46.273   8.033  12.150  0.00  0.00    +0.000 N 
ATOM     16  H   UNL     1      45.769   8.899  12.329  0.00  0.00    +0.000 HD
BRANCH  15  20
ATOM     17  C   UNL     1      50.437   8.558  11.697  0.00  0.00    +0.000 A 
ATOM     18  C   UNL     1      49.937   7.325  12.113  0.00  0.00    +0.000 A 
ATOM     19  C   UNL     1      48.562   7.151  12.298  0.00  0.00    +0.000 A 
ATOM     20  C   UNL     1      47.657   8.203  12.102  0.00  0.00    +0.000 A 
ATOM     21  C   UNL     1      48.177   9.434  11.680  0.00  0.00    +0.000 A 
ATOM     22  C   UNL     1      49.552   9.622  11.496  0.00  0.00    +0.000 A 
BRANCH  17  24
ATOM     23  N   UNL     1      52.637   7.655  11.194  0.00  0.00    +0.000 N 
ATOM     24  C   UNL     1      51.885   8.765  11.472  0.00  0.00    +0.000 C 
ATOM     25  O   UNL     1      52.390   9.881  11.495  0.00  0.00    +0.000 OA
ATOM     26  H   UNL     1      53.603   7.820  10.948  0.00  0.00    +0.000 HD
ATOM     27  H   UNL     1      52.219   6.784  10.898  0.00  0.00    +0.000 HD
ENDBRANCH  17  24
ENDBRANCH  15  20
ENDBRANCH   1  15
TORSDOF 5
ENDMDL
