MODEL 1
REMARK VINA RESULT:    -7.589      0.000      0.000
REMARK INTER + INTRA:         -10.545
REMARK INTER:                  -9.807
REMARK INTRA:                  -0.738
REMARK UNBOUND:                -0.738
REMARK  Name = 
REMARK  6 active torsions:
REMARK  status: ('A' for Active; 'I' for Inactive)
REMARK    1  A    between atoms: C_1  and  C_2
REMARK    2  A    between atoms: C_2  and  C_3
REMARK    3  A    between atoms: C_2  and  C_14
REMARK    4  A    between atoms: C_3  and  N_4
REMARK    5  A    between atoms: N_4  and  C_5
REMARK    6  A    between atoms: C_8  and  C_9
REMARK                            x       y       z     vdW  Elec       q    Type
REMARK                         _______ _______ _______ _____ _____    ______ ____
ROOT
ATOM      1  N   UNL     1      43.788   3.420  10.560  0.00  0.00    +0.000 N 
ATOM      2  H   UNL     1      43.404   4.360  10.475  0.00  0.00    +0.000 HD
ENDROOT
BRANCH   1   3
ATOM      3  C   UNL     1      44.711   3.157   9.538  0.00  0.00    +0.000 A 
ATOM      4  C   UNL     1      45.133   4.202   8.710  0.00  0.00    +0.000 A 
ATOM      5  C   UNL     1      46.030   3.961   7.667  0.00  0.00    +0.000 A 
ATOM      6  C   UNL     1      46.455   2.659   7.461  0.00  0.00    +0.000 A 
ATOM      7  N   UNL     1      46.030   1.597   8.195  0.00  0.00    +0.000 NA
ATOM      8  C   UNL     1      45.157   1.879   9.192  0.00  0.00    +0.000 A 
BRANCH   6   9
ATOM      9  C   UNL     1      47.449   2.358   6.379  0.00  0.00    +0.000 C 
ATOM     10  N   UNL     1      47.355   3.158   5.271  0.00  0.00    +0.000 N 
ATOM     11  O   UNL     1      48.274   1.460   6.466  0.00  0.00    +0.000 OA
ATOM     12  H   UNL     1      46.649   3.883   5.242  0.00  0.00    +0.000 HD
ATOM     13  H   UNL     1      47.974   3.006   4.490  0.00  0.00    +0.000 HD
ENDBRANCH   6   9
ENDBRANCH   1   3
BRANCH   1  14
ATOM     14  C   UNL     1      44.218   3.156  11.932  0.00  0.00    +0.000 C 
BRANCH  14  16
ATOM     15  C   UNL     1      42.929   5.175  12.859  0.00  0.00    +0.000 C 
ATOM     16  C   UNL     1      44.232   4.469  12.653  0.00  0.00    +0.000 C 
BRANCH  16  17
ATOM     17  C   UNL     1      45.489   5.229  12.716  0.00  0.00    +0.000 A 
ATOM     18  C   UNL     1      46.396   5.049  13.766  0.00  0.00    +0.000 A 
ATOM     19  C   UNL     1      47.604   5.751  13.786  0.00  0.00    +0.000 A 
ATOM     20  C   UNL     1      47.917   6.634  12.753  0.00  0.00    +0.000 A 
ATOM     21  C   UNL     1      47.016   6.825  11.708  0.00  0.00    +0.000 A 
ATOM     22  C   UNL     1      45.808   6.134  11.696  0.00  0.00    +0.000 A 
ENDBRANCH  16  17
ENDBRANCH  14  16
ENDBRANCH   1  14
TORSDOF 5
ENDMDL
MODEL 2
REMARK VINA RESULT:    -7.468      0.222      1.126
REMARK INTER + INTRA:         -10.389
REMARK INTER:                  -9.555
REMARK INTRA:                  -0.834
REMARK UNBOUND:                -0.738
REMARK  Name = 
REMARK  6 active torsions:
REMARK  status: ('A' for Active; 'I' for Inactive)
REMARK    1  A    between atoms: C_1  and  C_2
REMARK    2  A    between atoms: C_2  and  C_3
REMARK    3  A    between atoms: C_2  and  C_14
REMARK    4  A    between atoms: C_3  and  N_4
REMARK    5  A    between atoms: N_4  and  C_5
REMARK    6  A    between atoms: C_8  and  C_9
REMARK                            x       y       z     vdW  Elec       q    Type
REMARK                         _______ _______ _______ _____ _____    ______ ____
ROOT
ATOM      1  N   UNL     1      43.732   3.228  10.541  0.00  0.00    +0.000 N 
ATOM      2  H   UNL     1      43.172   4.057  10.348  0.00  0.00    +0.000 HD
ENDROOT
BRANCH   1   3
ATOM      3  C   UNL     1      44.680   3.013   9.531  0.00  0.00    +0.000 A 
ATOM      4  C   UNL     1      45.088   4.087   8.733  0.00  0.00    +0.000 A 
ATOM      5  C   UNL     1      46.010   3.894   7.703  0.00  0.00    +0.000 A 
ATOM      6  C   UNL     1      46.476   2.610   7.477  0.00  0.00    +0.000 A 
ATOM      7  N   UNL     1      46.068   1.520   8.181  0.00  0.00    +0.000 NA
ATOM      8  C   UNL     1      45.169   1.756   9.167  0.00  0.00    +0.000 A 
BRANCH   6   9
ATOM      9  C   UNL     1      47.498   2.360   6.409  0.00  0.00    +0.000 C 
ATOM     10  N   UNL     1      47.415   3.194   5.325  0.00  0.00    +0.000 N 
ATOM     11  O   UNL     1      48.336   1.473   6.484  0.00  0.00    +0.000 OA
ATOM     12  H   UNL     1      46.697   3.908   5.304  0.00  0.00    +0.000 HD
ATOM     13  H   UNL     1      48.052   3.077   4.553  0.00  0.00    +0.000 HD
ENDBRANCH   6   9
ENDBRANCH   1   3
BRANCH   1  14
ATOM     14  C   UNL     1      44.216   3.236  11.920  0.00  0.00    +0.000 C 
BRANCH  14  16
ATOM     15  C   UNL     1      42.972   5.463  12.225  0.00  0.00    +0.000 C 
ATOM     16  C   UNL     1      44.227   4.662  12.378  0.00  0.00    +0.000 C 
BRANCH  16  17
ATOM     17  C   UNL     1      45.518   5.352  12.512  0.00  0.00    +0.000 A 
ATOM     18  C   UNL     1      45.948   6.283  11.559  0.00  0.00    +0.000 A 
ATOM     19  C   UNL     1      47.160   6.958  11.725  0.00  0.00    +0.000 A 
ATOM     20  C   UNL     1      47.948   6.712  12.849  0.00  0.00    +0.000 A 
ATOM     21  C   UNL     1      47.533   5.782  13.798  0.00  0.00    +0.000 A 
ATOM     22  C   UNL     1      46.330   5.101  13.625  0.00  0.00    +0.000 A 
ENDBRANCH  16  17
ENDBRANCH  14  16
ENDBRANCH   1  14
TORSDOF 5
ENDMDL
MODEL 3
REMARK VINA RESULT:    -7.461      1.536      1.976
REMARK INTER + INTRA:         -10.379
REMARK INTER:                  -9.738
REMARK INTRA:                  -0.641
REMARK UNBOUND:                -0.738
REMARK  Name = 
REMARK  6 active torsions:
REMARK  status: ('A' for Active; 'I' for Inactive)
REMARK    1  A    between atoms: C_1  and  C_2
REMARK    2  A    between atoms: C_2  and  C_3
REMARK    3  A    between atoms: C_2  and  C_14
REMARK    4  A    between atoms: C_3  and  N_4
REMARK    5  A    between atoms: N_4  and  C_5
REMARK    6  A    between atoms: C_8  and  C_9
REMARK                            x       y       z     vdW  Elec       q    Type
REMARK                         _______ _______ _______ _____ _____    ______ ____
ROOT
ATOM      1  N   UNL     1      43.899   4.953   9.885  0.00  0.00    +0.000 N 
ATOM      2  H   UNL     1      44.157   5.890   9.579  0.00  0.00    +0.000 HD
ENDROOT
BRANCH   1   3
ATOM      3  C   UNL     1      44.699   3.982   9.269  0.00  0.00    +0.000 A 
ATOM      4  C   UNL     1      45.648   4.376   8.320  0.00  0.00    +0.000 A 
ATOM      5  C   UNL     1      46.438   3.424   7.671  0.00  0.00    +0.000 A 
ATOM      6  C   UNL     1      46.228   2.089   7.970  0.00  0.00    +0.000 A 
ATOM      7  N   UNL     1      45.279   1.645   8.837  0.00  0.00    +0.000 NA
ATOM      8  C   UNL     1      44.533   2.605   9.438  0.00  0.00    +0.000 A 
BRANCH   6   9
ATOM      9  C   UNL     1      47.079   1.035   7.329  0.00  0.00    +0.000 C 
ATOM     10  N   UNL     1      46.751  -0.253   7.662  0.00  0.00    +0.000 N 
ATOM     11  O   UNL     1      48.005   1.295   6.574  0.00  0.00    +0.000 OA
ATOM     12  H   UNL     1      45.981  -0.419   8.299  0.00  0.00    +0.000 HD
ATOM     13  H   UNL     1      47.290  -1.020   7.289  0.00  0.00    +0.000 HD
ENDBRANCH   6   9
ENDBRANCH   1   3
BRANCH   1  14
ATOM     14  C   UNL     1      43.782   4.896  11.341  0.00  0.00    +0.000 C 
BRANCH  14  16
ATOM     15  C   UNL     1      45.704   3.919  12.737  0.00  0.00    +0.000 C 
ATOM     16  C   UNL     1      45.163   5.038  11.904  0.00  0.00    +0.000 C 
BRANCH  16  17
ATOM     17  C   UNL     1      45.740   6.384  12.031  0.00  0.00    +0.000 A 
ATOM     18  C   UNL     1      47.125   6.587  12.000  0.00  0.00    +0.000 A 
ATOM     19  C   UNL     1      47.653   7.878  12.081  0.00  0.00    +0.000 A 
ATOM     20  C   UNL     1      46.800   8.977  12.186  0.00  0.00    +0.000 A 
ATOM     21  C   UNL     1      45.422   8.784  12.226  0.00  0.00    +0.000 A 
ATOM     22  C   UNL     1      44.898   7.495  12.158  0.00  0.00    +0.000 A 
ENDBRANCH  16  17
ENDBRANCH  14  16
ENDBRANCH   1  14
TORSDOF 5
ENDMDL
MODEL 4
REMARK VINA RESULT:    -7.188      3.198      6.645
REMARK INTER + INTRA:         -10.026
REMARK INTER:                  -9.655
REMARK INTRA:                  -0.372
REMARK UNBOUND:                -0.738
REMARK  Name = 
REMARK  6 active torsions:
REMARK  status: ('A' for Active; 'I' for Inactive)
REMARK    1  A    between atoms: C_1  and  C_2
REMARK    2  A    between atoms: C_2  and  C_3
REMARK    3  A    between atoms: C_2  and  C_14
REMARK    4  A    between atoms: C_3  and  N_4
REMARK    5  A    between atoms: N_4  and  C_5
REMARK    6  A    between atoms: C_8  and  C_9
REMARK                            x       y       z     vdW  Elec       q    Type
REMARK                         _______ _______ _______ _____ _____    ______ ____
ROOT
ATOM      1  N   UNL     1      44.951   5.612  10.695  0.00  0.00    +0.000 N 
ATOM      2  H   UNL     1      44.011   5.218  10.682  0.00  0.00    +0.000 HD
ENDROOT
BRANCH   1   3
ATOM      3  C   UNL     1      45.579   5.379  11.925  0.00  0.00    +0.000 A 
ATOM      4  C   UNL     1      46.630   6.211  12.327  0.00  0.00    +0.000 A 
ATOM      5  C   UNL     1      47.291   5.983  13.536  0.00  0.00    +0.000 A 
ATOM      6  C   UNL     1      46.899   4.896  14.298  0.00  0.00    +0.000 A 
ATOM      7  N   UNL     1      45.928   4.019  13.927  0.00  0.00    +0.000 NA
ATOM      8  C   UNL     1      45.319   4.278  12.745  0.00  0.00    +0.000 A 
BRANCH   6   9
ATOM      9  C   UNL     1      47.552   4.634  15.622  0.00  0.00    +0.000 C 
ATOM     10  N   UNL     1      46.860   3.792  16.451  0.00  0.00    +0.000 N 
ATOM     11  O   UNL     1      48.616   5.140  15.950  0.00  0.00    +0.000 OA
ATOM     12  H   UNL     1      45.977   3.404  16.138  0.00  0.00    +0.000 HD
ATOM     13  H   UNL     1      47.221   3.583  17.369  0.00  0.00    +0.000 HD
ENDBRANCH   6   9
ENDBRANCH   1   3
BRANCH   1  14
ATOM     14  C   UNL     1      45.686   5.239   9.488  0.00  0.00    +0.000 C 
BRANCH  14  16
ATOM     15  C   UNL     1      43.814   3.485   9.620  0.00  0.00    +0.000 C 
ATOM     16  C   UNL     1      45.032   4.013   8.929  0.00  0.00    +0.000 C 
BRANCH  16  17
ATOM     17  C   UNL     1      45.819   3.123   8.063  0.00  0.00    +0.000 A 
ATOM     18  C   UNL     1      46.428   3.598   6.895  0.00  0.00    +0.000 A 
ATOM     19  C   UNL     1      47.206   2.746   6.106  0.00  0.00    +0.000 A 
ATOM     20  C   UNL     1      47.385   1.415   6.482  0.00  0.00    +0.000 A 
ATOM     21  C   UNL     1      46.777   0.932   7.638  0.00  0.00    +0.000 A 
ATOM     22  C   UNL     1      45.992   1.779   8.416  0.00  0.00    +0.000 A 
ENDBRANCH  16  17
ENDBRANCH  14  16
ENDBRANCH   1  14
TORSDOF 5
ENDMDL
MODEL 5
REMARK VINA RESULT:    -6.922      3.391      5.814
REMARK INTER + INTRA:          -9.682
REMARK INTER:                  -8.843
REMARK INTRA:                  -0.839
REMARK UNBOUND:                -0.738
REMARK  Name = 
REMARK  6 active torsions:
REMARK  status: ('A' for Active; 'I' for Inactive)
REMARK    1  A    between atoms: C_1  and  C_2
REMARK    2  A    between atoms: C_2  and  C_3
REMARK    3  A    between atoms: C_2  and  C_14
REMARK    4  A    between atoms: C_3  and  N_4
REMARK    5  A    between atoms: N_4  and  C_5
REMARK    6  A    between atoms: C_8  and  C_9
REMARK                            x       y       z     vdW  Elec       q    Type
REMARK                         _______ _______ _______ _____ _____    ______ ____
ROOT
ATOM      1  N   UNL     1      44.052   5.244  12.409  0.00  0.00    +0.000 N 
ATOM      2  H   UNL     1      43.883   4.382  12.926  0.00  0.00    +0.000 HD
ENDROOT
BRANCH   1   3
ATOM      3  C   UNL     1      45.359   5.706  12.611  0.00  0.00    +0.000 A 
ATOM      4  C   UNL     1      45.853   6.741  11.809  0.00  0.00    +0.000 A 
ATOM      5  C   UNL     1      47.161   7.200  11.972  0.00  0.00    +0.000 A 
ATOM      6  C   UNL     1      47.957   6.580  12.919  0.00  0.00    +0.000 A 
ATOM      7  N   UNL     1      47.551   5.530  13.683  0.00  0.00    +0.000 NA
ATOM      8  C   UNL     1      46.275   5.116  13.486  0.00  0.00    +0.000 A 
BRANCH   6   9
ATOM      9  C   UNL     1      49.356   7.065  13.157  0.00  0.00    +0.000 C 
ATOM     10  N   UNL     1      50.137   7.145  12.035  0.00  0.00    +0.000 N 
ATOM     11  O   UNL     1      49.779   7.356  14.267  0.00  0.00    +0.000 OA
ATOM     12  H   UNL     1      49.745   6.884  11.139  0.00  0.00    +0.000 HD
ATOM     13  H   UNL     1      51.098   7.443  12.114  0.00  0.00    +0.000 HD
ENDBRANCH   6   9
ENDBRANCH   1   3
BRANCH   1  14
ATOM     14  C   UNL     1      43.594   5.119  11.026  0.00  0.00    +0.000 C 
BRANCH  14  16
ATOM     15  C   UNL     1      43.418   2.624  11.614  0.00  0.00    +0.000 C 
ATOM     16  C   UNL     1      43.778   3.688  10.625  0.00  0.00    +0.000 C 
BRANCH  16  17
ATOM     17  C   UNL     1      44.704   3.375   9.526  0.00  0.00    +0.000 A 
ATOM     18  C   UNL     1      45.289   4.388   8.757  0.00  0.00    +0.000 A 
ATOM     19  C   UNL     1      46.197   4.072   7.743  0.00  0.00    +0.000 A 
ATOM     20  C   UNL     1      46.532   2.741   7.495  0.00  0.00    +0.000 A 
ATOM     21  C   UNL     1      45.950   1.726   8.250  0.00  0.00    +0.000 A 
ATOM     22  C   UNL     1      45.035   2.042   9.252  0.00  0.00    +0.000 A 
ENDBRANCH  16  17
ENDBRANCH  14  16
ENDBRANCH   1  14
TORSDOF 5
ENDMDL
MODEL 6
REMARK VINA RESULT:    -6.148      3.771      6.706
REMARK INTER + INTRA:          -8.683
REMARK INTER:                  -8.285
REMARK INTRA:                  -0.398
REMARK UNBOUND:                -0.738
REMARK  Name = 
REMARK  6 active torsions:
REMARK  status: ('A' for Active; 'I' for Inactive)
REMARK    1  A    between atoms: C_1  and  C_2
REMARK    2  A    between atoms: C_2  and  C_3
REMARK    3  A    between atoms: C_2  and  C_14
REMARK    4  A    between atoms: C_3  and  N_4
REMARK    5  A    between atoms: N_4  and  C_5
REMARK    6  A    between atoms: C_8  and  C_9
REMARK                            x       y       z     vdW  Elec       q    Type
REMARK                         _______ _______ _______ _____ _____    ______ ____
ROOT
ATOM      1  N   UNL     1      46.647   5.913  11.759  0.00  0.00    +0.000 N 
ATOM      2  H   UNL     1      47.426   6.473  11.414  0.00  0.00    +0.000 HD
ENDROOT
BRANCH   1   3
ATOM      3  C   UNL     1      46.870   5.495  13.077  0.00  0.00    +0.000 A 
ATOM      4  C   UNL     1      47.699   6.256  13.908  0.00  0.00    +0.000 A 
ATOM      5  C   UNL     1      47.959   5.846  15.217  0.00  0.00    +0.000 A 
ATOM      6  C   UNL     1      47.403   4.654  15.650  0.00  0.00    +0.000 A 
ATOM      7  N   UNL     1      46.641   3.844  14.867  0.00  0.00    +0.000 NA
ATOM      8  C   UNL     1      46.420   4.281  13.603  0.00  0.00    +0.000 A 
BRANCH   6   9
ATOM      9  C   UNL     1      47.621   4.194  17.059  0.00  0.00    +0.000 C 
ATOM     10  N   UNL     1      46.904   3.084  17.421  0.00  0.00    +0.000 N 
ATOM     11  O   UNL     1      48.369   4.767  17.838  0.00  0.00    +0.000 OA
ATOM     12  H   UNL     1      46.290   2.648  16.743  0.00  0.00    +0.000 HD
ATOM     13  H   UNL     1      46.979   2.723  18.360  0.00  0.00    +0.000 HD
ENDBRANCH   6   9
ENDBRANCH   1   3
BRANCH   1  14
ATOM     14  C   UNL     1      45.372   6.566  11.471  0.00  0.00    +0.000 C 
BRANCH  14  16
ATOM     15  C   UNL     1      43.233   5.197  11.859  0.00  0.00    +0.000 C 
ATOM     16  C   UNL     1      44.424   5.504  11.006  0.00  0.00    +0.000 C 
BRANCH  16  17
ATOM     17  C   UNL     1      44.899   4.508  10.034  0.00  0.00    +0.000 A 
ATOM     18  C   UNL     1      44.639   3.143  10.206  0.00  0.00    +0.000 A 
ATOM     19  C   UNL     1      45.064   2.217   9.250  0.00  0.00    +0.000 A 
ATOM     20  C   UNL     1      45.746   2.648   8.113  0.00  0.00    +0.000 A 
ATOM     21  C   UNL     1      46.016   4.003   7.937  0.00  0.00    +0.000 A 
ATOM     22  C   UNL     1      45.602   4.924   8.897  0.00  0.00    +0.000 A 
ENDBRANCH  16  17
ENDBRANCH  14  16
ENDBRANCH   1  14
TORSDOF 5
ENDMDL
MODEL 7
REMARK VINA RESULT:    -6.053      1.443      2.304
REMARK INTER + INTRA:          -8.560
REMARK INTER:                  -7.843
REMARK INTRA:                  -0.717
REMARK UNBOUND:                -0.738
REMARK  Name = 
REMARK  6 active torsions:
REMARK  status: ('A' for Active; 'I' for Inactive)
REMARK    1  A    between atoms: C_1  and  C_2
REMARK    2  A    between atoms: C_2  and  C_3
REMARK    3  A    between atoms: C_2  and  C_14
REMARK    4  A    between atoms: C_3  and  N_4
REMARK    5  A    between atoms: N_4  and  C_5
REMARK    6  A    between atoms: C_8  and  C_9
REMARK                            x       y       z     vdW  Elec       q    Type
REMARK                         _______ _______ _______ _____ _____    ______ ____
ROOT
ATOM      1  N   UNL     1      44.224   4.860  11.451  0.00  0.00    +0.000 N 
ATOM      2  H   UNL     1      43.244   5.066  11.263  0.00  0.00    +0.000 HD
ENDROOT
BRANCH   1   3
ATOM      3  C   UNL     1      44.823   4.213  10.362  0.00  0.00    +0.000 A 
ATOM      4  C   UNL     1      45.391   4.978   9.338  0.00  0.00    +0.000 A 
ATOM      5  C   UNL     1      45.969   4.358   8.228  0.00  0.00    +0.000 A 
ATOM      6  C   UNL     1      45.930   2.976   8.160  0.00  0.00    +0.000 A 
ATOM      7  N   UNL     1      45.338   2.186   9.095  0.00  0.00    +0.000 NA
ATOM      8  C   UNL     1      44.786   2.833  10.150  0.00  0.00    +0.000 A 
BRANCH   6   9
ATOM      9  C   UNL     1      46.573   2.264   7.008  0.00  0.00    +0.000 C 
ATOM     10  N   UNL     1      47.191   1.085   7.330  0.00  0.00    +0.000 N 
ATOM     11  O   UNL     1      46.564   2.702   5.866  0.00  0.00    +0.000 OA
ATOM     12  H   UNL     1      47.180   0.767   8.292  0.00  0.00    +0.000 HD
ATOM     13  H   UNL     1      47.666   0.556   6.615  0.00  0.00    +0.000 HD
ENDBRANCH   6   9
ENDBRANCH   1   3
BRANCH   1  14
ATOM     14  C   UNL     1      44.908   6.034  11.989  0.00  0.00    +0.000 C 
BRANCH  14  16
ATOM     15  C   UNL     1      45.945   4.526  13.791  0.00  0.00    +0.000 C 
ATOM     16  C   UNL     1      46.126   5.547  12.713  0.00  0.00    +0.000 C 
BRANCH  16  17
ATOM     17  C   UNL     1      47.340   6.376  12.692  0.00  0.00    +0.000 A 
ATOM     18  C   UNL     1      47.716   7.086  11.545  0.00  0.00    +0.000 A 
ATOM     19  C   UNL     1      48.852   7.900  11.559  0.00  0.00    +0.000 A 
ATOM     20  C   UNL     1      49.616   8.016  12.720  0.00  0.00    +0.000 A 
ATOM     21  C   UNL     1      49.254   7.307  13.862  0.00  0.00    +0.000 A 
ATOM     22  C   UNL     1      48.129   6.486  13.844  0.00  0.00    +0.000 A 
ENDBRANCH  16  17
ENDBRANCH  14  16
ENDBRANCH   1  14
TORSDOF 5
ENDMDL
MODEL 8
REMARK VINA RESULT:    -5.713      3.424      5.541
REMARK INTER + INTRA:          -8.120
REMARK INTER:                  -7.603
REMARK INTRA:                  -0.518
REMARK UNBOUND:                -0.738
REMARK  Name = 
REMARK  6 active torsions:
REMARK  status: ('A' for Active; 'I' for Inactive)
REMARK    1  A    between atoms: C_1  and  C_2
REMARK    2  A    between atoms: C_2  and  C_3
REMARK    3  A    between atoms: C_2  and  C_14
REMARK    4  A    between atoms: C_3  and  N_4
REMARK    5  A    between atoms: N_4  and  C_5
REMARK    6  A    between atoms: C_8  and  C_9
REMARK                            x       y       z     vdW  Elec       q    Type
REMARK                         _______ _______ _______ _____ _____    ______ ____
ROOT
ATOM      1  N   UNL     1      47.151   7.020  13.942  0.00  0.00    +0.000 N 
ATOM      2  H   UNL     1      47.196   7.990  13.633  0.00  0.00    +0.000 HD
ENDROOT
BRANCH   1   3
ATOM      3  C   UNL     1      46.413   6.238  13.043  0.00  0.00    +0.000 A 
ATOM      4  C   UNL     1      46.335   6.624  11.701  0.00  0.00    +0.000 A 
ATOM      5  C   UNL     1      45.583   5.877  10.792  0.00  0.00    +0.000 A 
ATOM      6  C   UNL     1      44.896   4.773  11.266  0.00  0.00    +0.000 A 
ATOM      7  N   UNL     1      44.886   4.387  12.570  0.00  0.00    +0.000 NA
ATOM      8  C   UNL     1      45.626   5.145  13.416  0.00  0.00    +0.000 A 
BRANCH   6   9
ATOM      9  C   UNL     1      44.108   3.917  10.320  0.00  0.00    +0.000 C 
ATOM     10  N   UNL     1      44.082   4.362   9.025  0.00  0.00    +0.000 N 
ATOM     11  O   UNL     1      43.519   2.905  10.672  0.00  0.00    +0.000 OA
ATOM     12  H   UNL     1      44.578   5.212   8.783  0.00  0.00    +0.000 HD
ATOM     13  H   UNL     1      43.556   3.855   8.331  0.00  0.00    +0.000 HD
ENDBRANCH   6   9
ENDBRANCH   1   3
BRANCH   1  14
ATOM     14  C   UNL     1      48.477   6.533  14.318  0.00  0.00    +0.000 C 
BRANCH  14  16
ATOM     15  C   UNL     1      49.140   7.859  16.416  0.00  0.00    +0.000 C 
ATOM     16  C   UNL     1      48.573   6.613  15.810  0.00  0.00    +0.000 C 
BRANCH  16  17
ATOM     17  C   UNL     1      48.565   5.365  16.588  0.00  0.00    +0.000 A 
ATOM     18  C   UNL     1      49.669   4.981  17.359  0.00  0.00    +0.000 A 
ATOM     19  C   UNL     1      49.626   3.812  18.123  0.00  0.00    +0.000 A 
ATOM     20  C   UNL     1      48.477   3.021  18.127  0.00  0.00    +0.000 A 
ATOM     21  C   UNL     1      47.378   3.391  17.357  0.00  0.00    +0.000 A 
ATOM     22  C   UNL     1      47.426   4.550  16.586  0.00  0.00    +0.000 A 
ENDBRANCH  16  17
ENDBRANCH  14  16
ENDBRANCH   1  14
TORSDOF 5
ENDMDL
MODEL 9
REMARK VINA RESULT:    -5.668      4.084      6.689
REMARK INTER + INTRA:          -8.063
REMARK INTER:                  -7.325
REMARK INTRA:                  -0.738
REMARK UNBOUND:                -0.738
REMARK  Name = 
REMARK  6 active torsions:
REMARK  status: ('A' for Active; 'I' for Inactive)
REMARK    1  A    between atoms: C_1  and  C_2
REMARK    2  A    between atoms: C_2  and  C_3
REMARK    3  A    between atoms: C_2  and  C_14
REMARK    4  A    between atoms: C_3  and  N_4
REMARK    5  A    between atoms: N_4  and  C_5
REMARK    6  A    between atoms: C_8  and  C_9
REMARK                            x       y       z     vdW  Elec       q    Type
REMARK                         _______ _______ _______ _____ _____    ______ ____
ROOT
ATOM      1  N   UNL     1      47.058   7.046  12.671  0.00  0.00    +0.000 N 
ATOM      2  H   UNL     1      47.874   7.644  12.546  0.00  0.00    +0.000 HD
ENDROOT
BRANCH   1   3
ATOM      3  C   UNL     1      47.302   6.051  13.627  0.00  0.00    +0.000 A 
ATOM      4  C   UNL     1      46.670   4.809  13.501  0.00  0.00    +0.000 A 
ATOM      5  C   UNL     1      46.875   3.810  14.455  0.00  0.00    +0.000 A 
ATOM      6  C   UNL     1      47.688   4.099  15.537  0.00  0.00    +0.000 A 
ATOM      7  N   UNL     1      48.277   5.308  15.743  0.00  0.00    +0.000 NA
ATOM      8  C   UNL     1      48.046   6.247  14.793  0.00  0.00    +0.000 A 
BRANCH   6   9
ATOM      9  C   UNL     1      47.969   3.046  16.566  0.00  0.00    +0.000 C 
ATOM     10  N   UNL     1      47.024   2.935  17.552  0.00  0.00    +0.000 N 
ATOM     11  O   UNL     1      48.969   2.343  16.542  0.00  0.00    +0.000 OA
ATOM     12  H   UNL     1      46.217   3.546  17.535  0.00  0.00    +0.000 HD
ATOM     13  H   UNL     1      47.150   2.264  18.294  0.00  0.00    +0.000 HD
ENDBRANCH   6   9
ENDBRANCH   1   3
BRANCH   1  14
ATOM     14  C   UNL     1      45.847   7.848  12.836  0.00  0.00    +0.000 C 
BRANCH  14  16
ATOM     15  C   UNL     1      44.294   8.898  11.080  0.00  0.00    +0.000 C 
ATOM     16  C   UNL     1      45.044   7.703  11.580  0.00  0.00    +0.000 C 
BRANCH  16  17
ATOM     17  C   UNL     1      44.636   6.357  11.152  0.00  0.00    +0.000 A 
ATOM     18  C   UNL     1      45.379   5.638  10.209  0.00  0.00    +0.000 A 
ATOM     19  C   UNL     1      44.997   4.343   9.846  0.00  0.00    +0.000 A 
ATOM     20  C   UNL     1      43.874   3.757  10.427  0.00  0.00    +0.000 A 
ATOM     21  C   UNL     1      43.124   4.468  11.361  0.00  0.00    +0.000 A 
ATOM     22  C   UNL     1      43.499   5.762  11.713  0.00  0.00    +0.000 A 
ENDBRANCH  16  17
ENDBRANCH  14  16
ENDBRANCH   1  14
TORSDOF 5
ENDMDL
