MODEL 1
REMARK VINA RESULT:    -7.948      0.000      0.000
REMARK INTER + INTRA:         -10.484
REMARK INTER:                  -9.806
REMARK INTRA:                  -0.677
REMARK UNBOUND:                -0.677
REMARK  Name = 
REMARK  5 active torsions:
REMARK  status: ('A' for Active; 'I' for Inactive)
REMARK    1  A    between atoms: C_1  and  C_2
REMARK    2  A    between atoms: C_5  and  O_6
REMARK    3  A    between atoms: O_6  and  C_7
REMARK    4  A    between atoms: C_7  and  C_8
REMARK    5  A    between atoms: C_11  and  C_12
REMARK                            x       y       z     vdW  Elec       q    Type
REMARK                         _______ _______ _______ _____ _____    ______ ____
ROOT
ATOM      1  C   UNL     1      44.839   3.506   9.458  0.00  0.00    +0.000 A 
ATOM      2  C   UNL     1      45.513   4.466   8.691  0.00  0.00    +0.000 A 
ATOM      3  C   UNL     1      46.413   4.074   7.690  0.00  0.00    +0.000 A 
ATOM      4  C   UNL     1      46.659   2.712   7.440  0.00  0.00    +0.000 A 
ATOM      5  C   UNL     1      46.039   1.764   8.249  0.00  0.00    +0.000 A 
ATOM      6  F   UNL     1      46.252   0.450   8.077  0.00  0.00    +0.000 F 
ATOM      7  C   UNL     1      45.146   2.152   9.248  0.00  0.00    +0.000 A 
ENDROOT
BRANCH   4   8
ATOM      8  C   UNL     1      47.521   2.345   6.286  0.00  0.00    +0.000 C 
ATOM      9  N   UNL     1      47.368   3.028   5.113  0.00  0.00    +0.000 N 
ATOM     10  O   UNL     1      48.373   1.473   6.389  0.00  0.00    +0.000 OA
ATOM     11  H   UNL     1      46.691   3.772   4.990  0.00  0.00    +0.000 HD
ATOM     12  H   UNL     1      48.003   2.816   4.357  0.00  0.00    +0.000 HD
ENDBRANCH   4   8
BRANCH   1  13
ATOM     13  C   UNL     1      43.731   3.843  10.437  0.00  0.00    +0.000 C 
BRANCH  13  14
ATOM     14  O   UNL     1      44.046   3.550  11.800  0.00  0.00    +0.000 OA
BRANCH  14  19
ATOM     15  C   UNL     1      48.230   6.689  14.042  0.00  0.00    +0.000 C 
ATOM     16  C   UNL     1      47.081   5.888  13.504  0.00  0.00    +0.000 A 
ATOM     17  C   UNL     1      46.004   6.527  12.880  0.00  0.00    +0.000 A 
ATOM     18  C   UNL     1      44.955   5.779  12.330  0.00  0.00    +0.000 A 
ATOM     19  C   UNL     1      44.970   4.384  12.386  0.00  0.00    +0.000 A 
ATOM     20  C   UNL     1      46.004   3.752  13.080  0.00  0.00    +0.000 A 
ATOM     21  C   UNL     1      47.049   4.497  13.640  0.00  0.00    +0.000 A 
ENDBRANCH  14  19
ENDBRANCH  13  14
ENDBRANCH   1  13
TORSDOF 4
ENDMDL
MODEL 2
REMARK VINA RESULT:    -7.889      1.433      1.804
REMARK INTER + INTRA:         -10.411
REMARK INTER:                 -10.000
REMARK INTRA:                  -0.411
REMARK UNBOUND:                -0.677
REMARK  Name = 
REMARK  5 active torsions:
REMARK  status: ('A' for Active; 'I' for Inactive)
REMARK    1  A    between atoms: C_1  and  C_2
REMARK    2  A    between atoms: C_5  and  O_6
REMARK    3  A    between atoms: O_6  and  C_7
REMARK    4  A    between atoms: C_7  and  C_8
REMARK    5  A    between atoms: C_11  and  C_12
REMARK                            x       y       z     vdW  Elec       q    Type
REMARK                         _______ _______ _______ _____ _____    ______ ____
ROOT
ATOM      1  C   UNL     1      44.514   3.751   9.404  0.00  0.00    +0.000 A 
ATOM      2  C   UNL     1      44.589   2.360   9.554  0.00  0.00    +0.000 A 
ATOM      3  C   UNL     1      45.453   1.603   8.751  0.00  0.00    +0.000 A 
ATOM      4  C   UNL     1      46.258   2.224   7.780  0.00  0.00    +0.000 A 
ATOM      5  C   UNL     1      46.131   3.597   7.588  0.00  0.00    +0.000 A 
ATOM      6  F   UNL     1      46.854   4.243   6.659  0.00  0.00    +0.000 F 
ATOM      7  C   UNL     1      45.269   4.352   8.383  0.00  0.00    +0.000 A 
ENDROOT
BRANCH   4   8
ATOM      8  C   UNL     1      47.249   1.396   7.043  0.00  0.00    +0.000 C 
ATOM      9  N   UNL     1      48.425   1.975   6.658  0.00  0.00    +0.000 N 
ATOM     10  O   UNL     1      47.036   0.214   6.813  0.00  0.00    +0.000 OA
ATOM     11  H   UNL     1      48.653   2.944   6.847  0.00  0.00    +0.000 HD
ATOM     12  H   UNL     1      49.118   1.388   6.217  0.00  0.00    +0.000 HD
ENDBRANCH   4   8
BRANCH   1  13
ATOM     13  C   UNL     1      43.737   4.655  10.341  0.00  0.00    +0.000 C 
BRANCH  13  14
ATOM     14  O   UNL     1      44.127   4.551  11.712  0.00  0.00    +0.000 OA
BRANCH  14  19
ATOM     15  C   UNL     1      49.083   6.931  13.181  0.00  0.00    +0.000 C 
ATOM     16  C   UNL     1      47.741   6.365  12.819  0.00  0.00    +0.000 A 
ATOM     17  C   UNL     1      46.993   6.927  11.778  0.00  0.00    +0.000 A 
ATOM     18  C   UNL     1      45.765   6.368  11.404  0.00  0.00    +0.000 A 
ATOM     19  C   UNL     1      45.269   5.237  12.056  0.00  0.00    +0.000 A 
ATOM     20  C   UNL     1      45.976   4.728  13.146  0.00  0.00    +0.000 A 
ATOM     21  C   UNL     1      47.200   5.290  13.531  0.00  0.00    +0.000 A 
ENDBRANCH  14  19
ENDBRANCH  13  14
ENDBRANCH   1  13
TORSDOF 4
ENDMDL
MODEL 3
REMARK VINA RESULT:    -7.795      3.311      6.179
REMARK INTER + INTRA:         -10.295
REMARK INTER:                  -9.724
REMARK INTRA:                  -0.571
REMARK UNBOUND:                -0.677
REMARK  Name = 
REMARK  5 active torsions:
REMARK  status: ('A' for Active; 'I' for Inactive)
REMARK    1  A    between atoms: C_1  and  C_2
REMARK    2  A    between atoms: C_5  and  O_6
REMARK    3  A    between atoms: O_6  and  C_7
REMARK    4  A    between atoms: C_7  and  C_8
REMARK    5  A    between atoms: C_11  and  C_12
REMARK                            x       y       z     vdW  Elec       q    Type
REMARK                         _______ _______ _______ _____ _____    ______ ____
ROOT
ATOM      1  C   UNL     1      44.775   4.953  11.272  0.00  0.00    +0.000 A 
ATOM      2  C   UNL     1      45.279   6.258  11.203  0.00  0.00    +0.000 A 
ATOM      3  C   UNL     1      46.303   6.672  12.067  0.00  0.00    +0.000 A 
ATOM      4  C   UNL     1      46.839   5.787  13.020  0.00  0.00    +0.000 A 
ATOM      5  C   UNL     1      46.288   4.514  13.131  0.00  0.00    +0.000 A 
ATOM      6  F   UNL     1      46.739   3.632  14.037  0.00  0.00    +0.000 F 
ATOM      7  C   UNL     1      45.267   4.101  12.275  0.00  0.00    +0.000 A 
ENDROOT
BRANCH   4   8
ATOM      8  C   UNL     1      48.007   6.232  13.825  0.00  0.00    +0.000 C 
ATOM      9  N   UNL     1      47.877   6.301  15.183  0.00  0.00    +0.000 N 
ATOM     10  O   UNL     1      49.075   6.499  13.290  0.00  0.00    +0.000 OA
ATOM     11  H   UNL     1      47.019   6.068  15.669  0.00  0.00    +0.000 HD
ATOM     12  H   UNL     1      48.694   6.540  15.724  0.00  0.00    +0.000 HD
ENDBRANCH   4   8
BRANCH   1  13
ATOM     13  C   UNL     1      43.794   4.379  10.268  0.00  0.00    +0.000 C 
BRANCH  13  14
ATOM     14  O   UNL     1      44.106   3.052   9.838  0.00  0.00    +0.000 OA
BRANCH  14  19
ATOM     15  C   UNL     1      47.939   2.217   5.715  0.00  0.00    +0.000 C 
ATOM     16  C   UNL     1      46.979   2.479   6.838  0.00  0.00    +0.000 A 
ATOM     17  C   UNL     1      46.453   3.760   7.036  0.00  0.00    +0.000 A 
ATOM     18  C   UNL     1      45.517   3.996   8.050  0.00  0.00    +0.000 A 
ATOM     19  C   UNL     1      45.085   2.957   8.877  0.00  0.00    +0.000 A 
ATOM     20  C   UNL     1      45.672   1.698   8.732  0.00  0.00    +0.000 A 
ATOM     21  C   UNL     1      46.616   1.461   7.725  0.00  0.00    +0.000 A 
ENDBRANCH  14  19
ENDBRANCH  13  14
ENDBRANCH   1  13
TORSDOF 4
ENDMDL
MODEL 4
REMARK VINA RESULT:    -6.926      1.849      2.570
REMARK INTER + INTRA:          -9.222
REMARK INTER:                  -8.826
REMARK INTRA:                  -0.396
REMARK UNBOUND:                -0.677
REMARK  Name = 
REMARK  5 active torsions:
REMARK  status: ('A' for Active; 'I' for Inactive)
REMARK    1  A    between atoms: C_1  and  C_2
REMARK    2  A    between atoms: C_5  and  O_6
REMARK    3  A    between atoms: O_6  and  C_7
REMARK    4  A    between atoms: C_7  and  C_8
REMARK    5  A    between atoms: C_11  and  C_12
REMARK                            x       y       z     vdW  Elec       q    Type
REMARK                         _______ _______ _______ _____ _____    ______ ____
ROOT
ATOM      1  C   UNL     1      44.441   3.843   9.651  0.00  0.00    +0.000 A 
ATOM      2  C   UNL     1      44.304   2.450   9.709  0.00  0.00    +0.000 A 
ATOM      3  C   UNL     1      45.115   1.621   8.922  0.00  0.00    +0.000 A 
ATOM      4  C   UNL     1      46.079   2.172   8.057  0.00  0.00    +0.000 A 
ATOM      5  C   UNL     1      46.165   3.558   7.952  0.00  0.00    +0.000 A 
ATOM      6  F   UNL     1      47.047   4.144   7.127  0.00  0.00    +0.000 F 
ATOM      7  C   UNL     1      45.356   4.384   8.732  0.00  0.00    +0.000 A 
ENDROOT
BRANCH   4   8
ATOM      8  C   UNL     1      47.000   1.252   7.340  0.00  0.00    +0.000 C 
ATOM      9  N   UNL     1      47.067  -0.051   7.744  0.00  0.00    +0.000 N 
ATOM     10  O   UNL     1      47.663   1.640   6.388  0.00  0.00    +0.000 OA
ATOM     11  H   UNL     1      46.520  -0.421   8.513  0.00  0.00    +0.000 HD
ATOM     12  H   UNL     1      47.645  -0.683   7.210  0.00  0.00    +0.000 HD
ENDBRANCH   4   8
BRANCH   1  13
ATOM     13  C   UNL     1      43.725   4.796  10.588  0.00  0.00    +0.000 C 
BRANCH  13  14
ATOM     14  O   UNL     1      44.347   4.937  11.867  0.00  0.00    +0.000 OA
BRANCH  14  19
ATOM     15  C   UNL     1      47.635   9.527  12.577  0.00  0.00    +0.000 C 
ATOM     16  C   UNL     1      46.811   8.298  12.332  0.00  0.00    +0.000 A 
ATOM     17  C   UNL     1      47.348   7.027  12.568  0.00  0.00    +0.000 A 
ATOM     18  C   UNL     1      46.565   5.880  12.390  0.00  0.00    +0.000 A 
ATOM     19  C   UNL     1      45.233   5.983  11.982  0.00  0.00    +0.000 A 
ATOM     20  C   UNL     1      44.724   7.245  11.669  0.00  0.00    +0.000 A 
ATOM     21  C   UNL     1      45.508   8.394  11.835  0.00  0.00    +0.000 A 
ENDBRANCH  14  19
ENDBRANCH  13  14
ENDBRANCH   1  13
TORSDOF 4
ENDMDL
MODEL 5
REMARK VINA RESULT:    -6.846      3.602      6.557
REMARK INTER + INTRA:          -9.124
REMARK INTER:                  -8.548
REMARK INTRA:                  -0.575
REMARK UNBOUND:                -0.677
REMARK  Name = 
REMARK  5 active torsions:
REMARK  status: ('A' for Active; 'I' for Inactive)
REMARK    1  A    between atoms: C_1  and  C_2
REMARK    2  A    between atoms: C_5  and  O_6
REMARK    3  A    between atoms: O_6  and  C_7
REMARK    4  A    between atoms: C_7  and  C_8
REMARK    5  A    between atoms: C_11  and  C_12
REMARK                            x       y       z     vdW  Elec       q    Type
REMARK                         _______ _______ _______ _____ _____    ______ ____
ROOT
ATOM      1  C   UNL     1      45.924   5.526  12.214  0.00  0.00    +0.000 A 
ATOM      2  C   UNL     1      46.477   6.535  11.416  0.00  0.00    +0.000 A 
ATOM      3  C   UNL     1      47.607   7.245  11.845  0.00  0.00    +0.000 A 
ATOM      4  C   UNL     1      48.205   6.958  13.086  0.00  0.00    +0.000 A 
ATOM      5  C   UNL     1      47.613   6.001  13.906  0.00  0.00    +0.000 A 
ATOM      6  F   UNL     1      48.121   5.701  15.111  0.00  0.00    +0.000 F 
ATOM      7  C   UNL     1      46.486   5.298  13.482  0.00  0.00    +0.000 A 
ENDROOT
BRANCH   4   8
ATOM      8  C   UNL     1      49.474   7.646  13.439  0.00  0.00    +0.000 C 
ATOM      9  N   UNL     1      50.575   7.427  12.660  0.00  0.00    +0.000 N 
ATOM     10  O   UNL     1      49.530   8.418  14.387  0.00  0.00    +0.000 OA
ATOM     11  H   UNL     1      50.569   6.814  11.854  0.00  0.00    +0.000 HD
ATOM     12  H   UNL     1      51.413   7.949  12.869  0.00  0.00    +0.000 HD
ENDBRANCH   4   8
BRANCH   1  13
ATOM     13  C   UNL     1      44.813   4.604  11.751  0.00  0.00    +0.000 C 
BRANCH  13  14
ATOM     14  O   UNL     1      44.434   4.785  10.384  0.00  0.00    +0.000 OA
BRANCH  14  19
ATOM     15  C   UNL     1      47.267   1.486   6.712  0.00  0.00    +0.000 C 
ATOM     16  C   UNL     1      46.456   2.333   7.649  0.00  0.00    +0.000 A 
ATOM     17  C   UNL     1      45.669   1.735   8.640  0.00  0.00    +0.000 A 
ATOM     18  C   UNL     1      44.952   2.523   9.550  0.00  0.00    +0.000 A 
ATOM     19  C   UNL     1      45.017   3.917   9.490  0.00  0.00    +0.000 A 
ATOM     20  C   UNL     1      45.737   4.511   8.451  0.00  0.00    +0.000 A 
ATOM     21  C   UNL     1      46.447   3.725   7.533  0.00  0.00    +0.000 A 
ENDBRANCH  14  19
ENDBRANCH  13  14
ENDBRANCH   1  13
TORSDOF 4
ENDMDL
MODEL 6
REMARK VINA RESULT:    -6.782      3.773      6.441
REMARK INTER + INTRA:          -9.046
REMARK INTER:                  -8.364
REMARK INTRA:                  -0.681
REMARK UNBOUND:                -0.677
REMARK  Name = 
REMARK  5 active torsions:
REMARK  status: ('A' for Active; 'I' for Inactive)
REMARK    1  A    between atoms: C_1  and  C_2
REMARK    2  A    between atoms: C_5  and  O_6
REMARK    3  A    between atoms: O_6  and  C_7
REMARK    4  A    between atoms: C_7  and  C_8
REMARK    5  A    between atoms: C_11  and  C_12
REMARK                            x       y       z     vdW  Elec       q    Type
REMARK                         _______ _______ _______ _____ _____    ______ ____
ROOT
ATOM      1  C   UNL     1      45.108   5.990  11.883  0.00  0.00    +0.000 A 
ATOM      2  C   UNL     1      44.700   7.328  11.813  0.00  0.00    +0.000 A 
ATOM      3  C   UNL     1      45.621   8.365  12.013  0.00  0.00    +0.000 A 
ATOM      4  C   UNL     1      46.971   8.082  12.290  0.00  0.00    +0.000 A 
ATOM      5  C   UNL     1      47.358   6.752  12.426  0.00  0.00    +0.000 A 
ATOM      6  F   UNL     1      48.626   6.417  12.714  0.00  0.00    +0.000 F 
ATOM      7  C   UNL     1      46.442   5.718  12.231  0.00  0.00    +0.000 A 
ENDROOT
BRANCH   4   8
ATOM      8  C   UNL     1      47.934   9.212  12.366  0.00  0.00    +0.000 C 
ATOM      9  N   UNL     1      47.874  10.049  13.444  0.00  0.00    +0.000 N 
ATOM     10  O   UNL     1      48.784   9.375  11.502  0.00  0.00    +0.000 OA
ATOM     11  H   UNL     1      47.201   9.939  14.193  0.00  0.00    +0.000 HD
ATOM     12  H   UNL     1      48.573  10.774  13.519  0.00  0.00    +0.000 HD
ENDBRANCH   4   8
BRANCH   1  13
ATOM     13  C   UNL     1      44.216   4.820  11.515  0.00  0.00    +0.000 C 
BRANCH  13  14
ATOM     14  O   UNL     1      43.889   4.749  10.125  0.00  0.00    +0.000 OA
BRANCH  14  19
ATOM     15  C   UNL     1      47.148   1.454   6.821  0.00  0.00    +0.000 C 
ATOM     16  C   UNL     1      46.351   2.347   7.726  0.00  0.00    +0.000 A 
ATOM     17  C   UNL     1      46.421   3.738   7.588  0.00  0.00    +0.000 A 
ATOM     18  C   UNL     1      45.639   4.573   8.396  0.00  0.00    +0.000 A 
ATOM     19  C   UNL     1      44.770   4.033   9.347  0.00  0.00    +0.000 A 
ATOM     20  C   UNL     1      44.761   2.650   9.538  0.00  0.00    +0.000 A 
ATOM     21  C   UNL     1      45.550   1.812   8.739  0.00  0.00    +0.000 A 
ENDBRANCH  14  19
ENDBRANCH  13  14
ENDBRANCH   1  13
TORSDOF 4
ENDMDL
MODEL 7
REMARK VINA RESULT:    -5.832      3.456      5.479
REMARK INTER + INTRA:          -7.873
REMARK INTER:                  -7.423
REMARK INTRA:                  -0.450
REMARK UNBOUND:                -0.677
REMARK  Name = 
REMARK  5 active torsions:
REMARK  status: ('A' for Active; 'I' for Inactive)
REMARK    1  A    between atoms: C_1  and  C_2
REMARK    2  A    between atoms: C_5  and  O_6
REMARK    3  A    between atoms: O_6  and  C_7
REMARK    4  A    between atoms: C_7  and  C_8
REMARK    5  A    between atoms: C_11  and  C_12
REMARK                            x       y       z     vdW  Elec       q    Type
REMARK                         _______ _______ _______ _____ _____    ______ ____
ROOT
ATOM      1  C   UNL     1      46.964   6.164  12.973  0.00  0.00    +0.000 A 
ATOM      2  C   UNL     1      46.434   6.865  11.882  0.00  0.00    +0.000 A 
ATOM      3  C   UNL     1      45.468   6.273  11.056  0.00  0.00    +0.000 A 
ATOM      4  C   UNL     1      45.016   4.965  11.305  0.00  0.00    +0.000 A 
ATOM      5  C   UNL     1      45.595   4.247  12.349  0.00  0.00    +0.000 A 
ATOM      6  F   UNL     1      45.224   2.986  12.622  0.00  0.00    +0.000 F 
ATOM      7  C   UNL     1      46.559   4.833  13.169  0.00  0.00    +0.000 A 
ENDROOT
BRANCH   4   8
ATOM      8  C   UNL     1      43.901   4.428  10.482  0.00  0.00    +0.000 C 
ATOM      9  N   UNL     1      44.017   4.465   9.121  0.00  0.00    +0.000 N 
ATOM     10  O   UNL     1      42.912   3.935  11.006  0.00  0.00    +0.000 OA
ATOM     11  H   UNL     1      44.827   4.845   8.645  0.00  0.00    +0.000 HD
ATOM     12  H   UNL     1      43.284   4.040   8.573  0.00  0.00    +0.000 HD
ENDBRANCH   4   8
BRANCH   1  13
ATOM     13  C   UNL     1      47.881   6.789  14.006  0.00  0.00    +0.000 C 
BRANCH  13  14
ATOM     14  O   UNL     1      48.655   5.845  14.749  0.00  0.00    +0.000 OA
BRANCH  14  19
ATOM     15  C   UNL     1      47.411   6.125  20.295  0.00  0.00    +0.000 C 
ATOM     16  C   UNL     1      47.788   5.997  18.848  0.00  0.00    +0.000 A 
ATOM     17  C   UNL     1      47.424   4.857  18.122  0.00  0.00    +0.000 A 
ATOM     18  C   UNL     1      47.729   4.757  16.758  0.00  0.00    +0.000 A 
ATOM     19  C   UNL     1      48.391   5.794  16.098  0.00  0.00    +0.000 A 
ATOM     20  C   UNL     1      48.824   6.893  16.842  0.00  0.00    +0.000 A 
ATOM     21  C   UNL     1      48.531   6.992  18.209  0.00  0.00    +0.000 A 
ENDBRANCH  14  19
ENDBRANCH  13  14
ENDBRANCH   1  13
TORSDOF 4
ENDMDL
MODEL 8
REMARK VINA RESULT:    -5.820      3.733      5.713
REMARK INTER + INTRA:          -7.858
REMARK INTER:                  -7.344
REMARK INTRA:                  -0.515
REMARK UNBOUND:                -0.677
REMARK  Name = 
REMARK  5 active torsions:
REMARK  status: ('A' for Active; 'I' for Inactive)
REMARK    1  A    between atoms: C_1  and  C_2
REMARK    2  A    between atoms: C_5  and  O_6
REMARK    3  A    between atoms: O_6  and  C_7
REMARK    4  A    between atoms: C_7  and  C_8
REMARK    5  A    between atoms: C_11  and  C_12
REMARK                            x       y       z     vdW  Elec       q    Type
REMARK                         _______ _______ _______ _____ _____    ______ ____
ROOT
ATOM      1  C   UNL     1      46.976   5.462  13.693  0.00  0.00    +0.000 A 
ATOM      2  C   UNL     1      46.864   6.424  12.681  0.00  0.00    +0.000 A 
ATOM      3  C   UNL     1      45.987   6.227  11.605  0.00  0.00    +0.000 A 
ATOM      4  C   UNL     1      45.207   5.059  11.521  0.00  0.00    +0.000 A 
ATOM      5  C   UNL     1      45.372   4.076  12.492  0.00  0.00    +0.000 A 
ATOM      6  F   UNL     1      44.674   2.930  12.453  0.00  0.00    +0.000 F 
ATOM      7  C   UNL     1      46.246   4.269  13.561  0.00  0.00    +0.000 A 
ENDROOT
BRANCH   4   8
ATOM      8  C   UNL     1      44.200   4.954  10.432  0.00  0.00    +0.000 C 
ATOM      9  N   UNL     1      44.621   4.581   9.187  0.00  0.00    +0.000 N 
ATOM     10  O   UNL     1      43.015   5.165  10.648  0.00  0.00    +0.000 OA
ATOM     11  H   UNL     1      45.589   4.376   8.968  0.00  0.00    +0.000 HD
ATOM     12  H   UNL     1      43.921   4.449   8.471  0.00  0.00    +0.000 HD
ENDBRANCH   4   8
BRANCH   1  13
ATOM     13  C   UNL     1      47.770   5.674  14.968  0.00  0.00    +0.000 C 
BRANCH  13  14
ATOM     14  O   UNL     1      47.410   4.793  16.035  0.00  0.00    +0.000 OA
BRANCH  14  19
ATOM     15  C   UNL     1      51.665   1.373  17.641  0.00  0.00    +0.000 C 
ATOM     16  C   UNL     1      50.523   2.280  17.290  0.00  0.00    +0.000 A 
ATOM     17  C   UNL     1      50.550   3.628  17.663  0.00  0.00    +0.000 A 
ATOM     18  C   UNL     1      49.510   4.490  17.291  0.00  0.00    +0.000 A 
ATOM     19  C   UNL     1      48.434   4.021  16.534  0.00  0.00    +0.000 A 
ATOM     20  C   UNL     1      48.369   2.659  16.233  0.00  0.00    +0.000 A 
ATOM     21  C   UNL     1      49.402   1.793  16.613  0.00  0.00    +0.000 A 
ENDBRANCH  14  19
ENDBRANCH  13  14
ENDBRANCH   1  13
TORSDOF 4
ENDMDL
MODEL 9
REMARK VINA RESULT:    -5.707      5.194      8.145
REMARK INTER + INTRA:          -7.718
REMARK INTER:                  -7.410
REMARK INTRA:                  -0.308
REMARK UNBOUND:                -0.677
REMARK  Name = 
REMARK  5 active torsions:
REMARK  status: ('A' for Active; 'I' for Inactive)
REMARK    1  A    between atoms: C_1  and  C_2
REMARK    2  A    between atoms: C_5  and  O_6
REMARK    3  A    between atoms: O_6  and  C_7
REMARK    4  A    between atoms: C_7  and  C_8
REMARK    5  A    between atoms: C_11  and  C_12
REMARK                            x       y       z     vdW  Elec       q    Type
REMARK                         _______ _______ _______ _____ _____    ______ ____
ROOT
ATOM      1  C   UNL     1      47.515   5.177  15.129  0.00  0.00    +0.000 A 
ATOM      2  C   UNL     1      48.415   6.045  15.761  0.00  0.00    +0.000 A 
ATOM      3  C   UNL     1      48.973   5.711  17.003  0.00  0.00    +0.000 A 
ATOM      4  C   UNL     1      48.639   4.502  17.637  0.00  0.00    +0.000 A 
ATOM      5  C   UNL     1      47.693   3.674  17.039  0.00  0.00    +0.000 A 
ATOM      6  F   UNL     1      47.314   2.519  17.607  0.00  0.00    +0.000 F 
ATOM      7  C   UNL     1      47.133   4.006  15.805  0.00  0.00    +0.000 A 
ENDROOT
BRANCH   4   8
ATOM      8  C   UNL     1      49.353   4.134  18.888  0.00  0.00    +0.000 C 
ATOM      9  N   UNL     1      48.617   3.753  19.973  0.00  0.00    +0.000 N 
ATOM     10  O   UNL     1      50.576   4.139  18.940  0.00  0.00    +0.000 OA
ATOM     11  H   UNL     1      47.604   3.713  19.968  0.00  0.00    +0.000 HD
ATOM     12  H   UNL     1      49.113   3.443  20.796  0.00  0.00    +0.000 HD
ENDBRANCH   4   8
BRANCH   1  13
ATOM     13  C   UNL     1      47.001   5.385  13.718  0.00  0.00    +0.000 C 
BRANCH  13  14
ATOM     14  O   UNL     1      45.667   4.917  13.506  0.00  0.00    +0.000 OA
BRANCH  14  19
ATOM     15  C   UNL     1      44.855   3.670   8.013  0.00  0.00    +0.000 C 
ATOM     16  C   UNL     1      44.995   4.000   9.470  0.00  0.00    +0.000 A 
ATOM     17  C   UNL     1      44.643   3.060  10.445  0.00  0.00    +0.000 A 
ATOM     18  C   UNL     1      44.821   3.345  11.805  0.00  0.00    +0.000 A 
ATOM     19  C   UNL     1      45.360   4.567  12.211  0.00  0.00    +0.000 A 
ATOM     20  C   UNL     1      45.635   5.534  11.242  0.00  0.00    +0.000 A 
ATOM     21  C   UNL     1      45.448   5.257   9.882  0.00  0.00    +0.000 A 
ENDBRANCH  14  19
ENDBRANCH  13  14
ENDBRANCH   1  13
TORSDOF 4
ENDMDL
