MODEL 1
REMARK VINA RESULT:    -8.622      0.000      0.000
REMARK INTER + INTRA:         -12.261
REMARK INTER:                 -11.142
REMARK INTRA:                  -1.119
REMARK UNBOUND:                -1.119
REMARK  Name = 
REMARK  5 active torsions:
REMARK  status: ('A' for Active; 'I' for Inactive)
REMARK    1  A    between atoms: C_2  and  C_4
REMARK    2  A    between atoms: C_7  and  N_8
REMARK    3  A    between atoms: N_8  and  C_9
REMARK    4  A    between atoms: C_9  and  C_10
REMARK    5  A    between atoms: C_14  and  N_15
REMARK                            x       y       z     vdW  Elec       q    Type
REMARK                         _______ _______ _______ _____ _____    ______ ____
ROOT
ATOM      1  N   UNL     1      43.795   4.970   9.893  0.00  0.00    +0.000 N 
ATOM      2  H   UNL     1      43.043   5.409   9.366  0.00  0.00    +0.000 HD
ENDROOT
BRANCH   1   6
ATOM      3  C   UNL     1      46.334   2.299   7.800  0.00  0.00    +0.000 A 
ATOM      4  C   UNL     1      45.327   1.798   8.626  0.00  0.00    +0.000 A 
ATOM      5  C   UNL     1      44.469   2.675   9.299  0.00  0.00    +0.000 A 
ATOM      6  C   UNL     1      44.562   4.066   9.147  0.00  0.00    +0.000 A 
ATOM      7  C   UNL     1      45.575   4.552   8.306  0.00  0.00    +0.000 A 
ATOM      8  C   UNL     1      46.457   3.682   7.642  0.00  0.00    +0.000 A 
BRANCH   3  10
ATOM      9  N   UNL     1      48.402   1.975   6.559  0.00  0.00    +0.000 N 
ATOM     10  C   UNL     1      47.327   1.398   7.164  0.00  0.00    +0.000 C 
ATOM     11  O   UNL     1      47.193   0.173   7.186  0.00  0.00    +0.000 OA
ATOM     12  H   UNL     1      49.100   1.350   6.170  0.00  0.00    +0.000 HD
ATOM     13  H   UNL     1      48.667   2.938   6.714  0.00  0.00    +0.000 HD
ENDBRANCH   3  10
ENDBRANCH   1   6
BRANCH   1  14
ATOM     14  C   UNL     1      43.475   4.666  11.287  0.00  0.00    +0.000 C 
BRANCH  14  15
ATOM     15  C   UNL     1      44.692   4.769  12.173  0.00  0.00    +0.000 A 
ATOM     16  C   UNL     1      45.307   3.604  12.650  0.00  0.00    +0.000 A 
ATOM     17  C   UNL     1      46.508   3.681  13.342  0.00  0.00    +0.000 A 
ATOM     18  C   UNL     1      47.107   4.922  13.548  0.00  0.00    +0.000 A 
ATOM     19  C   UNL     1      46.512   6.115  13.110  0.00  0.00    +0.000 A 
ATOM     20  C   UNL     1      45.271   6.019  12.465  0.00  0.00    +0.000 A 
BRANCH  19  21
ATOM     21  N   UNL     1      47.186   7.312  13.285  0.00  0.00    +0.000 N 
ATOM     22  C   UNL     1      46.506   8.602  13.324  0.00  0.00    +0.000 C 
ATOM     23  C   UNL     1      46.819   9.430  12.080  0.00  0.00    +0.000 C 
ATOM     24  C   UNL     1      48.322   9.510  11.816  0.00  0.00    +0.000 C 
ATOM     25  C   UNL     1      48.941   8.116  11.765  0.00  0.00    +0.000 C 
ATOM     26  C   UNL     1      48.630   7.324  13.034  0.00  0.00    +0.000 C 
ENDBRANCH  19  21
ENDBRANCH  14  15
ENDBRANCH   1  14
TORSDOF 5
ENDMDL
MODEL 2
REMARK VINA RESULT:    -7.672      1.253      2.291
REMARK INTER + INTRA:         -11.033
REMARK INTER:                 -10.109
REMARK INTRA:                  -0.924
REMARK UNBOUND:                -1.119
REMARK  Name = 
REMARK  5 active torsions:
REMARK  status: ('A' for Active; 'I' for Inactive)
REMARK    1  A    between atoms: C_2  and  C_4
REMARK    2  A    between atoms: C_7  and  N_8
REMARK    3  A    between atoms: N_8  and  C_9
REMARK    4  A    between atoms: C_9  and  C_10
REMARK    5  A    between atoms: C_14  and  N_15
REMARK                            x       y       z     vdW  Elec       q    Type
REMARK                         _______ _______ _______ _____ _____    ______ ____
ROOT
ATOM      1  N   UNL     1      44.050   4.984  10.180  0.00  0.00    +0.000 N 
ATOM      2  H   UNL     1      43.037   4.900  10.128  0.00  0.00    +0.000 HD
ENDROOT
BRANCH   1   6
ATOM      3  C   UNL     1      46.376   2.379   7.779  0.00  0.00    +0.000 A 
ATOM      4  C   UNL     1      45.492   1.852   8.722  0.00  0.00    +0.000 A 
ATOM      5  C   UNL     1      44.702   2.707   9.500  0.00  0.00    +0.000 A 
ATOM      6  C   UNL     1      44.741   4.100   9.342  0.00  0.00    +0.000 A 
ATOM      7  C   UNL     1      45.629   4.612   8.383  0.00  0.00    +0.000 A 
ATOM      8  C   UNL     1      46.443   3.765   7.612  0.00  0.00    +0.000 A 
BRANCH   3  10
ATOM      9  N   UNL     1      48.426   2.077   6.503  0.00  0.00    +0.000 N 
ATOM     10  C   UNL     1      47.304   1.503   7.022  0.00  0.00    +0.000 C 
ATOM     11  O   UNL     1      47.079   0.301   6.871  0.00  0.00    +0.000 OA
ATOM     12  H   UNL     1      49.079   1.461   6.030  0.00  0.00    +0.000 HD
ATOM     13  H   UNL     1      48.761   2.985   6.792  0.00  0.00    +0.000 HD
ENDBRANCH   3  10
ENDBRANCH   1   6
BRANCH   1  14
ATOM     14  C   UNL     1      44.576   5.272  11.514  0.00  0.00    +0.000 C 
BRANCH  14  15
ATOM     15  C   UNL     1      45.188   6.649  11.587  0.00  0.00    +0.000 A 
ATOM     16  C   UNL     1      44.375   7.781  11.442  0.00  0.00    +0.000 A 
ATOM     17  C   UNL     1      44.899   9.049  11.654  0.00  0.00    +0.000 A 
ATOM     18  C   UNL     1      46.235   9.190  12.024  0.00  0.00    +0.000 A 
ATOM     19  C   UNL     1      47.090   8.085  12.155  0.00  0.00    +0.000 A 
ATOM     20  C   UNL     1      46.555   6.818  11.880  0.00  0.00    +0.000 A 
BRANCH  19  21
ATOM     21  N   UNL     1      48.390   8.282  12.590  0.00  0.00    +0.000 N 
ATOM     22  C   UNL     1      48.925   9.603  12.904  0.00  0.00    +0.000 C 
ATOM     23  C   UNL     1      49.960  10.041  11.872  0.00  0.00    +0.000 C 
ATOM     24  C   UNL     1      51.019   8.964  11.639  0.00  0.00    +0.000 C 
ATOM     25  C   UNL     1      50.369   7.628  11.289  0.00  0.00    +0.000 C 
ATOM     26  C   UNL     1      49.358   7.207  12.354  0.00  0.00    +0.000 C 
ENDBRANCH  19  21
ENDBRANCH  14  15
ENDBRANCH   1  14
TORSDOF 5
ENDMDL
MODEL 3
REMARK VINA RESULT:    -7.089      4.372      8.213
REMARK INTER + INTRA:         -10.280
REMARK INTER:                  -9.566
REMARK INTRA:                  -0.715
REMARK UNBOUND:                -1.119
REMARK  Name = 
REMARK  5 active torsions:
REMARK  status: ('A' for Active; 'I' for Inactive)
REMARK    1  A    between atoms: C_2  and  C_4
REMARK    2  A    between atoms: C_7  and  N_8
REMARK    3  A    between atoms: N_8  and  C_9
REMARK    4  A    between atoms: C_9  and  C_10
REMARK    5  A    between atoms: C_14  and  N_15
REMARK                            x       y       z     vdW  Elec       q    Type
REMARK                         _______ _______ _______ _____ _____    ______ ____
ROOT
ATOM      1  N   UNL     1      47.062   3.486  14.509  0.00  0.00    +0.000 N 
ATOM      2  H   UNL     1      46.414   2.702  14.502  0.00  0.00    +0.000 HD
ENDROOT
BRANCH   1   6
ATOM      3  C   UNL     1      48.377   4.535  18.400  0.00  0.00    +0.000 A 
ATOM      4  C   UNL     1      48.080   3.204  18.101  0.00  0.00    +0.000 A 
ATOM      5  C   UNL     1      47.670   2.848  16.811  0.00  0.00    +0.000 A 
ATOM      6  C   UNL     1      47.577   3.790  15.776  0.00  0.00    +0.000 A 
ATOM      7  C   UNL     1      47.888   5.122  16.092  0.00  0.00    +0.000 A 
ATOM      8  C   UNL     1      48.278   5.495  17.389  0.00  0.00    +0.000 A 
BRANCH   3  10
ATOM      9  N   UNL     1      48.688   4.001  20.753  0.00  0.00    +0.000 N 
ATOM     10  C   UNL     1      48.704   4.958  19.784  0.00  0.00    +0.000 C 
ATOM     11  O   UNL     1      48.989   6.126  20.051  0.00  0.00    +0.000 OA
ATOM     12  H   UNL     1      48.961   4.289  21.687  0.00  0.00    +0.000 HD
ATOM     13  H   UNL     1      48.688   3.011  20.547  0.00  0.00    +0.000 HD
ENDBRANCH   3  10
ENDBRANCH   1   6
BRANCH   1  14
ATOM     14  C   UNL     1      46.726   4.572  13.589  0.00  0.00    +0.000 C 
BRANCH  14  15
ATOM     15  C   UNL     1      45.476   4.268  12.801  0.00  0.00    +0.000 A 
ATOM     16  C   UNL     1      44.226   4.651  13.303  0.00  0.00    +0.000 A 
ATOM     17  C   UNL     1      43.086   4.511  12.523  0.00  0.00    +0.000 A 
ATOM     18  C   UNL     1      43.193   3.998  11.231  0.00  0.00    +0.000 A 
ATOM     19  C   UNL     1      44.422   3.578  10.700  0.00  0.00    +0.000 A 
ATOM     20  C   UNL     1      45.551   3.675  11.526  0.00  0.00    +0.000 A 
BRANCH  19  21
ATOM     21  N   UNL     1      44.476   3.138   9.387  0.00  0.00    +0.000 N 
ATOM     22  C   UNL     1      44.682   1.738   9.032  0.00  0.00    +0.000 C 
ATOM     23  C   UNL     1      46.060   1.522   8.413  0.00  0.00    +0.000 C 
ATOM     24  C   UNL     1      46.335   2.512   7.283  0.00  0.00    +0.000 C 
ATOM     25  C   UNL     1      46.123   3.948   7.754  0.00  0.00    +0.000 C 
ATOM     26  C   UNL     1      44.726   4.137   8.344  0.00  0.00    +0.000 C 
ENDBRANCH  19  21
ENDBRANCH  14  15
ENDBRANCH   1  14
TORSDOF 5
ENDMDL
MODEL 4
REMARK VINA RESULT:    -6.924      1.744      2.890
REMARK INTER + INTRA:         -10.067
REMARK INTER:                  -9.151
REMARK INTRA:                  -0.916
REMARK UNBOUND:                -1.119
REMARK  Name = 
REMARK  5 active torsions:
REMARK  status: ('A' for Active; 'I' for Inactive)
REMARK    1  A    between atoms: C_2  and  C_4
REMARK    2  A    between atoms: C_7  and  N_8
REMARK    3  A    between atoms: N_8  and  C_9
REMARK    4  A    between atoms: C_9  and  C_10
REMARK    5  A    between atoms: C_14  and  N_15
REMARK                            x       y       z     vdW  Elec       q    Type
REMARK                         _______ _______ _______ _____ _____    ______ ____
ROOT
ATOM      1  N   UNL     1      43.520   4.103  10.667  0.00  0.00    +0.000 N 
ATOM      2  H   UNL     1      42.592   3.738  10.462  0.00  0.00    +0.000 HD
ENDROOT
BRANCH   1   6
ATOM      3  C   UNL     1      46.275   2.878   7.688  0.00  0.00    +0.000 A 
ATOM      4  C   UNL     1      46.061   4.238   7.920  0.00  0.00    +0.000 A 
ATOM      5  C   UNL     1      45.172   4.648   8.920  0.00  0.00    +0.000 A 
ATOM      6  C   UNL     1      44.499   3.728   9.738  0.00  0.00    +0.000 A 
ATOM      7  C   UNL     1      44.733   2.366   9.496  0.00  0.00    +0.000 A 
ATOM      8  C   UNL     1      45.606   1.941   8.480  0.00  0.00    +0.000 A 
BRANCH   3  10
ATOM      9  N   UNL     1      48.231   1.682   6.872  0.00  0.00    +0.000 N 
ATOM     10  C   UNL     1      47.124   2.415   6.563  0.00  0.00    +0.000 C 
ATOM     11  O   UNL     1      46.840   2.672   5.392  0.00  0.00    +0.000 OA
ATOM     12  H   UNL     1      48.778   1.328   6.094  0.00  0.00    +0.000 HD
ATOM     13  H   UNL     1      48.373   1.260   7.779  0.00  0.00    +0.000 HD
ENDBRANCH   3  10
ENDBRANCH   1   6
BRANCH   1  14
ATOM     14  C   UNL     1      43.860   4.161  12.088  0.00  0.00    +0.000 C 
BRANCH  14  15
ATOM     15  C   UNL     1      44.836   5.272  12.383  0.00  0.00    +0.000 A 
ATOM     16  C   UNL     1      44.534   6.585  11.998  0.00  0.00    +0.000 A 
ATOM     17  C   UNL     1      45.352   7.635  12.394  0.00  0.00    +0.000 A 
ATOM     18  C   UNL     1      46.468   7.379  13.187  0.00  0.00    +0.000 A 
ATOM     19  C   UNL     1      46.821   6.077  13.573  0.00  0.00    +0.000 A 
ATOM     20  C   UNL     1      46.014   5.026  13.114  0.00  0.00    +0.000 A 
BRANCH  19  21
ATOM     21  N   UNL     1      47.904   5.890  14.416  0.00  0.00    +0.000 N 
ATOM     22  C   UNL     1      47.911   4.896  15.483  0.00  0.00    +0.000 C 
ATOM     23  C   UNL     1      47.863   5.558  16.857  0.00  0.00    +0.000 C 
ATOM     24  C   UNL     1      48.923   6.650  16.997  0.00  0.00    +0.000 C 
ATOM     25  C   UNL     1      48.821   7.657  15.856  0.00  0.00    +0.000 C 
ATOM     26  C   UNL     1      48.898   6.965  14.496  0.00  0.00    +0.000 C 
ENDBRANCH  19  21
ENDBRANCH  14  15
ENDBRANCH   1  14
TORSDOF 5
ENDMDL
MODEL 5
REMARK VINA RESULT:    -6.890      3.545      7.431
REMARK INTER + INTRA:         -10.023
REMARK INTER:                  -9.360
REMARK INTRA:                  -0.663
REMARK UNBOUND:                -1.119
REMARK  Name = 
REMARK  5 active torsions:
REMARK  status: ('A' for Active; 'I' for Inactive)
REMARK    1  A    between atoms: C_2  and  C_4
REMARK    2  A    between atoms: C_7  and  N_8
REMARK    3  A    between atoms: N_8  and  C_9
REMARK    4  A    between atoms: C_9  and  C_10
REMARK    5  A    between atoms: C_14  and  N_15
REMARK                            x       y       z     vdW  Elec       q    Type
REMARK                         _______ _______ _______ _____ _____    ______ ____
ROOT
ATOM      1  N   UNL     1      47.044   6.249  12.838  0.00  0.00    +0.000 N 
ATOM      2  H   UNL     1      47.570   5.896  12.041  0.00  0.00    +0.000 HD
ENDROOT
BRANCH   1   6
ATOM      3  C   UNL     1      48.308   5.087  16.712  0.00  0.00    +0.000 A 
ATOM      4  C   UNL     1      47.469   4.250  15.975  0.00  0.00    +0.000 A 
ATOM      5  C   UNL     1      47.069   4.617  14.684  0.00  0.00    +0.000 A 
ATOM      6  C   UNL     1      47.515   5.800  14.078  0.00  0.00    +0.000 A 
ATOM      7  C   UNL     1      48.365   6.625  14.831  0.00  0.00    +0.000 A 
ATOM      8  C   UNL     1      48.755   6.279  16.136  0.00  0.00    +0.000 A 
BRANCH   3  10
ATOM      9  N   UNL     1      48.011   3.734  18.713  0.00  0.00    +0.000 N 
ATOM     10  C   UNL     1      48.656   4.778  18.122  0.00  0.00    +0.000 C 
ATOM     11  O   UNL     1      49.501   5.431  18.735  0.00  0.00    +0.000 OA
ATOM     12  H   UNL     1      48.291   3.499  19.660  0.00  0.00    +0.000 HD
ATOM     13  H   UNL     1      47.494   3.041  18.190  0.00  0.00    +0.000 HD
ENDBRANCH   3  10
ENDBRANCH   1   6
BRANCH   1  14
ATOM     14  C   UNL     1      45.604   6.376  12.617  0.00  0.00    +0.000 C 
BRANCH  14  15
ATOM     15  C   UNL     1      44.993   5.075  12.158  0.00  0.00    +0.000 A 
ATOM     16  C   UNL     1      44.074   4.409  12.979  0.00  0.00    +0.000 A 
ATOM     17  C   UNL     1      43.395   3.294  12.507  0.00  0.00    +0.000 A 
ATOM     18  C   UNL     1      43.624   2.846  11.208  0.00  0.00    +0.000 A 
ATOM     19  C   UNL     1      44.556   3.467  10.362  0.00  0.00    +0.000 A 
ATOM     20  C   UNL     1      45.271   4.557  10.879  0.00  0.00    +0.000 A 
BRANCH  19  21
ATOM     21  N   UNL     1      44.692   3.018   9.059  0.00  0.00    +0.000 N 
ATOM     22  C   UNL     1      44.968   1.624   8.730  0.00  0.00    +0.000 C 
ATOM     23  C   UNL     1      46.382   1.454   8.182  0.00  0.00    +0.000 C 
ATOM     24  C   UNL     1      46.675   2.444   7.055  0.00  0.00    +0.000 C 
ATOM     25  C   UNL     1      46.385   3.875   7.499  0.00  0.00    +0.000 C 
ATOM     26  C   UNL     1      44.955   4.016   8.018  0.00  0.00    +0.000 C 
ENDBRANCH  19  21
ENDBRANCH  14  15
ENDBRANCH   1  14
TORSDOF 5
ENDMDL
MODEL 6
REMARK VINA RESULT:    -6.464      3.052      6.680
REMARK INTER + INTRA:          -9.473
REMARK INTER:                  -8.969
REMARK INTRA:                  -0.504
REMARK UNBOUND:                -1.119
REMARK  Name = 
REMARK  5 active torsions:
REMARK  status: ('A' for Active; 'I' for Inactive)
REMARK    1  A    between atoms: C_2  and  C_4
REMARK    2  A    between atoms: C_7  and  N_8
REMARK    3  A    between atoms: N_8  and  C_9
REMARK    4  A    between atoms: C_9  and  C_10
REMARK    5  A    between atoms: C_14  and  N_15
REMARK                            x       y       z     vdW  Elec       q    Type
REMARK                         _______ _______ _______ _____ _____    ______ ____
ROOT
ATOM      1  N   UNL     1      47.528   5.255  13.281  0.00  0.00    +0.000 N 
ATOM      2  H   UNL     1      48.363   5.428  13.837  0.00  0.00    +0.000 HD
ENDROOT
BRANCH   1   6
ATOM      3  C   UNL     1      45.379   8.633  11.892  0.00  0.00    +0.000 A 
ATOM      4  C   UNL     1      45.905   8.627  13.185  0.00  0.00    +0.000 A 
ATOM      5  C   UNL     1      46.637   7.525  13.640  0.00  0.00    +0.000 A 
ATOM      6  C   UNL     1      46.898   6.418  12.820  0.00  0.00    +0.000 A 
ATOM      7  C   UNL     1      46.370   6.445  11.520  0.00  0.00    +0.000 A 
ATOM      8  C   UNL     1      45.613   7.536  11.059  0.00  0.00    +0.000 A 
BRANCH   3  10
ATOM      9  N   UNL     1      43.756   9.513  10.307  0.00  0.00    +0.000 N 
ATOM     10  C   UNL     1      44.505   9.737  11.422  0.00  0.00    +0.000 C 
ATOM     11  O   UNL     1      44.449  10.813  12.019  0.00  0.00    +0.000 OA
ATOM     12  H   UNL     1      43.125  10.255  10.022  0.00  0.00    +0.000 HD
ATOM     13  H   UNL     1      43.598   8.589   9.929  0.00  0.00    +0.000 HD
ENDBRANCH   3  10
ENDBRANCH   1   6
BRANCH   1  14
ATOM     14  C   UNL     1      46.716   4.123  13.727  0.00  0.00    +0.000 C 
BRANCH  14  15
ATOM     15  C   UNL     1      45.461   3.979  12.902  0.00  0.00    +0.000 A 
ATOM     16  C   UNL     1      44.249   4.493  13.383  0.00  0.00    +0.000 A 
ATOM     17  C   UNL     1      43.122   4.499  12.572  0.00  0.00    +0.000 A 
ATOM     18  C   UNL     1      43.204   4.003  11.272  0.00  0.00    +0.000 A 
ATOM     19  C   UNL     1      44.391   3.455  10.761  0.00  0.00    +0.000 A 
ATOM     20  C   UNL     1      45.501   3.407  11.616  0.00  0.00    +0.000 A 
BRANCH  19  21
ATOM     21  N   UNL     1      44.430   3.038   9.441  0.00  0.00    +0.000 N 
ATOM     22  C   UNL     1      44.715   1.660   9.057  0.00  0.00    +0.000 C 
ATOM     23  C   UNL     1      46.083   1.543   8.390  0.00  0.00    +0.000 C 
ATOM     24  C   UNL     1      46.255   2.565   7.268  0.00  0.00    +0.000 C 
ATOM     25  C   UNL     1      45.964   3.978   7.768  0.00  0.00    +0.000 C 
ATOM     26  C   UNL     1      44.579   4.066   8.406  0.00  0.00    +0.000 C 
ENDBRANCH  19  21
ENDBRANCH  14  15
ENDBRANCH   1  14
TORSDOF 5
ENDMDL
MODEL 7
REMARK VINA RESULT:    -6.460      2.993      7.092
REMARK INTER + INTRA:          -9.468
REMARK INTER:                  -8.612
REMARK INTRA:                  -0.855
REMARK UNBOUND:                -1.119
REMARK  Name = 
REMARK  5 active torsions:
REMARK  status: ('A' for Active; 'I' for Inactive)
REMARK    1  A    between atoms: C_2  and  C_4
REMARK    2  A    between atoms: C_7  and  N_8
REMARK    3  A    between atoms: N_8  and  C_9
REMARK    4  A    between atoms: C_9  and  C_10
REMARK    5  A    between atoms: C_14  and  N_15
REMARK                            x       y       z     vdW  Elec       q    Type
REMARK                         _______ _______ _______ _____ _____    ______ ____
ROOT
ATOM      1  N   UNL     1      46.403   7.082  11.586  0.00  0.00    +0.000 N 
ATOM      2  H   UNL     1      46.591   6.577  10.723  0.00  0.00    +0.000 HD
ENDROOT
BRANCH   1   6
ATOM      3  C   UNL     1      49.899   7.682  13.906  0.00  0.00    +0.000 A 
ATOM      4  C   UNL     1      49.931   7.906  12.528  0.00  0.00    +0.000 A 
ATOM      5  C   UNL     1      48.773   7.735  11.761  0.00  0.00    +0.000 A 
ATOM      6  C   UNL     1      47.548   7.372  12.339  0.00  0.00    +0.000 A 
ATOM      7  C   UNL     1      47.532   7.160  13.727  0.00  0.00    +0.000 A 
ATOM      8  C   UNL     1      48.693   7.307  14.504  0.00  0.00    +0.000 A 
BRANCH   3  10
ATOM      9  N   UNL     1      52.052   8.701  14.402  0.00  0.00    +0.000 N 
ATOM     10  C   UNL     1      51.134   7.748  14.725  0.00  0.00    +0.000 C 
ATOM     11  O   UNL     1      51.325   6.977  15.667  0.00  0.00    +0.000 OA
ATOM     12  H   UNL     1      52.871   8.771  14.998  0.00  0.00    +0.000 HD
ATOM     13  H   UNL     1      51.840   9.485  13.801  0.00  0.00    +0.000 HD
ENDBRANCH   3  10
ENDBRANCH   1   6
BRANCH   1  14
ATOM     14  C   UNL     1      45.169   6.696  12.270  0.00  0.00    +0.000 C 
BRANCH  14  15
ATOM     15  C   UNL     1      44.768   5.280  11.939  0.00  0.00    +0.000 A 
ATOM     16  C   UNL     1      44.031   4.530  12.866  0.00  0.00    +0.000 A 
ATOM     17  C   UNL     1      43.531   3.284  12.515  0.00  0.00    +0.000 A 
ATOM     18  C   UNL     1      43.754   2.786  11.233  0.00  0.00    +0.000 A 
ATOM     19  C   UNL     1      44.508   3.492  10.284  0.00  0.00    +0.000 A 
ATOM     20  C   UNL     1      45.053   4.723  10.678  0.00  0.00    +0.000 A 
BRANCH  19  21
ATOM     21  N   UNL     1      44.641   2.977   9.005  0.00  0.00    +0.000 N 
ATOM     22  C   UNL     1      44.898   1.565   8.746  0.00  0.00    +0.000 C 
ATOM     23  C   UNL     1      46.311   1.349   8.210  0.00  0.00    +0.000 C 
ATOM     24  C   UNL     1      46.619   2.278   7.037  0.00  0.00    +0.000 C 
ATOM     25  C   UNL     1      46.348   3.733   7.409  0.00  0.00    +0.000 C 
ATOM     26  C   UNL     1      44.920   3.919   7.917  0.00  0.00    +0.000 C 
ENDBRANCH  19  21
ENDBRANCH  14  15
ENDBRANCH   1  14
TORSDOF 5
ENDMDL
MODEL 8
REMARK VINA RESULT:    -6.364      4.884      7.946
REMARK INTER + INTRA:          -9.344
REMARK INTER:                  -8.532
REMARK INTRA:                  -0.811
REMARK UNBOUND:                -1.119
REMARK  Name = 
REMARK  5 active torsions:
REMARK  status: ('A' for Active; 'I' for Inactive)
REMARK    1  A    between atoms: C_2  and  C_4
REMARK    2  A    between atoms: C_7  and  N_8
REMARK    3  A    between atoms: N_8  and  C_9
REMARK    4  A    between atoms: C_9  and  C_10
REMARK    5  A    between atoms: C_14  and  N_15
REMARK                            x       y       z     vdW  Elec       q    Type
REMARK                         _______ _______ _______ _____ _____    ______ ____
ROOT
ATOM      1  N   UNL     1      48.120   4.675  16.726  0.00  0.00    +0.000 N 
ATOM      2  H   UNL     1      48.318   5.662  16.572  0.00  0.00    +0.000 HD
ENDROOT
BRANCH   1   6
ATOM      3  C   UNL     1      51.550   2.349  17.610  0.00  0.00    +0.000 A 
ATOM      4  C   UNL     1      51.572   3.728  17.822  0.00  0.00    +0.000 A 
ATOM      5  C   UNL     1      50.433   4.498  17.556  0.00  0.00    +0.000 A 
ATOM      6  C   UNL     1      49.236   3.921  17.108  0.00  0.00    +0.000 A 
ATOM      7  C   UNL     1      49.230   2.532  16.908  0.00  0.00    +0.000 A 
ATOM      8  C   UNL     1      50.373   1.751  17.150  0.00  0.00    +0.000 A 
BRANCH   3  10
ATOM      9  N   UNL     1      52.608   0.215  18.110  0.00  0.00    +0.000 N 
ATOM     10  C   UNL     1      52.773   1.526  17.775  0.00  0.00    +0.000 C 
ATOM     11  O   UNL     1      53.898   2.002  17.610  0.00  0.00    +0.000 OA
ATOM     12  H   UNL     1      53.448  -0.351  18.173  0.00  0.00    +0.000 HD
ATOM     13  H   UNL     1      51.722  -0.263  18.030  0.00  0.00    +0.000 HD
ENDBRANCH   3  10
ENDBRANCH   1   6
BRANCH   1  14
ATOM     14  C   UNL     1      47.137   4.096  15.811  0.00  0.00    +0.000 C 
BRANCH  14  15
ATOM     15  C   UNL     1      46.976   4.929  14.564  0.00  0.00    +0.000 A 
ATOM     16  C   UNL     1      47.900   5.944  14.281  0.00  0.00    +0.000 A 
ATOM     17  C   UNL     1      47.849   6.617  13.067  0.00  0.00    +0.000 A 
ATOM     18  C   UNL     1      46.882   6.269  12.126  0.00  0.00    +0.000 A 
ATOM     19  C   UNL     1      45.923   5.278  12.380  0.00  0.00    +0.000 A 
ATOM     20  C   UNL     1      45.957   4.651  13.634  0.00  0.00    +0.000 A 
BRANCH  19  21
ATOM     21  N   UNL     1      45.028   4.930  11.381  0.00  0.00    +0.000 N 
ATOM     22  C   UNL     1      44.301   3.666  11.379  0.00  0.00    +0.000 C 
ATOM     23  C   UNL     1      44.799   2.742  10.270  0.00  0.00    +0.000 C 
ATOM     24  C   UNL     1      44.843   3.453   8.918  0.00  0.00    +0.000 C 
ATOM     25  C   UNL     1      45.647   4.747   9.010  0.00  0.00    +0.000 C 
ATOM     26  C   UNL     1      45.107   5.658  10.111  0.00  0.00    +0.000 C 
ENDBRANCH  19  21
ENDBRANCH  14  15
ENDBRANCH   1  14
TORSDOF 5
ENDMDL
MODEL 9
REMARK VINA RESULT:    -6.236      3.267      5.872
REMARK INTER + INTRA:          -9.177
REMARK INTER:                  -8.336
REMARK INTRA:                  -0.842
REMARK UNBOUND:                -1.119
REMARK  Name = 
REMARK  5 active torsions:
REMARK  status: ('A' for Active; 'I' for Inactive)
REMARK    1  A    between atoms: C_2  and  C_4
REMARK    2  A    between atoms: C_7  and  N_8
REMARK    3  A    between atoms: N_8  and  C_9
REMARK    4  A    between atoms: C_9  and  C_10
REMARK    5  A    between atoms: C_14  and  N_15
REMARK                            x       y       z     vdW  Elec       q    Type
REMARK                         _______ _______ _______ _____ _____    ______ ____
ROOT
ATOM      1  N   UNL     1      46.804   7.396  13.512  0.00  0.00    +0.000 N 
ATOM      2  H   UNL     1      46.571   7.416  14.503  0.00  0.00    +0.000 HD
ENDROOT
BRANCH   1   6
ATOM      3  C   UNL     1      44.916   4.143  11.559  0.00  0.00    +0.000 A 
ATOM      4  C   UNL     1      45.184   5.317  10.853  0.00  0.00    +0.000 A 
ATOM      5  C   UNL     1      45.831   6.385  11.486  0.00  0.00    +0.000 A 
ATOM      6  C   UNL     1      46.259   6.307  12.819  0.00  0.00    +0.000 A 
ATOM      7  C   UNL     1      45.989   5.116  13.511  0.00  0.00    +0.000 A 
ATOM      8  C   UNL     1      45.320   4.046  12.893  0.00  0.00    +0.000 A 
BRANCH   3  10
ATOM      9  N   UNL     1      44.741   2.303   9.976  0.00  0.00    +0.000 N 
ATOM     10  C   UNL     1      44.134   3.040  10.948  0.00  0.00    +0.000 C 
ATOM     11  O   UNL     1      42.982   2.790  11.307  0.00  0.00    +0.000 OA
ATOM     12  H   UNL     1      44.217   1.520   9.599  0.00  0.00    +0.000 HD
ATOM     13  H   UNL     1      45.739   2.321   9.817  0.00  0.00    +0.000 HD
ENDBRANCH   3  10
ENDBRANCH   1   6
BRANCH   1  14
ATOM     14  C   UNL     1      48.155   7.852  13.188  0.00  0.00    +0.000 C 
BRANCH  14  15
ATOM     15  C   UNL     1      49.160   7.396  14.217  0.00  0.00    +0.000 A 
ATOM     16  C   UNL     1      50.422   8.002  14.274  0.00  0.00    +0.000 A 
ATOM     17  C   UNL     1      51.298   7.695  15.307  0.00  0.00    +0.000 A 
ATOM     18  C   UNL     1      50.911   6.790  16.294  0.00  0.00    +0.000 A 
ATOM     19  C   UNL     1      49.667   6.142  16.259  0.00  0.00    +0.000 A 
ATOM     20  C   UNL     1      48.821   6.423  15.177  0.00  0.00    +0.000 A 
BRANCH  19  21
ATOM     21  N   UNL     1      49.312   5.303  17.303  0.00  0.00    +0.000 N 
ATOM     22  C   UNL     1      50.079   4.114  17.656  0.00  0.00    +0.000 C 
ATOM     23  C   UNL     1      49.312   2.839  17.313  0.00  0.00    +0.000 C 
ATOM     24  C   UNL     1      47.889   2.868  17.869  0.00  0.00    +0.000 C 
ATOM     25  C   UNL     1      47.157   4.131  17.427  0.00  0.00    +0.000 C 
ATOM     26  C   UNL     1      47.938   5.387  17.807  0.00  0.00    +0.000 C 
ENDBRANCH  19  21
ENDBRANCH  14  15
ENDBRANCH   1  14
TORSDOF 5
ENDMDL
