MODEL 1
REMARK VINA RESULT:    -9.230      0.000      0.000
REMARK INTER + INTRA:         -13.991
REMARK INTER:                 -12.467
REMARK INTRA:                  -1.523
REMARK UNBOUND:                -1.523
REMARK  Name = 
REMARK  7 active torsions:
REMARK  status: ('A' for Active; 'I' for Inactive)
REMARK    1  A    between atoms: C_1  and  O_2
REMARK    2  A    between atoms: O_2  and  C_3
REMARK    3  A    between atoms: C_7  and  C_8
REMARK    4  A    between atoms: C_12  and  C_13
REMARK    5  A    between atoms: C_13  and  N_14
REMARK    6  A    between atoms: N_14  and  C_15
REMARK    7  A    between atoms: C_18  and  C_19
REMARK                            x       y       z     vdW  Elec       q    Type
REMARK                         _______ _______ _______ _____ _____    ______ ____
ROOT
ATOM      1  C   UNL     1      43.787   4.905  11.478  0.00  0.00    +0.000 C 
ATOM      2  C   UNL     1      42.382   5.546  11.705  0.00  0.00    +0.000 C 
ATOM      3  C   UNL     1      42.945   4.790  12.784  0.00  0.00    +0.000 C 
ENDROOT
BRANCH   1   8
ATOM      4  C   UNL     1      46.997   6.736  12.364  0.00  0.00    +0.000 A 
ATOM      5  C   UNL     1      47.545   5.880  13.327  0.00  0.00    +0.000 A 
ATOM      6  C   UNL     1      46.963   4.639  13.587  0.00  0.00    +0.000 A 
ATOM      7  C   UNL     1      45.782   4.285  12.937  0.00  0.00    +0.000 A 
ATOM      8  C   UNL     1      45.200   5.133  11.977  0.00  0.00    +0.000 A 
ATOM      9  C   UNL     1      45.889   6.290  11.635  0.00  0.00    +0.000 A 
BRANCH   4  14
ATOM     10  C   UNL     1      49.083   9.743  11.467  0.00  0.00    +0.000 A 
ATOM     11  C   UNL     1      48.088  10.710  11.512  0.00  0.00    +0.000 A 
ATOM     12  N   UNL     1      46.806  10.463  11.870  0.00  0.00    +0.000 NA
ATOM     13  C   UNL     1      46.495   9.183  12.181  0.00  0.00    +0.000 A 
ATOM     14  C   UNL     1      47.409   8.133  12.186  0.00  0.00    +0.000 A 
ATOM     15  C   UNL     1      48.730   8.450  11.830  0.00  0.00    +0.000 A 
BRANCH  10  17
ATOM     16  C   UNL     1      51.343   9.142  11.064  0.00  0.00    +0.000 C 
ATOM     17  O   UNL     1      50.324  10.139  11.052  0.00  0.00    +0.000 OA
ENDBRANCH  10  17
ENDBRANCH   4  14
ENDBRANCH   1   8
BRANCH   1  18
ATOM     18  N   UNL     1      43.788   4.773  10.029  0.00  0.00    +0.000 N 
ATOM     19  H   UNL     1      43.183   5.402   9.508  0.00  0.00    +0.000 HD
BRANCH  18  20
ATOM     20  C   UNL     1      44.603   3.962   9.249  0.00  0.00    +0.000 A 
ATOM     21  C   UNL     1      45.536   4.491   8.363  0.00  0.00    +0.000 A 
ATOM     22  C   UNL     1      46.389   3.654   7.655  0.00  0.00    +0.000 A 
ATOM     23  C   UNL     1      46.352   2.271   7.869  0.00  0.00    +0.000 A 
ATOM     24  C   UNL     1      45.430   1.723   8.763  0.00  0.00    +0.000 A 
ATOM     25  C   UNL     1      44.561   2.571   9.445  0.00  0.00    +0.000 A 
BRANCH  23  26
ATOM     26  C   UNL     1      47.307   1.425   7.105  0.00  0.00    +0.000 C 
ATOM     27  N   UNL     1      48.405   2.034   6.571  0.00  0.00    +0.000 N 
ATOM     28  O   UNL     1      47.086   0.259   6.901  0.00  0.00    +0.000 OA
ATOM     29  H   UNL     1      48.488   3.038   6.490  0.00  0.00    +0.000 HD
ATOM     30  H   UNL     1      48.962   1.459   5.955  0.00  0.00    +0.000 HD
ENDBRANCH  23  26
ENDBRANCH  18  20
ENDBRANCH   1  18
TORSDOF 6
ENDMDL
MODEL 2
REMARK VINA RESULT:    -8.526      1.339      2.074
REMARK INTER + INTRA:         -13.039
REMARK INTER:                 -11.644
REMARK INTRA:                  -1.395
REMARK UNBOUND:                -1.523
REMARK  Name = 
REMARK  7 active torsions:
REMARK  status: ('A' for Active; 'I' for Inactive)
REMARK    1  A    between atoms: C_1  and  O_2
REMARK    2  A    between atoms: O_2  and  C_3
REMARK    3  A    between atoms: C_7  and  C_8
REMARK    4  A    between atoms: C_12  and  C_13
REMARK    5  A    between atoms: C_13  and  N_14
REMARK    6  A    between atoms: N_14  and  C_15
REMARK    7  A    between atoms: C_18  and  C_19
REMARK                            x       y       z     vdW  Elec       q    Type
REMARK                         _______ _______ _______ _____ _____    ______ ____
ROOT
ATOM      1  C   UNL     1      43.821   4.941  11.445  0.00  0.00    +0.000 C 
ATOM      2  C   UNL     1      42.418   5.606  11.606  0.00  0.00    +0.000 C 
ATOM      3  C   UNL     1      42.913   4.833  12.706  0.00  0.00    +0.000 C 
ENDROOT
BRANCH   1   8
ATOM      4  C   UNL     1      47.008   6.714  12.519  0.00  0.00    +0.000 A 
ATOM      5  C   UNL     1      47.497   5.834  13.491  0.00  0.00    +0.000 A 
ATOM      6  C   UNL     1      46.888   4.596  13.701  0.00  0.00    +0.000 A 
ATOM      7  C   UNL     1      45.735   4.270  12.988  0.00  0.00    +0.000 A 
ATOM      8  C   UNL     1      45.211   5.142  12.016  0.00  0.00    +0.000 A 
ATOM      9  C   UNL     1      45.931   6.295  11.728  0.00  0.00    +0.000 A 
BRANCH   4  14
ATOM     10  C   UNL     1      46.882  10.459  12.134  0.00  0.00    +0.000 A 
ATOM     11  C   UNL     1      48.194  10.751  12.483  0.00  0.00    +0.000 A 
ATOM     12  N   UNL     1      49.127   9.814  12.776  0.00  0.00    +0.000 NA
ATOM     13  C   UNL     1      48.727   8.522  12.736  0.00  0.00    +0.000 A 
ATOM     14  C   UNL     1      47.445   8.108  12.386  0.00  0.00    +0.000 A 
ATOM     15  C   UNL     1      46.524   9.120  12.068  0.00  0.00    +0.000 A 
BRANCH  10  17
ATOM     16  C   UNL     1      45.347  11.505  10.657  0.00  0.00    +0.000 C 
ATOM     17  O   UNL     1      46.046  11.516  11.900  0.00  0.00    +0.000 OA
ENDBRANCH  10  17
ENDBRANCH   4  14
ENDBRANCH   1   8
BRANCH   1  18
ATOM     18  N   UNL     1      43.893   4.818   9.997  0.00  0.00    +0.000 N 
ATOM     19  H   UNL     1      43.222   5.355   9.455  0.00  0.00    +0.000 HD
BRANCH  18  20
ATOM     20  C   UNL     1      44.846   4.139   9.247  0.00  0.00    +0.000 A 
ATOM     21  C   UNL     1      44.832   2.754   9.122  0.00  0.00    +0.000 A 
ATOM     22  C   UNL     1      45.751   2.111   8.302  0.00  0.00    +0.000 A 
ATOM     23  C   UNL     1      46.667   2.859   7.553  0.00  0.00    +0.000 A 
ATOM     24  C   UNL     1      46.687   4.251   7.657  0.00  0.00    +0.000 A 
ATOM     25  C   UNL     1      45.779   4.882   8.504  0.00  0.00    +0.000 A 
BRANCH  23  26
ATOM     26  C   UNL     1      47.609   2.122   6.671  0.00  0.00    +0.000 C 
ATOM     27  N   UNL     1      47.948   2.701   5.483  0.00  0.00    +0.000 N 
ATOM     28  O   UNL     1      48.004   1.021   6.957  0.00  0.00    +0.000 OA
ATOM     29  H   UNL     1      47.440   3.482   5.090  0.00  0.00    +0.000 HD
ATOM     30  H   UNL     1      48.485   2.120   4.855  0.00  0.00    +0.000 HD
ENDBRANCH  23  26
ENDBRANCH  18  20
ENDBRANCH   1  18
TORSDOF 6
ENDMDL
MODEL 3
REMARK VINA RESULT:    -7.498      3.184      7.006
REMARK INTER + INTRA:         -11.652
REMARK INTER:                 -10.727
REMARK INTRA:                  -0.925
REMARK UNBOUND:                -1.523
REMARK  Name = 
REMARK  7 active torsions:
REMARK  status: ('A' for Active; 'I' for Inactive)
REMARK    1  A    between atoms: C_1  and  O_2
REMARK    2  A    between atoms: O_2  and  C_3
REMARK    3  A    between atoms: C_7  and  C_8
REMARK    4  A    between atoms: C_12  and  C_13
REMARK    5  A    between atoms: C_13  and  N_14
REMARK    6  A    between atoms: N_14  and  C_15
REMARK    7  A    between atoms: C_18  and  C_19
REMARK                            x       y       z     vdW  Elec       q    Type
REMARK                         _______ _______ _______ _____ _____    ______ ____
ROOT
ATOM      1  C   UNL     1      45.964   7.442  12.128  0.00  0.00    +0.000 C 
ATOM      2  C   UNL     1      46.024   8.703  13.047  0.00  0.00    +0.000 C 
ATOM      3  C   UNL     1      45.272   8.806  11.832  0.00  0.00    +0.000 C 
ENDROOT
BRANCH   1   8
ATOM      4  C   UNL     1      44.403   4.450  10.380  0.00  0.00    +0.000 A 
ATOM      5  C   UNL     1      43.366   4.127  11.262  0.00  0.00    +0.000 A 
ATOM      6  C   UNL     1      43.067   4.958  12.343  0.00  0.00    +0.000 A 
ATOM      7  C   UNL     1      43.863   6.075  12.589  0.00  0.00    +0.000 A 
ATOM      8  C   UNL     1      44.924   6.415  11.729  0.00  0.00    +0.000 A 
ATOM      9  C   UNL     1      45.093   5.651  10.580  0.00  0.00    +0.000 A 
BRANCH   4  14
ATOM     10  C   UNL     1      46.192   3.179   7.317  0.00  0.00    +0.000 A 
ATOM     11  C   UNL     1      46.201   1.825   7.625  0.00  0.00    +0.000 A 
ATOM     12  N   UNL     1      45.616   1.293   8.724  0.00  0.00    +0.000 NA
ATOM     13  C   UNL     1      45.008   2.158   9.569  0.00  0.00    +0.000 A 
ATOM     14  C   UNL     1      44.922   3.531   9.360  0.00  0.00    +0.000 A 
ATOM     15  C   UNL     1      45.525   4.026   8.192  0.00  0.00    +0.000 A 
BRANCH  10  17
ATOM     16  C   UNL     1      47.577   2.552   5.495  0.00  0.00    +0.000 C 
ATOM     17  O   UNL     1      46.857   3.570   6.188  0.00  0.00    +0.000 OA
ENDBRANCH  10  17
ENDBRANCH   4  14
ENDBRANCH   1   8
BRANCH   1  18
ATOM     18  N   UNL     1      47.199   6.775  12.511  0.00  0.00    +0.000 N 
ATOM     19  H   UNL     1      48.044   7.049  12.017  0.00  0.00    +0.000 HD
BRANCH  18  20
ATOM     20  C   UNL     1      47.393   5.878  13.555  0.00  0.00    +0.000 A 
ATOM     21  C   UNL     1      47.902   6.281  14.785  0.00  0.00    +0.000 A 
ATOM     22  C   UNL     1      48.011   5.375  15.833  0.00  0.00    +0.000 A 
ATOM     23  C   UNL     1      47.559   4.061  15.674  0.00  0.00    +0.000 A 
ATOM     24  C   UNL     1      47.035   3.642  14.450  0.00  0.00    +0.000 A 
ATOM     25  C   UNL     1      46.957   4.551  13.398  0.00  0.00    +0.000 A 
BRANCH  23  26
ATOM     26  C   UNL     1      47.674   3.141  16.837  0.00  0.00    +0.000 C 
ATOM     27  N   UNL     1      48.870   2.511  17.030  0.00  0.00    +0.000 N 
ATOM     28  O   UNL     1      46.729   2.901  17.542  0.00  0.00    +0.000 OA
ATOM     29  H   UNL     1      49.590   2.476  16.321  0.00  0.00    +0.000 HD
ATOM     30  H   UNL     1      48.874   1.801  17.748  0.00  0.00    +0.000 HD
ENDBRANCH  23  26
ENDBRANCH  18  20
ENDBRANCH   1  18
TORSDOF 6
ENDMDL
MODEL 4
REMARK VINA RESULT:    -7.194      3.487      7.511
REMARK INTER + INTRA:         -11.241
REMARK INTER:                 -10.018
REMARK INTRA:                  -1.223
REMARK UNBOUND:                -1.523
REMARK  Name = 
REMARK  7 active torsions:
REMARK  status: ('A' for Active; 'I' for Inactive)
REMARK    1  A    between atoms: C_1  and  O_2
REMARK    2  A    between atoms: O_2  and  C_3
REMARK    3  A    between atoms: C_7  and  C_8
REMARK    4  A    between atoms: C_12  and  C_13
REMARK    5  A    between atoms: C_13  and  N_14
REMARK    6  A    between atoms: N_14  and  C_15
REMARK    7  A    between atoms: C_18  and  C_19
REMARK                            x       y       z     vdW  Elec       q    Type
REMARK                         _______ _______ _______ _____ _____    ______ ____
ROOT
ATOM      1  C   UNL     1      49.034   7.643  12.742  0.00  0.00    +0.000 C 
ATOM      2  C   UNL     1      50.396   8.338  12.430  0.00  0.00    +0.000 C 
ATOM      3  C   UNL     1      49.855   7.465  11.430  0.00  0.00    +0.000 C 
ENDROOT
BRANCH   1   8
ATOM      4  C   UNL     1      45.671   6.605  11.305  0.00  0.00    +0.000 A 
ATOM      5  C   UNL     1      44.832   7.595  11.828  0.00  0.00    +0.000 A 
ATOM      6  C   UNL     1      45.362   8.684  12.520  0.00  0.00    +0.000 A 
ATOM      7  C   UNL     1      46.735   8.742  12.758  0.00  0.00    +0.000 A 
ATOM      8  C   UNL     1      47.601   7.753  12.259  0.00  0.00    +0.000 A 
ATOM      9  C   UNL     1      47.054   6.767  11.446  0.00  0.00    +0.000 A 
BRANCH   4  14
ATOM     10  C   UNL     1      45.172   3.696   8.963  0.00  0.00    +0.000 A 
ATOM     11  C   UNL     1      44.596   2.803   9.856  0.00  0.00    +0.000 A 
ATOM     12  N   UNL     1      44.306   3.100  11.145  0.00  0.00    +0.000 NA
ATOM     13  C   UNL     1      44.624   4.345  11.570  0.00  0.00    +0.000 A 
ATOM     14  C   UNL     1      45.189   5.329  10.764  0.00  0.00    +0.000 A 
ATOM     15  C   UNL     1      45.447   4.975   9.429  0.00  0.00    +0.000 A 
BRANCH  10  17
ATOM     16  C   UNL     1      46.682   3.639   7.133  0.00  0.00    +0.000 C 
ATOM     17  O   UNL     1      45.437   3.238   7.702  0.00  0.00    +0.000 OA
ENDBRANCH  10  17
ENDBRANCH   4  14
ENDBRANCH   1   8
BRANCH   1  18
ATOM     18  N   UNL     1      49.067   7.632  14.196  0.00  0.00    +0.000 N 
ATOM     19  H   UNL     1      49.407   8.472  14.656  0.00  0.00    +0.000 HD
BRANCH  18  20
ATOM     20  C   UNL     1      48.585   6.648  15.051  0.00  0.00    +0.000 A 
ATOM     21  C   UNL     1      47.768   5.617  14.600  0.00  0.00    +0.000 A 
ATOM     22  C   UNL     1      47.366   4.606  15.464  0.00  0.00    +0.000 A 
ATOM     23  C   UNL     1      47.827   4.589  16.785  0.00  0.00    +0.000 A 
ATOM     24  C   UNL     1      48.658   5.609  17.253  0.00  0.00    +0.000 A 
ATOM     25  C   UNL     1      49.030   6.632  16.385  0.00  0.00    +0.000 A 
BRANCH  23  26
ATOM     26  C   UNL     1      47.388   3.468  17.659  0.00  0.00    +0.000 C 
ATOM     27  N   UNL     1      48.200   3.122  18.700  0.00  0.00    +0.000 N 
ATOM     28  O   UNL     1      46.391   2.838  17.417  0.00  0.00    +0.000 OA
ATOM     29  H   UNL     1      49.157   3.440  18.776  0.00  0.00    +0.000 HD
ATOM     30  H   UNL     1      47.938   2.280  19.192  0.00  0.00    +0.000 HD
ENDBRANCH  23  26
ENDBRANCH  18  20
ENDBRANCH   1  18
TORSDOF 6
ENDMDL
MODEL 5
REMARK VINA RESULT:    -6.932      4.682      7.955
REMARK INTER + INTRA:         -10.887
REMARK INTER:                  -9.563
REMARK INTRA:                  -1.324
REMARK UNBOUND:                -1.523
REMARK  Name = 
REMARK  7 active torsions:
REMARK  status: ('A' for Active; 'I' for Inactive)
REMARK    1  A    between atoms: C_1  and  O_2
REMARK    2  A    between atoms: O_2  and  C_3
REMARK    3  A    between atoms: C_7  and  C_8
REMARK    4  A    between atoms: C_12  and  C_13
REMARK    5  A    between atoms: C_13  and  N_14
REMARK    6  A    between atoms: N_14  and  C_15
REMARK    7  A    between atoms: C_18  and  C_19
REMARK                            x       y       z     vdW  Elec       q    Type
REMARK                         _______ _______ _______ _____ _____    ______ ____
ROOT
ATOM      1  C   UNL     1      48.717   7.828  15.817  0.00  0.00    +0.000 C 
ATOM      2  C   UNL     1      48.300   9.039  16.710  0.00  0.00    +0.000 C 
ATOM      3  C   UNL     1      49.362   9.245  15.770  0.00  0.00    +0.000 C 
ENDROOT
BRANCH   1   8
ATOM      4  C   UNL     1      47.246   6.356  12.635  0.00  0.00    +0.000 A 
ATOM      5  C   UNL     1      47.911   7.102  11.655  0.00  0.00    +0.000 A 
ATOM      6  C   UNL     1      48.942   7.975  12.004  0.00  0.00    +0.000 A 
ATOM      7  C   UNL     1      49.257   8.162  13.349  0.00  0.00    +0.000 A 
ATOM      8  C   UNL     1      48.595   7.438  14.357  0.00  0.00    +0.000 A 
ATOM      9  C   UNL     1      47.682   6.468  13.961  0.00  0.00    +0.000 A 
BRANCH   4  14
ATOM     10  C   UNL     1      44.443   4.627  10.807  0.00  0.00    +0.000 A 
ATOM     11  C   UNL     1      43.933   3.881  11.861  0.00  0.00    +0.000 A 
ATOM     12  N   UNL     1      44.397   3.946  13.131  0.00  0.00    +0.000 NA
ATOM     13  C   UNL     1      45.435   4.784  13.358  0.00  0.00    +0.000 A 
ATOM     14  C   UNL     1      46.019   5.591  12.386  0.00  0.00    +0.000 A 
ATOM     15  C   UNL     1      45.483   5.502  11.091  0.00  0.00    +0.000 A 
BRANCH  10  17
ATOM     16  C   UNL     1      44.784   4.008   8.541  0.00  0.00    +0.000 C 
ATOM     17  O   UNL     1      43.891   4.426   9.572  0.00  0.00    +0.000 OA
ENDBRANCH  10  17
ENDBRANCH   4  14
ENDBRANCH   1   8
BRANCH   1  18
ATOM     18  N   UNL     1      48.303   6.719  16.663  0.00  0.00    +0.000 N 
ATOM     19  H   UNL     1      47.345   6.729  17.002  0.00  0.00    +0.000 HD
BRANCH  18  20
ATOM     20  C   UNL     1      49.026   5.576  16.981  0.00  0.00    +0.000 A 
ATOM     21  C   UNL     1      48.436   4.316  17.010  0.00  0.00    +0.000 A 
ATOM     22  C   UNL     1      49.204   3.184  17.255  0.00  0.00    +0.000 A 
ATOM     23  C   UNL     1      50.588   3.298  17.422  0.00  0.00    +0.000 A 
ATOM     24  C   UNL     1      51.200   4.553  17.384  0.00  0.00    +0.000 A 
ATOM     25  C   UNL     1      50.416   5.683  17.166  0.00  0.00    +0.000 A 
BRANCH  23  26
ATOM     26  C   UNL     1      51.365   2.051  17.654  0.00  0.00    +0.000 C 
ATOM     27  N   UNL     1      52.433   2.119  18.500  0.00  0.00    +0.000 N 
ATOM     28  O   UNL     1      51.108   1.034  17.063  0.00  0.00    +0.000 OA
ATOM     29  H   UNL     1      52.838   2.996  18.800  0.00  0.00    +0.000 HD
ATOM     30  H   UNL     1      53.011   1.291  18.535  0.00  0.00    +0.000 HD
ENDBRANCH  23  26
ENDBRANCH  18  20
ENDBRANCH   1  18
TORSDOF 6
ENDMDL
MODEL 6
REMARK VINA RESULT:    -6.863      2.253      7.088
REMARK INTER + INTRA:         -10.794
REMARK INTER:                  -9.880
REMARK INTRA:                  -0.913
REMARK UNBOUND:                -1.523
REMARK  Name = 
REMARK  7 active torsions:
REMARK  status: ('A' for Active; 'I' for Inactive)
REMARK    1  A    between atoms: C_1  and  O_2
REMARK    2  A    between atoms: O_2  and  C_3
REMARK    3  A    between atoms: C_7  and  C_8
REMARK    4  A    between atoms: C_12  and  C_13
REMARK    5  A    between atoms: C_13  and  N_14
REMARK    6  A    between atoms: N_14  and  C_15
REMARK    7  A    between atoms: C_18  and  C_19
REMARK                            x       y       z     vdW  Elec       q    Type
REMARK                         _______ _______ _______ _____ _____    ______ ____
ROOT
ATOM      1  C   UNL     1      45.399   7.490  12.359  0.00  0.00    +0.000 C 
ATOM      2  C   UNL     1      45.192   8.939  12.903  0.00  0.00    +0.000 C 
ATOM      3  C   UNL     1      44.764   8.668  11.563  0.00  0.00    +0.000 C 
ENDROOT
BRANCH   1   8
ATOM      4  C   UNL     1      44.231   4.307  10.642  0.00  0.00    +0.000 A 
ATOM      5  C   UNL     1      43.348   3.788  11.597  0.00  0.00    +0.000 A 
ATOM      6  C   UNL     1      43.009   4.530  12.728  0.00  0.00    +0.000 A 
ATOM      7  C   UNL     1      43.618   5.766  12.946  0.00  0.00    +0.000 A 
ATOM      8  C   UNL     1      44.521   6.304  12.012  0.00  0.00    +0.000 A 
ATOM      9  C   UNL     1      44.717   5.607  10.827  0.00  0.00    +0.000 A 
BRANCH   4  14
ATOM     10  C   UNL     1      46.065   3.429   7.470  0.00  0.00    +0.000 A 
ATOM     11  C   UNL     1      46.195   2.062   7.674  0.00  0.00    +0.000 A 
ATOM     12  N   UNL     1      45.678   1.400   8.737  0.00  0.00    +0.000 NA
ATOM     13  C   UNL     1      45.014   2.143   9.652  0.00  0.00    +0.000 A 
ATOM     14  C   UNL     1      44.807   3.516   9.549  0.00  0.00    +0.000 A 
ATOM     15  C   UNL     1      45.344   4.147   8.414  0.00  0.00    +0.000 A 
BRANCH  10  17
ATOM     16  C   UNL     1      46.983   3.045   5.316  0.00  0.00    +0.000 C 
ATOM     17  O   UNL     1      46.672   3.959   6.366  0.00  0.00    +0.000 OA
ENDBRANCH  10  17
ENDBRANCH   4  14
ENDBRANCH   1   8
BRANCH   1  18
ATOM     18  N   UNL     1      46.519   7.055  13.180  0.00  0.00    +0.000 N 
ATOM     19  H   UNL     1      46.314   6.402  13.931  0.00  0.00    +0.000 HD
BRANCH  18  20
ATOM     20  C   UNL     1      47.867   7.337  12.999  0.00  0.00    +0.000 A 
ATOM     21  C   UNL     1      48.426   7.470  11.732  0.00  0.00    +0.000 A 
ATOM     22  C   UNL     1      49.761   7.829  11.585  0.00  0.00    +0.000 A 
ATOM     23  C   UNL     1      50.540   8.111  12.713  0.00  0.00    +0.000 A 
ATOM     24  C   UNL     1      49.992   7.995  13.992  0.00  0.00    +0.000 A 
ATOM     25  C   UNL     1      48.661   7.607  14.127  0.00  0.00    +0.000 A 
BRANCH  23  26
ATOM     26  C   UNL     1      51.953   8.518  12.496  0.00  0.00    +0.000 C 
ATOM     27  N   UNL     1      52.726   7.721  11.703  0.00  0.00    +0.000 N 
ATOM     28  O   UNL     1      52.424   9.474  13.057  0.00  0.00    +0.000 OA
ATOM     29  H   UNL     1      52.454   6.784  11.437  0.00  0.00    +0.000 HD
ATOM     30  H   UNL     1      53.709   7.955  11.681  0.00  0.00    +0.000 HD
ENDBRANCH  23  26
ENDBRANCH  18  20
ENDBRANCH   1  18
TORSDOF 6
ENDMDL
MODEL 7
REMARK VINA RESULT:    -6.674      5.259      8.179
REMARK INTER + INTRA:         -10.538
REMARK INTER:                  -9.086
REMARK INTRA:                  -1.452
REMARK UNBOUND:                -1.523
REMARK  Name = 
REMARK  7 active torsions:
REMARK  status: ('A' for Active; 'I' for Inactive)
REMARK    1  A    between atoms: C_1  and  O_2
REMARK    2  A    between atoms: O_2  and  C_3
REMARK    3  A    between atoms: C_7  and  C_8
REMARK    4  A    between atoms: C_12  and  C_13
REMARK    5  A    between atoms: C_13  and  N_14
REMARK    6  A    between atoms: N_14  and  C_15
REMARK    7  A    between atoms: C_18  and  C_19
REMARK                            x       y       z     vdW  Elec       q    Type
REMARK                         _______ _______ _______ _____ _____    ______ ____
ROOT
ATOM      1  C   UNL     1      48.984   7.127  16.898  0.00  0.00    +0.000 C 
ATOM      2  C   UNL     1      48.218   8.044  17.903  0.00  0.00    +0.000 C 
ATOM      3  C   UNL     1      49.233   8.652  17.094  0.00  0.00    +0.000 C 
ENDROOT
BRANCH   1   8
ATOM      4  C   UNL     1      47.803   6.498  13.340  0.00  0.00    +0.000 A 
ATOM      5  C   UNL     1      48.826   7.103  12.601  0.00  0.00    +0.000 A 
ATOM      6  C   UNL     1      49.973   7.583  13.234  0.00  0.00    +0.000 A 
ATOM      7  C   UNL     1      50.062   7.529  14.624  0.00  0.00    +0.000 A 
ATOM      8  C   UNL     1      49.042   6.942  15.395  0.00  0.00    +0.000 A 
ATOM      9  C   UNL     1      47.988   6.339  14.719  0.00  0.00    +0.000 A 
BRANCH   4  14
ATOM     10  C   UNL     1      44.496   4.769  12.821  0.00  0.00    +0.000 A 
ATOM     11  C   UNL     1      43.877   5.732  12.035  0.00  0.00    +0.000 A 
ATOM     12  N   UNL     1      44.478   6.871  11.616  0.00  0.00    +0.000 NA
ATOM     13  C   UNL     1      45.755   7.068  12.016  0.00  0.00    +0.000 A 
ATOM     14  C   UNL     1      46.483   6.169  12.790  0.00  0.00    +0.000 A 
ATOM     15  C   UNL     1      45.819   4.994  13.177  0.00  0.00    +0.000 A 
BRANCH  10  17
ATOM     16  C   UNL     1      43.467   2.731  12.175  0.00  0.00    +0.000 C 
ATOM     17  O   UNL     1      43.747   3.688  13.194  0.00  0.00    +0.000 OA
ENDBRANCH  10  17
ENDBRANCH   4  14
ENDBRANCH   1   8
BRANCH   1  18
ATOM     18  N   UNL     1      48.838   5.836  17.552  0.00  0.00    +0.000 N 
ATOM     19  H   UNL     1      47.965   5.664  18.044  0.00  0.00    +0.000 HD
BRANCH  18  20
ATOM     20  C   UNL     1      49.704   4.751  17.496  0.00  0.00    +0.000 A 
ATOM     21  C   UNL     1      51.060   4.877  17.782  0.00  0.00    +0.000 A 
ATOM     22  C   UNL     1      51.885   3.759  17.793  0.00  0.00    +0.000 A 
ATOM     23  C   UNL     1      51.345   2.487  17.568  0.00  0.00    +0.000 A 
ATOM     24  C   UNL     1      49.985   2.340  17.292  0.00  0.00    +0.000 A 
ATOM     25  C   UNL     1      49.174   3.472  17.256  0.00  0.00    +0.000 A 
BRANCH  23  26
ATOM     26  C   UNL     1      52.269   1.323  17.620  0.00  0.00    +0.000 C 
ATOM     27  N   UNL     1      51.790   0.158  18.146  0.00  0.00    +0.000 N 
ATOM     28  O   UNL     1      53.420   1.420  17.279  0.00  0.00    +0.000 OA
ATOM     29  H   UNL     1      50.933   0.111  18.680  0.00  0.00    +0.000 HD
ATOM     30  H   UNL     1      52.476  -0.570  18.282  0.00  0.00    +0.000 HD
ENDBRANCH  23  26
ENDBRANCH  18  20
ENDBRANCH   1  18
TORSDOF 6
ENDMDL
