MODEL 1
REMARK VINA RESULT:    -7.785      0.000      0.000
REMARK INTER + INTRA:         -12.131
REMARK INTER:                 -10.970
REMARK INTRA:                  -1.161
REMARK UNBOUND:                -1.161
REMARK  Name = 
REMARK  8 active torsions:
REMARK  status: ('A' for Active; 'I' for Inactive)
REMARK    1  A    between atoms: C_1  and  C_2
REMARK    2  A    between atoms: C_2  and  C_3
REMARK    3  A    between atoms: C_3  and  N_4
REMARK    4  A    between atoms: C_3  and  C_17
REMARK    5  A    between atoms: C_5  and  C_7
REMARK    6  A    between atoms: C_20  and  C_21
REMARK    7  A    between atoms: C_21  and  N_22
REMARK    8  A    between atoms: C_23  and  C_25
REMARK                            x       y       z     vdW  Elec       q    Type
REMARK                         _______ _______ _______ _____ _____    ______ ____
ROOT
ATOM      1  C   UNL     1      47.872   7.388  13.848  0.00  0.00    +0.000 C 
ENDROOT
BRANCH   1   2
ATOM      2  C   UNL     1      46.860   6.638  12.976  0.00  0.00    +0.000 A 
ATOM      3  C   UNL     1      46.600   5.275  13.182  0.00  0.00    +0.000 A 
ATOM      4  C   UNL     1      45.686   4.587  12.368  0.00  0.00    +0.000 A 
ATOM      5  C   UNL     1      45.011   5.243  11.329  0.00  0.00    +0.000 A 
ATOM      6  C   UNL     1      45.242   6.612  11.144  0.00  0.00    +0.000 A 
ATOM      7  C   UNL     1      46.158   7.297  11.952  0.00  0.00    +0.000 A 
BRANCH   5   8
ATOM      8  C   UNL     1      44.054   4.500  10.429  0.00  0.00    +0.000 C 
BRANCH   8   9
ATOM      9  N   UNL     1      44.726   3.507   9.627  0.00  0.00    +0.000 N 
ATOM     10  C   UNL     1      45.533   3.863   8.571  0.00  0.00    +0.000 C 
ATOM     11  O   UNL     1      45.710   5.033   8.242  0.00  0.00    +0.000 OA
ATOM     12  H   UNL     1      44.682   2.546   9.921  0.00  0.00    +0.000 HD
BRANCH  10  13
ATOM     13  C   UNL     1      46.168   2.759   7.881  0.00  0.00    +0.000 A 
ATOM     14  C   UNL     1      46.883   2.696   6.695  0.00  0.00    +0.000 A 
ATOM     15  C   UNL     1      47.292   1.355   6.490  0.00  0.00    +0.000 A 
ATOM     16  C   UNL     1      46.821   0.621   7.553  0.00  0.00    +0.000 A 
ATOM     17  N   UNL     1      46.150   1.474   8.388  0.00  0.00    +0.000 N 
ATOM     18  H   UNL     1      45.699   1.219   9.260  0.00  0.00    +0.000 HD
ENDBRANCH  10  13
ENDBRANCH   8   9
ENDBRANCH   5   8
ENDBRANCH   1   2
BRANCH   1  19
ATOM     19  N   UNL     1      47.884   6.765  15.164  0.00  0.00    +0.000 N 
ATOM     20  C   UNL     1      49.013   6.376  15.838  0.00  0.00    +0.000 C 
ATOM     21  O   UNL     1      50.151   6.588  15.433  0.00  0.00    +0.000 OA
ATOM     22  H   UNL     1      47.012   6.317  15.425  0.00  0.00    +0.000 HD
BRANCH  20  23
ATOM     23  C   UNL     1      48.774   5.740  17.139  0.00  0.00    +0.000 A 
ATOM     24  C   UNL     1      48.961   4.377  17.307  0.00  0.00    +0.000 A 
ATOM     25  S   UNL     1      48.659   3.844  18.902  0.00  0.00    +0.000 S 
ATOM     26  C   UNL     1      48.218   5.410  19.403  0.00  0.00    +0.000 A 
ATOM     27  N   UNL     1      47.805   5.655  20.676  0.00  0.00    +0.000 NA
ATOM     28  C   UNL     1      47.474   6.885  20.900  0.00  0.00    +0.000 A 
ATOM     29  N   UNL     1      47.528   7.892  19.975  0.00  0.00    +0.000 N 
ATOM     30  C   UNL     1      47.977   7.698  18.694  0.00  0.00    +0.000 A 
ATOM     31  O   UNL     1      48.085   8.636  17.916  0.00  0.00    +0.000 OA
ATOM     32  C   UNL     1      48.332   6.330  18.379  0.00  0.00    +0.000 A 
ATOM     33  H   UNL     1      47.279   8.839  20.217  0.00  0.00    +0.000 HD
ENDBRANCH  20  23
ENDBRANCH   1  19
BRANCH   1  35
ATOM     34  C   UNL     1      48.603   9.796  13.343  0.00  0.00    +0.000 C 
ATOM     35  C   UNL     1      47.540   8.890  13.948  0.00  0.00    +0.000 C 
ENDBRANCH   1  35
TORSDOF 7
ENDMDL
MODEL 2
REMARK VINA RESULT:    -7.611      2.670      4.546
REMARK INTER + INTRA:         -11.886
REMARK INTER:                 -10.527
REMARK INTRA:                  -1.360
REMARK UNBOUND:                -1.161
REMARK  Name = 
REMARK  8 active torsions:
REMARK  status: ('A' for Active; 'I' for Inactive)
REMARK    1  A    between atoms: C_1  and  C_2
REMARK    2  A    between atoms: C_2  and  C_3
REMARK    3  A    between atoms: C_3  and  N_4
REMARK    4  A    between atoms: C_3  and  C_17
REMARK    5  A    between atoms: C_5  and  C_7
REMARK    6  A    between atoms: C_20  and  C_21
REMARK    7  A    between atoms: C_21  and  N_22
REMARK    8  A    between atoms: C_23  and  C_25
REMARK                            x       y       z     vdW  Elec       q    Type
REMARK                         _______ _______ _______ _____ _____    ______ ____
ROOT
ATOM      1  C   UNL     1      47.071   5.007  15.065  0.00  0.00    +0.000 C 
ENDROOT
BRANCH   1   2
ATOM      2  C   UNL     1      46.209   4.766  13.822  0.00  0.00    +0.000 A 
ATOM      3  C   UNL     1      46.131   3.496  13.233  0.00  0.00    +0.000 A 
ATOM      4  C   UNL     1      45.354   3.284  12.083  0.00  0.00    +0.000 A 
ATOM      5  C   UNL     1      44.637   4.335  11.494  0.00  0.00    +0.000 A 
ATOM      6  C   UNL     1      44.686   5.597  12.101  0.00  0.00    +0.000 A 
ATOM      7  C   UNL     1      45.465   5.810  13.245  0.00  0.00    +0.000 A 
BRANCH   5   8
ATOM      8  C   UNL     1      43.830   4.121  10.237  0.00  0.00    +0.000 C 
BRANCH   8   9
ATOM      9  N   UNL     1      44.562   3.376   9.243  0.00  0.00    +0.000 N 
ATOM     10  C   UNL     1      45.553   3.965   8.490  0.00  0.00    +0.000 C 
ATOM     11  O   UNL     1      45.852   5.150   8.607  0.00  0.00    +0.000 OA
ATOM     12  H   UNL     1      44.413   2.383   9.183  0.00  0.00    +0.000 HD
BRANCH  10  13
ATOM     13  C   UNL     1      46.225   3.084   7.557  0.00  0.00    +0.000 A 
ATOM     14  C   UNL     1      46.683   3.279   6.263  0.00  0.00    +0.000 A 
ATOM     15  C   UNL     1      47.278   2.075   5.813  0.00  0.00    +0.000 A 
ATOM     16  C   UNL     1      47.175   1.164   6.837  0.00  0.00    +0.000 A 
ATOM     17  N   UNL     1      46.544   1.780   7.886  0.00  0.00    +0.000 N 
ATOM     18  H   UNL     1      46.334   1.359   8.783  0.00  0.00    +0.000 HD
ENDBRANCH  10  13
ENDBRANCH   8   9
ENDBRANCH   5   8
ENDBRANCH   1   2
BRANCH   1  19
ATOM     19  N   UNL     1      48.236   5.784  14.663  0.00  0.00    +0.000 N 
ATOM     20  C   UNL     1      48.851   6.734  15.437  0.00  0.00    +0.000 C 
ATOM     21  O   UNL     1      48.528   6.978  16.595  0.00  0.00    +0.000 OA
ATOM     22  H   UNL     1      48.376   5.841  13.661  0.00  0.00    +0.000 HD
BRANCH  20  23
ATOM     23  C   UNL     1      49.990   7.410  14.805  0.00  0.00    +0.000 A 
ATOM     24  C   UNL     1      51.231   7.434  15.422  0.00  0.00    +0.000 A 
ATOM     25  S   UNL     1      52.427   8.242  14.507  0.00  0.00    +0.000 S 
ATOM     26  C   UNL     1      51.308   8.630  13.283  0.00  0.00    +0.000 A 
ATOM     27  N   UNL     1      51.675   9.363  12.197  0.00  0.00    +0.000 NA
ATOM     28  C   UNL     1      50.711   9.604  11.369  0.00  0.00    +0.000 A 
ATOM     29  N   UNL     1      49.421   9.172  11.520  0.00  0.00    +0.000 N 
ATOM     30  C   UNL     1      49.019   8.396  12.577  0.00  0.00    +0.000 A 
ATOM     31  O   UNL     1      47.876   7.963  12.640  0.00  0.00    +0.000 OA
ATOM     32  C   UNL     1      50.052   8.122  13.552  0.00  0.00    +0.000 A 
ATOM     33  H   UNL     1      48.718   9.373  10.825  0.00  0.00    +0.000 HD
ENDBRANCH  20  23
ENDBRANCH   1  19
BRANCH   1  35
ATOM     34  C   UNL     1      47.239   3.651  17.237  0.00  0.00    +0.000 C 
ATOM     35  C   UNL     1      47.491   3.685  15.737  0.00  0.00    +0.000 C 
ENDBRANCH   1  35
TORSDOF 7
ENDMDL
MODEL 3
REMARK VINA RESULT:    -7.467      1.257      1.862
REMARK INTER + INTRA:         -11.683
REMARK INTER:                 -10.533
REMARK INTRA:                  -1.150
REMARK UNBOUND:                -1.161
REMARK  Name = 
REMARK  8 active torsions:
REMARK  status: ('A' for Active; 'I' for Inactive)
REMARK    1  A    between atoms: C_1  and  C_2
REMARK    2  A    between atoms: C_2  and  C_3
REMARK    3  A    between atoms: C_3  and  N_4
REMARK    4  A    between atoms: C_3  and  C_17
REMARK    5  A    between atoms: C_5  and  C_7
REMARK    6  A    between atoms: C_20  and  C_21
REMARK    7  A    between atoms: C_21  and  N_22
REMARK    8  A    between atoms: C_23  and  C_25
REMARK                            x       y       z     vdW  Elec       q    Type
REMARK                         _______ _______ _______ _____ _____    ______ ____
ROOT
ATOM      1  C   UNL     1      48.200   7.621  13.653  0.00  0.00    +0.000 C 
ENDROOT
BRANCH   1   2
ATOM      2  C   UNL     1      47.175   6.715  12.963  0.00  0.00    +0.000 A 
ATOM      3  C   UNL     1      47.008   5.381  13.361  0.00  0.00    +0.000 A 
ATOM      4  C   UNL     1      46.081   4.549  12.714  0.00  0.00    +0.000 A 
ATOM      5  C   UNL     1      45.300   5.029  11.653  0.00  0.00    +0.000 A 
ATOM      6  C   UNL     1      45.440   6.371  11.277  0.00  0.00    +0.000 A 
ATOM      7  C   UNL     1      46.369   7.200  11.919  0.00  0.00    +0.000 A 
BRANCH   5   8
ATOM      8  C   UNL     1      44.329   4.129  10.930  0.00  0.00    +0.000 C 
BRANCH   8   9
ATOM      9  N   UNL     1      44.996   3.230  10.020  0.00  0.00    +0.000 N 
ATOM     10  C   UNL     1      45.383   3.637   8.764  0.00  0.00    +0.000 C 
ATOM     11  O   UNL     1      45.166   4.770   8.343  0.00  0.00    +0.000 OA
ATOM     12  H   UNL     1      45.275   2.326  10.361  0.00  0.00    +0.000 HD
BRANCH  10  13
ATOM     13  C   UNL     1      46.074   2.637   7.977  0.00  0.00    +0.000 A 
ATOM     14  C   UNL     1      46.792   2.721   6.794  0.00  0.00    +0.000 A 
ATOM     15  C   UNL     1      47.268   1.427   6.467  0.00  0.00    +0.000 A 
ATOM     16  C   UNL     1      46.834   0.573   7.454  0.00  0.00    +0.000 A 
ATOM     17  N   UNL     1      46.120   1.310   8.362  0.00  0.00    +0.000 N 
ATOM     18  H   UNL     1      45.682   0.952   9.203  0.00  0.00    +0.000 HD
ENDBRANCH  10  13
ENDBRANCH   8   9
ENDBRANCH   5   8
ENDBRANCH   1   2
BRANCH   1  19
ATOM     19  N   UNL     1      48.050   7.459  15.093  0.00  0.00    +0.000 N 
ATOM     20  C   UNL     1      49.088   7.371  15.985  0.00  0.00    +0.000 C 
ATOM     21  O   UNL     1      50.266   7.500  15.670  0.00  0.00    +0.000 OA
ATOM     22  H   UNL     1      47.157   7.074  15.381  0.00  0.00    +0.000 HD
BRANCH  20  23
ATOM     23  C   UNL     1      48.690   7.178  17.384  0.00  0.00    +0.000 A 
ATOM     24  C   UNL     1      48.168   8.227  18.125  0.00  0.00    +0.000 A 
ATOM     25  S   UNL     1      47.741   7.785  19.719  0.00  0.00    +0.000 S 
ATOM     26  C   UNL     1      48.290   6.190  19.484  0.00  0.00    +0.000 A 
ATOM     27  N   UNL     1      48.248   5.273  20.488  0.00  0.00    +0.000 NA
ATOM     28  C   UNL     1      48.727   4.114  20.170  0.00  0.00    +0.000 A 
ATOM     29  N   UNL     1      49.234   3.786  18.942  0.00  0.00    +0.000 N 
ATOM     30  C   UNL     1      49.257   4.666  17.891  0.00  0.00    +0.000 A 
ATOM     31  O   UNL     1      49.646   4.316  16.785  0.00  0.00    +0.000 OA
ATOM     32  C   UNL     1      48.760   5.990  18.200  0.00  0.00    +0.000 A 
ATOM     33  H   UNL     1      49.573   2.856  18.748  0.00  0.00    +0.000 HD
ENDBRANCH  20  23
ENDBRANCH   1  19
BRANCH   1  35
ATOM     34  C   UNL     1      49.347   9.839  13.058  0.00  0.00    +0.000 C 
ATOM     35  C   UNL     1      48.031   9.097  13.240  0.00  0.00    +0.000 C 
ENDBRANCH   1  35
TORSDOF 7
ENDMDL
MODEL 4
REMARK VINA RESULT:    -7.273      2.681      4.081
REMARK INTER + INTRA:         -11.411
REMARK INTER:                 -10.271
REMARK INTRA:                  -1.140
REMARK UNBOUND:                -1.161
REMARK  Name = 
REMARK  8 active torsions:
REMARK  status: ('A' for Active; 'I' for Inactive)
REMARK    1  A    between atoms: C_1  and  C_2
REMARK    2  A    between atoms: C_2  and  C_3
REMARK    3  A    between atoms: C_3  and  N_4
REMARK    4  A    between atoms: C_3  and  C_17
REMARK    5  A    between atoms: C_5  and  C_7
REMARK    6  A    between atoms: C_20  and  C_21
REMARK    7  A    between atoms: C_21  and  N_22
REMARK    8  A    between atoms: C_23  and  C_25
REMARK                            x       y       z     vdW  Elec       q    Type
REMARK                         _______ _______ _______ _____ _____    ______ ____
ROOT
ATOM      1  C   UNL     1      47.050   4.821  15.154  0.00  0.00    +0.000 C 
ENDROOT
BRANCH   1   2
ATOM      2  C   UNL     1      46.223   4.706  13.869  0.00  0.00    +0.000 A 
ATOM      3  C   UNL     1      46.001   3.461  13.263  0.00  0.00    +0.000 A 
ATOM      4  C   UNL     1      45.259   3.363  12.075  0.00  0.00    +0.000 A 
ATOM      5  C   UNL     1      44.721   4.505  11.465  0.00  0.00    +0.000 A 
ATOM      6  C   UNL     1      44.912   5.745  12.088  0.00  0.00    +0.000 A 
ATOM      7  C   UNL     1      45.657   5.844  13.269  0.00  0.00    +0.000 A 
BRANCH   5   8
ATOM      8  C   UNL     1      43.954   4.409  10.170  0.00  0.00    +0.000 C 
BRANCH   8   9
ATOM      9  N   UNL     1      44.643   3.607   9.189  0.00  0.00    +0.000 N 
ATOM     10  C   UNL     1      45.661   4.128   8.423  0.00  0.00    +0.000 C 
ATOM     11  O   UNL     1      46.022   5.298   8.515  0.00  0.00    +0.000 OA
ATOM     12  H   UNL     1      44.441   2.622   9.149  0.00  0.00    +0.000 HD
BRANCH  10  13
ATOM     13  C   UNL     1      46.283   3.195   7.507  0.00  0.00    +0.000 A 
ATOM     14  C   UNL     1      46.722   3.332   6.199  0.00  0.00    +0.000 A 
ATOM     15  C   UNL     1      47.266   2.094   5.776  0.00  0.00    +0.000 A 
ATOM     16  C   UNL     1      47.151   1.220   6.832  0.00  0.00    +0.000 A 
ATOM     17  N   UNL     1      46.563   1.891   7.871  0.00  0.00    +0.000 N 
ATOM     18  H   UNL     1      46.356   1.506   8.786  0.00  0.00    +0.000 HD
ENDBRANCH  10  13
ENDBRANCH   8   9
ENDBRANCH   5   8
ENDBRANCH   1   2
BRANCH   1  19
ATOM     19  N   UNL     1      48.151   5.740  14.902  0.00  0.00    +0.000 N 
ATOM     20  C   UNL     1      48.701   6.582  15.834  0.00  0.00    +0.000 C 
ATOM     21  O   UNL     1      48.370   6.594  17.015  0.00  0.00    +0.000 OA
ATOM     22  H   UNL     1      48.280   5.983  13.925  0.00  0.00    +0.000 HD
BRANCH  20  23
ATOM     23  C   UNL     1      49.783   7.439  15.337  0.00  0.00    +0.000 A 
ATOM     24  C   UNL     1      49.509   8.528  14.524  0.00  0.00    +0.000 A 
ATOM     25  S   UNL     1      50.903   9.412  14.083  0.00  0.00    +0.000 S 
ATOM     26  C   UNL     1      51.920   8.335  14.923  0.00  0.00    +0.000 A 
ATOM     27  N   UNL     1      53.272   8.494  14.923  0.00  0.00    +0.000 NA
ATOM     28  C   UNL     1      53.914   7.583  15.578  0.00  0.00    +0.000 A 
ATOM     29  N   UNL     1      53.331   6.536  16.240  0.00  0.00    +0.000 N 
ATOM     30  C   UNL     1      51.972   6.362  16.301  0.00  0.00    +0.000 A 
ATOM     31  O   UNL     1      51.483   5.460  16.966  0.00  0.00    +0.000 OA
ATOM     32  C   UNL     1      51.205   7.338  15.557  0.00  0.00    +0.000 A 
ATOM     33  H   UNL     1      53.886   5.869  16.755  0.00  0.00    +0.000 HD
ENDBRANCH  20  23
ENDBRANCH   1  19
BRANCH   1  35
ATOM     34  C   UNL     1      47.459   3.235  17.129  0.00  0.00    +0.000 C 
ATOM     35  C   UNL     1      47.568   3.449  15.627  0.00  0.00    +0.000 C 
ENDBRANCH   1  35
TORSDOF 7
ENDMDL
MODEL 5
REMARK VINA RESULT:    -7.169      1.989      2.742
REMARK INTER + INTRA:         -11.263
REMARK INTER:                 -10.412
REMARK INTRA:                  -0.852
REMARK UNBOUND:                -1.161
REMARK  Name = 
REMARK  8 active torsions:
REMARK  status: ('A' for Active; 'I' for Inactive)
REMARK    1  A    between atoms: C_1  and  C_2
REMARK    2  A    between atoms: C_2  and  C_3
REMARK    3  A    between atoms: C_3  and  N_4
REMARK    4  A    between atoms: C_3  and  C_17
REMARK    5  A    between atoms: C_5  and  C_7
REMARK    6  A    between atoms: C_20  and  C_21
REMARK    7  A    between atoms: C_21  and  N_22
REMARK    8  A    between atoms: C_23  and  C_25
REMARK                            x       y       z     vdW  Elec       q    Type
REMARK                         _______ _______ _______ _____ _____    ______ ____
ROOT
ATOM      1  C   UNL     1      46.189   8.805  12.633  0.00  0.00    +0.000 C 
ENDROOT
BRANCH   1   2
ATOM      2  C   UNL     1      45.716   7.389  12.289  0.00  0.00    +0.000 A 
ATOM      3  C   UNL     1      46.408   6.603  11.356  0.00  0.00    +0.000 A 
ATOM      4  C   UNL     1      45.959   5.313  11.030  0.00  0.00    +0.000 A 
ATOM      5  C   UNL     1      44.810   4.777  11.628  0.00  0.00    +0.000 A 
ATOM      6  C   UNL     1      44.137   5.546  12.586  0.00  0.00    +0.000 A 
ATOM      7  C   UNL     1      44.581   6.835  12.907  0.00  0.00    +0.000 A 
BRANCH   5   8
ATOM      8  C   UNL     1      44.304   3.406  11.255  0.00  0.00    +0.000 C 
BRANCH   8   9
ATOM      9  N   UNL     1      45.102   2.796  10.219  0.00  0.00    +0.000 N 
ATOM     10  C   UNL     1      44.987   3.184   8.904  0.00  0.00    +0.000 C 
ATOM     11  O   UNL     1      44.194   4.046   8.537  0.00  0.00    +0.000 OA
ATOM     12  H   UNL     1      45.828   2.155  10.490  0.00  0.00    +0.000 HD
BRANCH  10  13
ATOM     13  C   UNL     1      45.878   2.509   7.983  0.00  0.00    +0.000 A 
ATOM     14  C   UNL     1      46.489   2.926   6.809  0.00  0.00    +0.000 A 
ATOM     15  C   UNL     1      47.273   1.857   6.309  0.00  0.00    +0.000 A 
ATOM     16  C   UNL     1      47.130   0.805   7.183  0.00  0.00    +0.000 A 
ATOM     17  N   UNL     1      46.292   1.207   8.190  0.00  0.00    +0.000 N 
ATOM     18  H   UNL     1      46.007   0.645   8.985  0.00  0.00    +0.000 HD
ENDBRANCH  10  13
ENDBRANCH   8   9
ENDBRANCH   5   8
ENDBRANCH   1   2
BRANCH   1  19
ATOM     19  N   UNL     1      46.764   8.777  13.971  0.00  0.00    +0.000 N 
ATOM     20  C   UNL     1      48.090   8.575  14.251  0.00  0.00    +0.000 C 
ATOM     21  O   UNL     1      48.957   8.473  13.389  0.00  0.00    +0.000 OA
ATOM     22  H   UNL     1      46.098   8.577  14.709  0.00  0.00    +0.000 HD
BRANCH  20  23
ATOM     23  C   UNL     1      48.429   8.558  15.678  0.00  0.00    +0.000 A 
ATOM     24  C   UNL     1      48.564   9.740  16.390  0.00  0.00    +0.000 A 
ATOM     25  S   UNL     1      48.929   9.499  18.041  0.00  0.00    +0.000 S 
ATOM     26  C   UNL     1      48.970   7.808  17.844  0.00  0.00    +0.000 A 
ATOM     27  N   UNL     1      49.270   6.983  18.883  0.00  0.00    +0.000 NA
ATOM     28  C   UNL     1      49.293   5.727  18.574  0.00  0.00    +0.000 A 
ATOM     29  N   UNL     1      49.034   5.221  17.329  0.00  0.00    +0.000 N 
ATOM     30  C   UNL     1      48.687   6.014  16.265  0.00  0.00    +0.000 A 
ATOM     31  O   UNL     1      48.387   5.522  15.185  0.00  0.00    +0.000 OA
ATOM     32  C   UNL     1      48.677   7.433  16.547  0.00  0.00    +0.000 A 
ATOM     33  H   UNL     1      49.044   4.228  17.156  0.00  0.00    +0.000 HD
ENDBRANCH  20  23
ENDBRANCH   1  19
BRANCH   1  35
ATOM     34  C   UNL     1      44.632  10.169  11.117  0.00  0.00    +0.000 C 
ATOM     35  C   UNL     1      45.041   9.830  12.542  0.00  0.00    +0.000 C 
ENDBRANCH   1  35
TORSDOF 7
ENDMDL
MODEL 6
REMARK VINA RESULT:    -6.924      1.870      2.357
REMARK INTER + INTRA:         -10.919
REMARK INTER:                  -9.758
REMARK INTRA:                  -1.161
REMARK UNBOUND:                -1.161
REMARK  Name = 
REMARK  8 active torsions:
REMARK  status: ('A' for Active; 'I' for Inactive)
REMARK    1  A    between atoms: C_1  and  C_2
REMARK    2  A    between atoms: C_2  and  C_3
REMARK    3  A    between atoms: C_3  and  N_4
REMARK    4  A    between atoms: C_3  and  C_17
REMARK    5  A    between atoms: C_5  and  C_7
REMARK    6  A    between atoms: C_20  and  C_21
REMARK    7  A    between atoms: C_21  and  N_22
REMARK    8  A    between atoms: C_23  and  C_25
REMARK                            x       y       z     vdW  Elec       q    Type
REMARK                         _______ _______ _______ _____ _____    ______ ____
ROOT
ATOM      1  C   UNL     1      48.018   8.362  13.633  0.00  0.00    +0.000 C 
ENDROOT
BRANCH   1   2
ATOM      2  C   UNL     1      47.034   7.568  12.768  0.00  0.00    +0.000 A 
ATOM      3  C   UNL     1      47.261   6.216  12.472  0.00  0.00    +0.000 A 
ATOM      4  C   UNL     1      46.366   5.498  11.663  0.00  0.00    +0.000 A 
ATOM      5  C   UNL     1      45.223   6.112  11.132  0.00  0.00    +0.000 A 
ATOM      6  C   UNL     1      44.976   7.452  11.455  0.00  0.00    +0.000 A 
ATOM      7  C   UNL     1      45.871   8.171  12.257  0.00  0.00    +0.000 A 
BRANCH   5   8
ATOM      8  C   UNL     1      44.277   5.354  10.233  0.00  0.00    +0.000 C 
BRANCH   8   9
ATOM      9  N   UNL     1      44.971   4.663   9.175  0.00  0.00    +0.000 N 
ATOM     10  C   UNL     1      45.195   3.306   9.229  0.00  0.00    +0.000 C 
ATOM     11  O   UNL     1      44.838   2.618  10.181  0.00  0.00    +0.000 OA
ATOM     12  H   UNL     1      45.195   5.174   8.337  0.00  0.00    +0.000 HD
BRANCH  10  13
ATOM     13  C   UNL     1      45.871   2.746   8.077  0.00  0.00    +0.000 A 
ATOM     14  C   UNL     1      46.482   1.519   7.867  0.00  0.00    +0.000 A 
ATOM     15  C   UNL     1      46.983   1.490   6.542  0.00  0.00    +0.000 A 
ATOM     16  C   UNL     1      46.670   2.698   5.964  0.00  0.00    +0.000 A 
ATOM     17  N   UNL     1      45.997   3.447   6.893  0.00  0.00    +0.000 N 
ATOM     18  H   UNL     1      45.632   4.382   6.751  0.00  0.00    +0.000 HD
ENDBRANCH  10  13
ENDBRANCH   8   9
ENDBRANCH   5   8
ENDBRANCH   1   2
BRANCH   1  19
ATOM     19  N   UNL     1      48.197   7.646  14.888  0.00  0.00    +0.000 N 
ATOM     20  C   UNL     1      49.361   7.043  15.290  0.00  0.00    +0.000 C 
ATOM     21  O   UNL     1      50.412   7.112  14.661  0.00  0.00    +0.000 OA
ATOM     22  H   UNL     1      47.335   7.317  15.309  0.00  0.00    +0.000 HD
BRANCH  20  23
ATOM     23  C   UNL     1      49.291   6.354  16.583  0.00  0.00    +0.000 A 
ATOM     24  C   UNL     1      49.943   6.864  17.695  0.00  0.00    +0.000 A 
ATOM     25  S   UNL     1      49.709   5.929  19.106  0.00  0.00    +0.000 S 
ATOM     26  C   UNL     1      48.771   4.786  18.261  0.00  0.00    +0.000 A 
ATOM     27  N   UNL     1      48.274   3.682  18.882  0.00  0.00    +0.000 NA
ATOM     28  C   UNL     1      47.607   2.890  18.105  0.00  0.00    +0.000 A 
ATOM     29  N   UNL     1      47.384   3.106  16.772  0.00  0.00    +0.000 N 
ATOM     30  C   UNL     1      47.832   4.224  16.117  0.00  0.00    +0.000 A 
ATOM     31  O   UNL     1      47.548   4.421  14.943  0.00  0.00    +0.000 OA
ATOM     32  C   UNL     1      48.611   5.130  16.933  0.00  0.00    +0.000 A 
ATOM     33  H   UNL     1      46.836   2.461  16.224  0.00  0.00    +0.000 HD
ENDBRANCH  20  23
ENDBRANCH   1  19
BRANCH   1  35
ATOM     34  C   UNL     1      48.621  10.855  13.726  0.00  0.00    +0.000 C 
ATOM     35  C   UNL     1      47.531   9.804  13.880  0.00  0.00    +0.000 C 
ENDBRANCH   1  35
TORSDOF 7
ENDMDL
MODEL 7
REMARK VINA RESULT:    -6.768      5.004      9.434
REMARK INTER + INTRA:         -10.698
REMARK INTER:                  -9.787
REMARK INTRA:                  -0.911
REMARK UNBOUND:                -1.161
REMARK  Name = 
REMARK  8 active torsions:
REMARK  status: ('A' for Active; 'I' for Inactive)
REMARK    1  A    between atoms: C_1  and  C_2
REMARK    2  A    between atoms: C_2  and  C_3
REMARK    3  A    between atoms: C_3  and  N_4
REMARK    4  A    between atoms: C_3  and  C_17
REMARK    5  A    between atoms: C_5  and  C_7
REMARK    6  A    between atoms: C_20  and  C_21
REMARK    7  A    between atoms: C_21  and  N_22
REMARK    8  A    between atoms: C_23  and  C_25
REMARK                            x       y       z     vdW  Elec       q    Type
REMARK                         _______ _______ _______ _____ _____    ______ ____
ROOT
ATOM      1  C   UNL     1      47.747   4.204  17.588  0.00  0.00    +0.000 C 
ENDROOT
BRANCH   1   2
ATOM      2  C   UNL     1      49.194   3.702  17.598  0.00  0.00    +0.000 A 
ATOM      3  C   UNL     1      49.497   2.368  17.287  0.00  0.00    +0.000 A 
ATOM      4  C   UNL     1      50.823   1.908  17.316  0.00  0.00    +0.000 A 
ATOM      5  C   UNL     1      51.877   2.767  17.657  0.00  0.00    +0.000 A 
ATOM      6  C   UNL     1      51.580   4.108  17.933  0.00  0.00    +0.000 A 
ATOM      7  C   UNL     1      50.258   4.566  17.909  0.00  0.00    +0.000 A 
BRANCH   5   8
ATOM      8  C   UNL     1      53.299   2.268  17.725  0.00  0.00    +0.000 C 
BRANCH   8   9
ATOM      9  N   UNL     1      53.396   0.994  18.394  0.00  0.00    +0.000 N 
ATOM     10  C   UNL     1      53.939  -0.105  17.771  0.00  0.00    +0.000 C 
ATOM     11  O   UNL     1      54.349  -0.071  16.614  0.00  0.00    +0.000 OA
ATOM     12  H   UNL     1      53.158   0.949  19.371  0.00  0.00    +0.000 HD
BRANCH  10  13
ATOM     13  C   UNL     1      54.003  -1.305  18.580  0.00  0.00    +0.000 A 
ATOM     14  C   UNL     1      55.060  -2.130  18.933  0.00  0.00    +0.000 A 
ATOM     15  C   UNL     1      54.560  -3.169  19.757  0.00  0.00    +0.000 A 
ATOM     16  C   UNL     1      53.208  -2.962  19.896  0.00  0.00    +0.000 A 
ATOM     17  N   UNL     1      52.881  -1.835  19.188  0.00  0.00    +0.000 N 
ATOM     18  H   UNL     1      51.955  -1.430  19.111  0.00  0.00    +0.000 HD
ENDBRANCH  10  13
ENDBRANCH   8   9
ENDBRANCH   5   8
ENDBRANCH   1   2
BRANCH   1  19
ATOM     19  N   UNL     1      47.555   5.006  16.387  0.00  0.00    +0.000 N 
ATOM     20  C   UNL     1      47.391   4.500  15.123  0.00  0.00    +0.000 C 
ATOM     21  O   UNL     1      47.308   3.300  14.879  0.00  0.00    +0.000 OA
ATOM     22  H   UNL     1      47.883   5.962  16.464  0.00  0.00    +0.000 HD
BRANCH  20  23
ATOM     23  C   UNL     1      47.245   5.505  14.064  0.00  0.00    +0.000 A 
ATOM     24  C   UNL     1      48.249   6.430  13.822  0.00  0.00    +0.000 A 
ATOM     25  S   UNL     1      47.896   7.489  12.529  0.00  0.00    +0.000 S 
ATOM     26  C   UNL     1      46.369   6.776  12.287  0.00  0.00    +0.000 A 
ATOM     27  N   UNL     1      45.514   7.240  11.335  0.00  0.00    +0.000 NA
ATOM     28  C   UNL     1      44.381   6.619  11.289  0.00  0.00    +0.000 A 
ATOM     29  N   UNL     1      44.028   5.573  12.098  0.00  0.00    +0.000 N 
ATOM     30  C   UNL     1      44.873   5.047  13.042  0.00  0.00    +0.000 A 
ATOM     31  O   UNL     1      44.553   4.063  13.694  0.00  0.00    +0.000 OA
ATOM     32  C   UNL     1      46.146   5.726  13.157  0.00  0.00    +0.000 A 
ATOM     33  H   UNL     1      43.135   5.113  11.999  0.00  0.00    +0.000 HD
ENDBRANCH  20  23
ENDBRANCH   1  19
BRANCH   1  35
ATOM     34  C   UNL     1      47.445   6.522  18.647  0.00  0.00    +0.000 C 
ATOM     35  C   UNL     1      47.412   5.015  18.856  0.00  0.00    +0.000 C 
ENDBRANCH   1  35
TORSDOF 7
ENDMDL
MODEL 8
REMARK VINA RESULT:    -6.418      6.156      8.744
REMARK INTER + INTRA:         -10.205
REMARK INTER:                  -8.792
REMARK INTRA:                  -1.413
REMARK UNBOUND:                -1.161
REMARK  Name = 
REMARK  8 active torsions:
REMARK  status: ('A' for Active; 'I' for Inactive)
REMARK    1  A    between atoms: C_1  and  C_2
REMARK    2  A    between atoms: C_2  and  C_3
REMARK    3  A    between atoms: C_3  and  N_4
REMARK    4  A    between atoms: C_3  and  C_17
REMARK    5  A    between atoms: C_5  and  C_7
REMARK    6  A    between atoms: C_20  and  C_21
REMARK    7  A    between atoms: C_21  and  N_22
REMARK    8  A    between atoms: C_23  and  C_25
REMARK                            x       y       z     vdW  Elec       q    Type
REMARK                         _______ _______ _______ _____ _____    ______ ____
ROOT
ATOM      1  C   UNL     1      53.056   3.083  18.136  0.00  0.00    +0.000 C 
ENDROOT
BRANCH   1   2
ATOM      2  C   UNL     1      51.578   3.218  17.758  0.00  0.00    +0.000 A 
ATOM      3  C   UNL     1      50.922   4.455  17.840  0.00  0.00    +0.000 A 
ATOM      4  C   UNL     1      49.562   4.570  17.511  0.00  0.00    +0.000 A 
ATOM      5  C   UNL     1      48.825   3.453  17.092  0.00  0.00    +0.000 A 
ATOM      6  C   UNL     1      49.487   2.224  16.976  0.00  0.00    +0.000 A 
ATOM      7  C   UNL     1      50.842   2.108  17.309  0.00  0.00    +0.000 A 
BRANCH   5   8
ATOM      8  C   UNL     1      47.355   3.564  16.772  0.00  0.00    +0.000 C 
BRANCH   8   9
ATOM      9  N   UNL     1      47.089   4.591  15.794  0.00  0.00    +0.000 N 
ATOM     10  C   UNL     1      47.023   4.303  14.450  0.00  0.00    +0.000 C 
ATOM     11  O   UNL     1      47.206   3.171  14.010  0.00  0.00    +0.000 OA
ATOM     12  H   UNL     1      46.841   5.510  16.122  0.00  0.00    +0.000 HD
BRANCH  10  13
ATOM     13  C   UNL     1      46.712   5.428  13.593  0.00  0.00    +0.000 A 
ATOM     14  C   UNL     1      47.510   6.233  12.795  0.00  0.00    +0.000 A 
ATOM     15  C   UNL     1      46.683   7.190  12.155  0.00  0.00    +0.000 A 
ATOM     16  C   UNL     1      45.394   6.953  12.572  0.00  0.00    +0.000 A 
ATOM     17  N   UNL     1      45.419   5.888  13.434  0.00  0.00    +0.000 N 
ATOM     18  H   UNL     1      44.615   5.480  13.897  0.00  0.00    +0.000 HD
ENDBRANCH  10  13
ENDBRANCH   8   9
ENDBRANCH   5   8
ENDBRANCH   1   2
BRANCH   1  19
ATOM     19  N   UNL     1      53.459   1.703  17.902  0.00  0.00    +0.000 N 
ATOM     20  C   UNL     1      54.612   1.318  17.268  0.00  0.00    +0.000 C 
ATOM     21  O   UNL     1      55.476   2.105  16.896  0.00  0.00    +0.000 OA
ATOM     22  H   UNL     1      52.696   1.035  17.923  0.00  0.00    +0.000 HD
BRANCH  20  23
ATOM     23  C   UNL     1      54.787  -0.131  17.121  0.00  0.00    +0.000 A 
ATOM     24  C   UNL     1      54.901  -0.708  15.866  0.00  0.00    +0.000 A 
ATOM     25  S   UNL     1      55.130  -2.401  15.916  0.00  0.00    +0.000 S 
ATOM     26  C   UNL     1      55.030  -2.420  17.616  0.00  0.00    +0.000 A 
ATOM     27  N   UNL     1      55.111  -3.585  18.315  0.00  0.00    +0.000 NA
ATOM     28  C   UNL     1      54.988  -3.446  19.596  0.00  0.00    +0.000 A 
ATOM     29  N   UNL     1      54.803  -2.252  20.240  0.00  0.00    +0.000 N 
ATOM     30  C   UNL     1      54.758  -1.052  19.578  0.00  0.00    +0.000 A 
ATOM     31  O   UNL     1      54.669   0.002  20.192  0.00  0.00    +0.000 OA
ATOM     32  C   UNL     1      54.859  -1.153  18.137  0.00  0.00    +0.000 A 
ATOM     33  H   UNL     1      54.738  -2.206  21.245  0.00  0.00    +0.000 HD
ENDBRANCH  20  23
ENDBRANCH   1  19
BRANCH   1  35
ATOM     34  C   UNL     1      54.705   4.066  19.839  0.00  0.00    +0.000 C 
ATOM     35  C   UNL     1      53.314   3.497  19.598  0.00  0.00    +0.000 C 
ENDBRANCH   1  35
TORSDOF 7
ENDMDL
MODEL 9
REMARK VINA RESULT:    -6.328      3.801      6.093
REMARK INTER + INTRA:         -10.079
REMARK INTER:                  -8.588
REMARK INTRA:                  -1.491
REMARK UNBOUND:                -1.161
REMARK  Name = 
REMARK  8 active torsions:
REMARK  status: ('A' for Active; 'I' for Inactive)
REMARK    1  A    between atoms: C_1  and  C_2
REMARK    2  A    between atoms: C_2  and  C_3
REMARK    3  A    between atoms: C_3  and  N_4
REMARK    4  A    between atoms: C_3  and  C_17
REMARK    5  A    between atoms: C_5  and  C_7
REMARK    6  A    between atoms: C_20  and  C_21
REMARK    7  A    between atoms: C_21  and  N_22
REMARK    8  A    between atoms: C_23  and  C_25
REMARK                            x       y       z     vdW  Elec       q    Type
REMARK                         _______ _______ _______ _____ _____    ______ ____
ROOT
ATOM      1  C   UNL     1      49.379   6.484  18.149  0.00  0.00    +0.000 C 
ENDROOT
BRANCH   1   2
ATOM      2  C   UNL     1      48.725   6.129  16.811  0.00  0.00    +0.000 A 
ATOM      3  C   UNL     1      48.909   6.938  15.680  0.00  0.00    +0.000 A 
ATOM      4  C   UNL     1      48.292   6.619  14.460  0.00  0.00    +0.000 A 
ATOM      5  C   UNL     1      47.476   5.486  14.341  0.00  0.00    +0.000 A 
ATOM      6  C   UNL     1      47.318   4.657  15.459  0.00  0.00    +0.000 A 
ATOM      7  C   UNL     1      47.929   4.978  16.677  0.00  0.00    +0.000 A 
BRANCH   5   8
ATOM      8  C   UNL     1      46.781   5.158  13.042  0.00  0.00    +0.000 C 
BRANCH   8   9
ATOM      9  N   UNL     1      46.234   6.333  12.408  0.00  0.00    +0.000 N 
ATOM     10  C   UNL     1      44.903   6.660  12.530  0.00  0.00    +0.000 C 
ATOM     11  O   UNL     1      44.110   5.968  13.162  0.00  0.00    +0.000 OA
ATOM     12  H   UNL     1      46.868   6.974  11.962  0.00  0.00    +0.000 HD
BRANCH  10  13
ATOM     13  C   UNL     1      44.507   7.887  11.870  0.00  0.00    +0.000 A 
ATOM     14  C   UNL     1      45.120   9.126  11.770  0.00  0.00    +0.000 A 
ATOM     15  C   UNL     1      44.292   9.974  10.992  0.00  0.00    +0.000 A 
ATOM     16  C   UNL     1      43.188   9.239  10.629  0.00  0.00    +0.000 A 
ATOM     17  N   UNL     1      43.326   7.983  11.157  0.00  0.00    +0.000 N 
ATOM     18  H   UNL     1      42.670   7.218  11.050  0.00  0.00    +0.000 HD
ENDBRANCH  10  13
ENDBRANCH   8   9
ENDBRANCH   5   8
ENDBRANCH   1   2
BRANCH   1  19
ATOM     19  N   UNL     1      50.417   5.499  18.421  0.00  0.00    +0.000 N 
ATOM     20  C   UNL     1      51.672   5.507  17.869  0.00  0.00    +0.000 C 
ATOM     21  O   UNL     1      52.085   6.402  17.138  0.00  0.00    +0.000 OA
ATOM     22  H   UNL     1      50.071   4.613  18.774  0.00  0.00    +0.000 HD
BRANCH  20  23
ATOM     23  C   UNL     1      52.535   4.391  18.269  0.00  0.00    +0.000 A 
ATOM     24  C   UNL     1      53.716   4.620  18.959  0.00  0.00    +0.000 A 
ATOM     25  S   UNL     1      54.557   3.187  19.357  0.00  0.00    +0.000 S 
ATOM     26  C   UNL     1      53.394   2.220  18.575  0.00  0.00    +0.000 A 
ATOM     27  N   UNL     1      53.528   0.868  18.508  0.00  0.00    +0.000 NA
ATOM     28  C   UNL     1      52.584   0.271  17.856  0.00  0.00    +0.000 A 
ATOM     29  N   UNL     1      51.515   0.899  17.276  0.00  0.00    +0.000 N 
ATOM     30  C   UNL     1      51.319   2.254  17.354  0.00  0.00    +0.000 A 
ATOM     31  O   UNL     1      50.313   2.773  16.890  0.00  0.00    +0.000 OA
ATOM     32  C   UNL     1      52.365   2.976  18.048  0.00  0.00    +0.000 A 
ATOM     33  H   UNL     1      50.797   0.375  16.799  0.00  0.00    +0.000 HD
ENDBRANCH  20  23
ENDBRANCH   1  19
BRANCH   1  35
ATOM     34  C   UNL     1      47.469   7.777  19.274  0.00  0.00    +0.000 C 
ATOM     35  C   UNL     1      48.349   6.536  19.295  0.00  0.00    +0.000 C 
ENDBRANCH   1  35
TORSDOF 7
ENDMDL
