MODEL 1
REMARK VINA RESULT:    -7.814      0.000      0.000
REMARK INTER + INTRA:         -12.490
REMARK INTER:                 -11.468
REMARK INTRA:                  -1.022
REMARK UNBOUND:                -1.022
REMARK  Name = 
REMARK  9 active torsions:
REMARK  status: ('A' for Active; 'I' for Inactive)
REMARK    1  A    between atoms: C_1  and  C_2
REMARK    2  A    between atoms: C_2  and  O_3
REMARK    3  A    between atoms: O_3  and  C_4
REMARK    4  A    between atoms: C_4  and  C_5
REMARK    5  A    between atoms: C_8  and  C_9
REMARK    6  A    between atoms: C_9  and  C_10
REMARK    7  A    between atoms: C_13  and  C_14
REMARK    8  A    between atoms: C_14  and  N_15
REMARK    9  A    between atoms: C_16  and  C_18
REMARK                            x       y       z     vdW  Elec       q    Type
REMARK                         _______ _______ _______ _____ _____    ______ ____
ROOT
ATOM      1  C   UNL     1      44.264   6.057  11.705  0.00  0.00    +0.000 A 
ATOM      2  C   UNL     1      44.308   7.423  11.437  0.00  0.00    +0.000 A 
ATOM      3  C   UNL     1      45.297   8.194  12.043  0.00  0.00    +0.000 A 
ATOM      4  C   UNL     1      46.232   7.585  12.883  0.00  0.00    +0.000 A 
ATOM      5  C   UNL     1      46.064   6.233  13.148  0.00  0.00    +0.000 A 
ATOM      6  N   UNL     1      45.106   5.462  12.586  0.00  0.00    +0.000 NA
ENDROOT
BRANCH   1   7
ATOM      7  C   UNL     1      43.360   5.144  10.904  0.00  0.00    +0.000 C 
BRANCH   7  11
ATOM      8  C   UNL     1      45.615   2.427   8.500  0.00  0.00    +0.000 A 
ATOM      9  C   UNL     1      45.689   3.788   8.206  0.00  0.00    +0.000 A 
ATOM     10  C   UNL     1      44.941   4.687   8.965  0.00  0.00    +0.000 A 
ATOM     11  C   UNL     1      44.137   4.214  10.002  0.00  0.00    +0.000 A 
ATOM     12  C   UNL     1      44.103   2.836  10.202  0.00  0.00    +0.000 A 
ATOM     13  N   UNL     1      44.809   1.940   9.474  0.00  0.00    +0.000 NA
BRANCH   8  14
ATOM     14  C   UNL     1      46.477   1.445   7.745  0.00  0.00    +0.000 C 
BRANCH  14  15
ATOM     15  O   UNL     1      47.682   2.102   7.348  0.00  0.00    +0.000 OA
BRANCH  15  17
ATOM     16  C   UNL     1      46.988   2.844   5.202  0.00  0.00    +0.000 C 
ATOM     17  C   UNL     1      47.947   1.946   5.959  0.00  0.00    +0.000 C 
ENDBRANCH  15  17
ENDBRANCH  14  15
ENDBRANCH   8  14
ENDBRANCH   7  11
ENDBRANCH   1   7
BRANCH   4  18
ATOM     18  C   UNL     1      47.372   8.349  13.486  0.00  0.00    +0.000 C 
BRANCH  18  19
ATOM     19  N   UNL     1      47.678   7.875  14.808  0.00  0.00    +0.000 N 
ATOM     20  C   UNL     1      48.802   7.128  15.050  0.00  0.00    +0.000 C 
ATOM     21  O   UNL     1      49.630   6.893  14.173  0.00  0.00    +0.000 OA
ATOM     22  H   UNL     1      46.917   7.856  15.480  0.00  0.00    +0.000 HD
BRANCH  20  23
ATOM     23  C   UNL     1      48.997   6.675  16.431  0.00  0.00    +0.000 A 
ATOM     24  C   UNL     1      49.600   7.520  17.353  0.00  0.00    +0.000 A 
ATOM     25  S   UNL     1      49.696   6.860  18.923  0.00  0.00    +0.000 S 
ATOM     26  C   UNL     1      48.981   5.402  18.413  0.00  0.00    +0.000 A 
ATOM     27  N   UNL     1      48.786   4.376  19.285  0.00  0.00    +0.000 NA
ATOM     28  C   UNL     1      48.265   3.319  18.758  0.00  0.00    +0.000 A 
ATOM     29  N   UNL     1      47.915   3.196  17.438  0.00  0.00    +0.000 N 
ATOM     30  C   UNL     1      48.062   4.216  16.529  0.00  0.00    +0.000 A 
ATOM     31  O   UNL     1      47.694   4.091  15.366  0.00  0.00    +0.000 OA
ATOM     32  C   UNL     1      48.659   5.424  17.069  0.00  0.00    +0.000 A 
ATOM     33  H   UNL     1      47.502   2.344  17.091  0.00  0.00    +0.000 HD
ENDBRANCH  20  23
ENDBRANCH  18  19
ENDBRANCH   4  18
TORSDOF 8
ENDMDL
MODEL 2
REMARK VINA RESULT:    -7.195      2.485      3.012
REMARK INTER + INTRA:         -11.582
REMARK INTER:                 -10.657
REMARK INTRA:                  -0.925
REMARK UNBOUND:                -1.022
REMARK  Name = 
REMARK  9 active torsions:
REMARK  status: ('A' for Active; 'I' for Inactive)
REMARK    1  A    between atoms: C_1  and  C_2
REMARK    2  A    between atoms: C_2  and  O_3
REMARK    3  A    between atoms: O_3  and  C_4
REMARK    4  A    between atoms: C_4  and  C_5
REMARK    5  A    between atoms: C_8  and  C_9
REMARK    6  A    between atoms: C_9  and  C_10
REMARK    7  A    between atoms: C_13  and  C_14
REMARK    8  A    between atoms: C_14  and  N_15
REMARK    9  A    between atoms: C_16  and  C_18
REMARK                            x       y       z     vdW  Elec       q    Type
REMARK                         _______ _______ _______ _____ _____    ______ ____
ROOT
ATOM      1  C   UNL     1      46.113   6.046  13.031  0.00  0.00    +0.000 A 
ATOM      2  C   UNL     1      46.799   5.166  13.864  0.00  0.00    +0.000 A 
ATOM      3  C   UNL     1      47.843   5.658  14.645  0.00  0.00    +0.000 A 
ATOM      4  C   UNL     1      48.164   7.015  14.596  0.00  0.00    +0.000 A 
ATOM      5  C   UNL     1      47.475   7.801  13.683  0.00  0.00    +0.000 A 
ATOM      6  N   UNL     1      46.467   7.349  12.902  0.00  0.00    +0.000 NA
ENDROOT
BRANCH   1   7
ATOM      7  C   UNL     1      44.838   5.615  12.339  0.00  0.00    +0.000 C 
BRANCH   7  11
ATOM      8  C   UNL     1      45.522   3.701   8.582  0.00  0.00    +0.000 A 
ATOM      9  C   UNL     1      44.987   2.942   9.623  0.00  0.00    +0.000 A 
ATOM     10  C   UNL     1      44.781   3.544  10.863  0.00  0.00    +0.000 A 
ATOM     11  C   UNL     1      45.106   4.889  11.042  0.00  0.00    +0.000 A 
ATOM     12  C   UNL     1      45.663   5.558   9.954  0.00  0.00    +0.000 A 
ATOM     13  N   UNL     1      45.886   4.996   8.743  0.00  0.00    +0.000 NA
BRANCH   8  14
ATOM     14  C   UNL     1      45.680   3.092   7.211  0.00  0.00    +0.000 C 
BRANCH  14  15
ATOM     15  O   UNL     1      46.958   3.461   6.688  0.00  0.00    +0.000 OA
BRANCH  15  17
ATOM     16  C   UNL     1      47.173   1.150   7.189  0.00  0.00    +0.000 C 
ATOM     17  C   UNL     1      47.797   2.333   6.474  0.00  0.00    +0.000 C 
ENDBRANCH  15  17
ENDBRANCH  14  15
ENDBRANCH   8  14
ENDBRANCH   7  11
ENDBRANCH   1   7
BRANCH   4  18
ATOM     18  C   UNL     1      49.214   7.615  15.484  0.00  0.00    +0.000 C 
BRANCH  18  19
ATOM     19  N   UNL     1      50.173   6.628  15.898  0.00  0.00    +0.000 N 
ATOM     20  C   UNL     1      50.168   6.128  17.175  0.00  0.00    +0.000 C 
ATOM     21  O   UNL     1      49.308   6.442  17.994  0.00  0.00    +0.000 OA
ATOM     22  H   UNL     1      51.010   6.530  15.332  0.00  0.00    +0.000 HD
BRANCH  20  23
ATOM     23  C   UNL     1      51.211   5.148  17.493  0.00  0.00    +0.000 A 
ATOM     24  C   UNL     1      52.470   5.585  17.883  0.00  0.00    +0.000 A 
ATOM     25  S   UNL     1      53.543   4.317  18.270  0.00  0.00    +0.000 S 
ATOM     26  C   UNL     1      52.379   3.139  17.880  0.00  0.00    +0.000 A 
ATOM     27  N   UNL     1      52.667   1.813  17.976  0.00  0.00    +0.000 NA
ATOM     28  C   UNL     1      51.704   1.031  17.618  0.00  0.00    +0.000 A 
ATOM     29  N   UNL     1      50.476   1.454  17.180  0.00  0.00    +0.000 N 
ATOM     30  C   UNL     1      50.129   2.780  17.100  0.00  0.00    +0.000 A 
ATOM     31  O   UNL     1      49.005   3.126  16.750  0.00  0.00    +0.000 OA
ATOM     32  C   UNL     1      51.183   3.704  17.476  0.00  0.00    +0.000 A 
ATOM     33  H   UNL     1      49.762   0.788  16.925  0.00  0.00    +0.000 HD
ENDBRANCH  20  23
ENDBRANCH  18  19
ENDBRANCH   4  18
TORSDOF 8
ENDMDL
MODEL 3
REMARK VINA RESULT:    -6.939      2.024      2.268
REMARK INTER + INTRA:         -11.207
REMARK INTER:                  -9.903
REMARK INTRA:                  -1.304
REMARK UNBOUND:                -1.022
REMARK  Name = 
REMARK  9 active torsions:
REMARK  status: ('A' for Active; 'I' for Inactive)
REMARK    1  A    between atoms: C_1  and  C_2
REMARK    2  A    between atoms: C_2  and  O_3
REMARK    3  A    between atoms: O_3  and  C_4
REMARK    4  A    between atoms: C_4  and  C_5
REMARK    5  A    between atoms: C_8  and  C_9
REMARK    6  A    between atoms: C_9  and  C_10
REMARK    7  A    between atoms: C_13  and  C_14
REMARK    8  A    between atoms: C_14  and  N_15
REMARK    9  A    between atoms: C_16  and  C_18
REMARK                            x       y       z     vdW  Elec       q    Type
REMARK                         _______ _______ _______ _____ _____    ______ ____
ROOT
ATOM      1  C   UNL     1      45.407   6.740  12.463  0.00  0.00    +0.000 A 
ATOM      2  C   UNL     1      45.658   8.066  12.122  0.00  0.00    +0.000 A 
ATOM      3  C   UNL     1      46.948   8.567  12.278  0.00  0.00    +0.000 A 
ATOM      4  C   UNL     1      47.963   7.732  12.748  0.00  0.00    +0.000 A 
ATOM      5  C   UNL     1      47.604   6.447  13.131  0.00  0.00    +0.000 A 
ATOM      6  N   UNL     1      46.357   5.937  13.005  0.00  0.00    +0.000 NA
ENDROOT
BRANCH   1   7
ATOM      7  C   UNL     1      44.090   6.087  12.103  0.00  0.00    +0.000 C 
BRANCH   7  11
ATOM      8  C   UNL     1      44.596   2.819   9.400  0.00  0.00    +0.000 A 
ATOM      9  C   UNL     1      45.219   4.029   9.099  0.00  0.00    +0.000 A 
ATOM     10  C   UNL     1      45.045   5.114   9.956  0.00  0.00    +0.000 A 
ATOM     11  C   UNL     1      44.257   4.972  11.099  0.00  0.00    +0.000 A 
ATOM     12  C   UNL     1      43.649   3.735  11.302  0.00  0.00    +0.000 A 
ATOM     13  N   UNL     1      43.791   2.669  10.480  0.00  0.00    +0.000 NA
BRANCH   8  14
ATOM     14  C   UNL     1      44.834   1.610   8.529  0.00  0.00    +0.000 C 
BRANCH  14  15
ATOM     15  O   UNL     1      46.200   1.209   8.664  0.00  0.00    +0.000 OA
BRANCH  15  17
ATOM     16  C   UNL     1      47.607   1.999   6.923  0.00  0.00    +0.000 C 
ATOM     17  C   UNL     1      46.775   0.833   7.419  0.00  0.00    +0.000 C 
ENDBRANCH  15  17
ENDBRANCH  14  15
ENDBRANCH   8  14
ENDBRANCH   7  11
ENDBRANCH   1   7
BRANCH   4  18
ATOM     18  C   UNL     1      49.387   8.191  12.846  0.00  0.00    +0.000 C 
BRANCH  18  19
ATOM     19  N   UNL     1      50.121   7.415  13.807  0.00  0.00    +0.000 N 
ATOM     20  C   UNL     1      50.746   8.015  14.871  0.00  0.00    +0.000 C 
ATOM     21  O   UNL     1      50.650   9.219  15.090  0.00  0.00    +0.000 OA
ATOM     22  H   UNL     1      50.403   6.480  13.530  0.00  0.00    +0.000 HD
BRANCH  20  23
ATOM     23  C   UNL     1      51.489   7.127  15.772  0.00  0.00    +0.000 A 
ATOM     24  C   UNL     1      52.875   7.196  15.817  0.00  0.00    +0.000 A 
ATOM     25  S   UNL     1      53.574   6.138  16.957  0.00  0.00    +0.000 S 
ATOM     26  C   UNL     1      52.052   5.513  17.393  0.00  0.00    +0.000 A 
ATOM     27  N   UNL     1      51.941   4.533  18.329  0.00  0.00    +0.000 NA
ATOM     28  C   UNL     1      50.732   4.130  18.539  0.00  0.00    +0.000 A 
ATOM     29  N   UNL     1      49.623   4.623  17.902  0.00  0.00    +0.000 N 
ATOM     30  C   UNL     1      49.683   5.636  16.975  0.00  0.00    +0.000 A 
ATOM     31  O   UNL     1      48.668   6.089  16.458  0.00  0.00    +0.000 OA
ATOM     32  C   UNL     1      51.024   6.115  16.691  0.00  0.00    +0.000 A 
ATOM     33  H   UNL     1      48.703   4.271  18.120  0.00  0.00    +0.000 HD
ENDBRANCH  20  23
ENDBRANCH  18  19
ENDBRANCH   4  18
TORSDOF 8
ENDMDL
MODEL 4
REMARK VINA RESULT:    -6.821      1.623      2.175
REMARK INTER + INTRA:         -11.032
REMARK INTER:                  -9.705
REMARK INTRA:                  -1.328
REMARK UNBOUND:                -1.022
REMARK  Name = 
REMARK  9 active torsions:
REMARK  status: ('A' for Active; 'I' for Inactive)
REMARK    1  A    between atoms: C_1  and  C_2
REMARK    2  A    between atoms: C_2  and  O_3
REMARK    3  A    between atoms: O_3  and  C_4
REMARK    4  A    between atoms: C_4  and  C_5
REMARK    5  A    between atoms: C_8  and  C_9
REMARK    6  A    between atoms: C_9  and  C_10
REMARK    7  A    between atoms: C_13  and  C_14
REMARK    8  A    between atoms: C_14  and  N_15
REMARK    9  A    between atoms: C_16  and  C_18
REMARK                            x       y       z     vdW  Elec       q    Type
REMARK                         _______ _______ _______ _____ _____    ______ ____
ROOT
ATOM      1  C   UNL     1      45.631   6.499  12.838  0.00  0.00    +0.000 A 
ATOM      2  C   UNL     1      46.670   5.682  13.276  0.00  0.00    +0.000 A 
ATOM      3  C   UNL     1      47.806   6.275  13.823  0.00  0.00    +0.000 A 
ATOM      4  C   UNL     1      47.872   7.665  13.941  0.00  0.00    +0.000 A 
ATOM      5  C   UNL     1      46.821   8.400  13.410  0.00  0.00    +0.000 A 
ATOM      6  N   UNL     1      45.713   7.853  12.862  0.00  0.00    +0.000 NA
ENDROOT
BRANCH   1   7
ATOM      7  C   UNL     1      44.295   5.904  12.450  0.00  0.00    +0.000 C 
BRANCH   7  11
ATOM      8  C   UNL     1      44.704   2.833   9.510  0.00  0.00    +0.000 A 
ATOM      9  C   UNL     1      45.277   4.077   9.250  0.00  0.00    +0.000 A 
ATOM     10  C   UNL     1      45.132   5.099  10.188  0.00  0.00    +0.000 A 
ATOM     11  C   UNL     1      44.424   4.860  11.366  0.00  0.00    +0.000 A 
ATOM     12  C   UNL     1      43.861   3.596  11.524  0.00  0.00    +0.000 A 
ATOM     13  N   UNL     1      43.975   2.590  10.625  0.00  0.00    +0.000 NA
BRANCH   8  14
ATOM     14  C   UNL     1      44.915   1.691   8.547  0.00  0.00    +0.000 C 
BRANCH  14  15
ATOM     15  O   UNL     1      46.306   1.360   8.523  0.00  0.00    +0.000 OA
BRANCH  15  17
ATOM     16  C   UNL     1      47.863   2.124   6.902  0.00  0.00    +0.000 C 
ATOM     17  C   UNL     1      46.776   1.111   7.205  0.00  0.00    +0.000 C 
ENDBRANCH  15  17
ENDBRANCH  14  15
ENDBRANCH   8  14
ENDBRANCH   7  11
ENDBRANCH   1   7
BRANCH   4  18
ATOM     18  C   UNL     1      49.028   8.350  14.606  0.00  0.00    +0.000 C 
BRANCH  18  19
ATOM     19  N   UNL     1      49.237   7.850  15.937  0.00  0.00    +0.000 N 
ATOM     20  C   UNL     1      48.634   8.442  17.017  0.00  0.00    +0.000 C 
ATOM     21  O   UNL     1      47.841   9.371  16.894  0.00  0.00    +0.000 OA
ATOM     22  H   UNL     1      50.044   7.253  16.086  0.00  0.00    +0.000 HD
BRANCH  20  23
ATOM     23  C   UNL     1      48.942   7.864  18.330  0.00  0.00    +0.000 A 
ATOM     24  C   UNL     1      49.529   8.655  19.309  0.00  0.00    +0.000 A 
ATOM     25  S   UNL     1      49.765   7.843  20.790  0.00  0.00    +0.000 S 
ATOM     26  C   UNL     1      49.141   6.392  20.158  0.00  0.00    +0.000 A 
ATOM     27  N   UNL     1      49.077   5.267  20.920  0.00  0.00    +0.000 NA
ATOM     28  C   UNL     1      48.612   4.232  20.306  0.00  0.00    +0.000 A 
ATOM     29  N   UNL     1      48.198   4.219  18.999  0.00  0.00    +0.000 N 
ATOM     30  C   UNL     1      48.212   5.338  18.202  0.00  0.00    +0.000 A 
ATOM     31  O   UNL     1      47.789   5.306  17.051  0.00  0.00    +0.000 OA
ATOM     32  C   UNL     1      48.741   6.529  18.841  0.00  0.00    +0.000 A 
ATOM     33  H   UNL     1      47.834   3.376  18.581  0.00  0.00    +0.000 HD
ENDBRANCH  20  23
ENDBRANCH  18  19
ENDBRANCH   4  18
TORSDOF 8
ENDMDL
MODEL 5
REMARK VINA RESULT:    -6.478      2.767      3.459
REMARK INTER + INTRA:         -10.530
REMARK INTER:                  -9.351
REMARK INTRA:                  -1.179
REMARK UNBOUND:                -1.022
REMARK  Name = 
REMARK  9 active torsions:
REMARK  status: ('A' for Active; 'I' for Inactive)
REMARK    1  A    between atoms: C_1  and  C_2
REMARK    2  A    between atoms: C_2  and  O_3
REMARK    3  A    between atoms: O_3  and  C_4
REMARK    4  A    between atoms: C_4  and  C_5
REMARK    5  A    between atoms: C_8  and  C_9
REMARK    6  A    between atoms: C_9  and  C_10
REMARK    7  A    between atoms: C_13  and  C_14
REMARK    8  A    between atoms: C_14  and  N_15
REMARK    9  A    between atoms: C_16  and  C_18
REMARK                            x       y       z     vdW  Elec       q    Type
REMARK                         _______ _______ _______ _____ _____    ______ ____
ROOT
ATOM      1  C   UNL     1      45.729   6.685  12.757  0.00  0.00    +0.000 A 
ATOM      2  C   UNL     1      46.649   5.750  13.224  0.00  0.00    +0.000 A 
ATOM      3  C   UNL     1      47.797   6.202  13.870  0.00  0.00    +0.000 A 
ATOM      4  C   UNL     1      47.992   7.572  14.056  0.00  0.00    +0.000 A 
ATOM      5  C   UNL     1      47.059   8.431  13.493  0.00  0.00    +0.000 A 
ATOM      6  N   UNL     1      45.943   8.021  12.848  0.00  0.00    +0.000 NA
ENDROOT
BRANCH   1   7
ATOM      7  C   UNL     1      44.371   6.245  12.255  0.00  0.00    +0.000 C 
BRANCH   7  11
ATOM      8  C   UNL     1      44.678   3.169   9.307  0.00  0.00    +0.000 A 
ATOM      9  C   UNL     1      45.376   4.358   9.098  0.00  0.00    +0.000 A 
ATOM     10  C   UNL     1      45.268   5.382  10.037  0.00  0.00    +0.000 A 
ATOM     11  C   UNL     1      44.471   5.201  11.167  0.00  0.00    +0.000 A 
ATOM     12  C   UNL     1      43.787   3.993  11.276  0.00  0.00    +0.000 A 
ATOM     13  N   UNL     1      43.864   2.987  10.374  0.00  0.00    +0.000 NA
BRANCH   8  14
ATOM     14  C   UNL     1      44.844   2.019   8.344  0.00  0.00    +0.000 C 
BRANCH  14  15
ATOM     15  O   UNL     1      46.011   1.279   8.708  0.00  0.00    +0.000 OA
BRANCH  15  17
ATOM     16  C   UNL     1      47.486   2.017   7.000  0.00  0.00    +0.000 C 
ATOM     17  C   UNL     1      46.738   0.829   7.572  0.00  0.00    +0.000 C 
ENDBRANCH  15  17
ENDBRANCH  14  15
ENDBRANCH   8  14
ENDBRANCH   7  11
ENDBRANCH   1   7
BRANCH   4  18
ATOM     18  C   UNL     1      49.161   8.109  14.827  0.00  0.00    +0.000 C 
BRANCH  18  19
ATOM     19  N   UNL     1      49.972   7.047  15.354  0.00  0.00    +0.000 N 
ATOM     20  C   UNL     1      49.892   6.684  16.675  0.00  0.00    +0.000 C 
ATOM     21  O   UNL     1      49.081   7.195  17.443  0.00  0.00    +0.000 OA
ATOM     22  H   UNL     1      50.789   6.777  14.816  0.00  0.00    +0.000 HD
BRANCH  20  23
ATOM     23  C   UNL     1      50.787   5.606  17.108  0.00  0.00    +0.000 A 
ATOM     24  C   UNL     1      50.252   4.432  17.620  0.00  0.00    +0.000 A 
ATOM     25  S   UNL     1      51.428   3.263  18.020  0.00  0.00    +0.000 S 
ATOM     26  C   UNL     1      52.696   4.306  17.572  0.00  0.00    +0.000 A 
ATOM     27  N   UNL     1      53.994   3.918  17.689  0.00  0.00    +0.000 NA
ATOM     28  C   UNL     1      54.853   4.818  17.344  0.00  0.00    +0.000 A 
ATOM     29  N   UNL     1      54.531   6.069  16.886  0.00  0.00    +0.000 N 
ATOM     30  C   UNL     1      53.235   6.492  16.718  0.00  0.00    +0.000 A 
ATOM     31  O   UNL     1      52.980   7.601  16.260  0.00  0.00    +0.000 OA
ATOM     32  C   UNL     1      52.229   5.521  17.108  0.00  0.00    +0.000 A 
ATOM     33  H   UNL     1      55.253   6.724  16.622  0.00  0.00    +0.000 HD
ENDBRANCH  20  23
ENDBRANCH  18  19
ENDBRANCH   4  18
TORSDOF 8
ENDMDL
MODEL 6
REMARK VINA RESULT:    -6.427      3.836      8.816
REMARK INTER + INTRA:         -10.455
REMARK INTER:                  -9.355
REMARK INTRA:                  -1.100
REMARK UNBOUND:                -1.022
REMARK  Name = 
REMARK  9 active torsions:
REMARK  status: ('A' for Active; 'I' for Inactive)
REMARK    1  A    between atoms: C_1  and  C_2
REMARK    2  A    between atoms: C_2  and  O_3
REMARK    3  A    between atoms: O_3  and  C_4
REMARK    4  A    between atoms: C_4  and  C_5
REMARK    5  A    between atoms: C_8  and  C_9
REMARK    6  A    between atoms: C_9  and  C_10
REMARK    7  A    between atoms: C_13  and  C_14
REMARK    8  A    between atoms: C_14  and  N_15
REMARK    9  A    between atoms: C_16  and  C_18
REMARK                            x       y       z     vdW  Elec       q    Type
REMARK                         _______ _______ _______ _____ _____    ______ ____
ROOT
ATOM      1  C   UNL     1      51.295   3.655  18.233  0.00  0.00    +0.000 A 
ATOM      2  C   UNL     1      50.944   2.613  17.379  0.00  0.00    +0.000 A 
ATOM      3  C   UNL     1      49.605   2.453  17.030  0.00  0.00    +0.000 A 
ATOM      4  C   UNL     1      48.651   3.345  17.520  0.00  0.00    +0.000 A 
ATOM      5  C   UNL     1      49.083   4.308  18.422  0.00  0.00    +0.000 A 
ATOM      6  N   UNL     1      50.373   4.479  18.791  0.00  0.00    +0.000 NA
ENDROOT
BRANCH   1   7
ATOM      7  C   UNL     1      52.749   4.008  18.460  0.00  0.00    +0.000 C 
BRANCH   7  11
ATOM      8  C   UNL     1      54.084   6.712  15.435  0.00  0.00    +0.000 A 
ATOM      9  C   UNL     1      54.994   5.783  15.940  0.00  0.00    +0.000 A 
ATOM     10  C   UNL     1      54.582   4.909  16.945  0.00  0.00    +0.000 A 
ATOM     11  C   UNL     1      53.274   4.974  17.425  0.00  0.00    +0.000 A 
ATOM     12  C   UNL     1      52.447   5.955  16.882  0.00  0.00    +0.000 A 
ATOM     13  N   UNL     1      52.823   6.823  15.915  0.00  0.00    +0.000 NA
BRANCH   8  14
ATOM     14  C   UNL     1      54.484   7.613  14.293  0.00  0.00    +0.000 C 
BRANCH  14  15
ATOM     15  O   UNL     1      53.462   8.594  14.101  0.00  0.00    +0.000 OA
BRANCH  15  17
ATOM     16  C   UNL     1      51.383   8.510  12.957  0.00  0.00    +0.000 C 
ATOM     17  C   UNL     1      52.891   8.529  12.801  0.00  0.00    +0.000 C 
ENDBRANCH  15  17
ENDBRANCH  14  15
ENDBRANCH   8  14
ENDBRANCH   7  11
ENDBRANCH   1   7
BRANCH   4  18
ATOM     18  C   UNL     1      47.212   3.277  17.103  0.00  0.00    +0.000 C 
BRANCH  18  19
ATOM     19  N   UNL     1      46.895   4.306  16.151  0.00  0.00    +0.000 N 
ATOM     20  C   UNL     1      47.059   4.101  14.805  0.00  0.00    +0.000 C 
ATOM     21  O   UNL     1      47.413   3.017  14.350  0.00  0.00    +0.000 OA
ATOM     22  H   UNL     1      46.827   5.256  16.503  0.00  0.00    +0.000 HD
BRANCH  20  23
ATOM     23  C   UNL     1      46.730   5.231  13.931  0.00  0.00    +0.000 A 
ATOM     24  C   UNL     1      47.622   6.288  13.806  0.00  0.00    +0.000 A 
ATOM     25  S   UNL     1      47.110   7.488  12.708  0.00  0.00    +0.000 S 
ATOM     26  C   UNL     1      45.654   6.663  12.401  0.00  0.00    +0.000 A 
ATOM     27  N   UNL     1      44.729   7.174  11.544  0.00  0.00    +0.000 NA
ATOM     28  C   UNL     1      43.658   6.462  11.429  0.00  0.00    +0.000 A 
ATOM     29  N   UNL     1      43.430   5.282  12.088  0.00  0.00    +0.000 N 
ATOM     30  C   UNL     1      44.348   4.711  12.935  0.00  0.00    +0.000 A 
ATOM     31  O   UNL     1      44.135   3.630  13.473  0.00  0.00    +0.000 OA
ATOM     32  C   UNL     1      45.566   5.481  13.112  0.00  0.00    +0.000 A 
ATOM     33  H   UNL     1      42.573   4.768  11.945  0.00  0.00    +0.000 HD
ENDBRANCH  20  23
ENDBRANCH  18  19
ENDBRANCH   4  18
TORSDOF 8
ENDMDL
MODEL 7
REMARK VINA RESULT:    -6.354      3.917      5.272
REMARK INTER + INTRA:         -10.347
REMARK INTER:                  -9.002
REMARK INTRA:                  -1.345
REMARK UNBOUND:                -1.022
REMARK  Name = 
REMARK  9 active torsions:
REMARK  status: ('A' for Active; 'I' for Inactive)
REMARK    1  A    between atoms: C_1  and  C_2
REMARK    2  A    between atoms: C_2  and  O_3
REMARK    3  A    between atoms: O_3  and  C_4
REMARK    4  A    between atoms: C_4  and  C_5
REMARK    5  A    between atoms: C_8  and  C_9
REMARK    6  A    between atoms: C_9  and  C_10
REMARK    7  A    between atoms: C_13  and  C_14
REMARK    8  A    between atoms: C_14  and  N_15
REMARK    9  A    between atoms: C_16  and  C_18
REMARK                            x       y       z     vdW  Elec       q    Type
REMARK                         _______ _______ _______ _____ _____    ______ ____
ROOT
ATOM      1  C   UNL     1      45.928   6.607  12.807  0.00  0.00    +0.000 A 
ATOM      2  C   UNL     1      46.833   5.637  13.230  0.00  0.00    +0.000 A 
ATOM      3  C   UNL     1      48.006   6.044  13.863  0.00  0.00    +0.000 A 
ATOM      4  C   UNL     1      48.239   7.403  14.081  0.00  0.00    +0.000 A 
ATOM      5  C   UNL     1      47.316   8.299  13.560  0.00  0.00    +0.000 A 
ATOM      6  N   UNL     1      46.176   7.935  12.929  0.00  0.00    +0.000 NA
ENDROOT
BRANCH   1   7
ATOM      7  C   UNL     1      44.548   6.214  12.324  0.00  0.00    +0.000 C 
BRANCH   7  11
ATOM      8  C   UNL     1      44.728   2.980   9.539  0.00  0.00    +0.000 A 
ATOM      9  C   UNL     1      45.301   4.199   9.175  0.00  0.00    +0.000 A 
ATOM     10  C   UNL     1      45.230   5.272  10.062  0.00  0.00    +0.000 A 
ATOM     11  C   UNL     1      44.594   5.111  11.293  0.00  0.00    +0.000 A 
ATOM     12  C   UNL     1      44.024   3.867  11.556  0.00  0.00    +0.000 A 
ATOM     13  N   UNL     1      44.067   2.812  10.709  0.00  0.00    +0.000 NA
BRANCH   8  14
ATOM     14  C   UNL     1      44.862   1.784   8.629  0.00  0.00    +0.000 C 
BRANCH  14  15
ATOM     15  O   UNL     1      46.226   1.356   8.629  0.00  0.00    +0.000 OA
BRANCH  15  17
ATOM     16  C   UNL     1      47.781   2.058   6.978  0.00  0.00    +0.000 C 
ATOM     17  C   UNL     1      46.695   1.057   7.321  0.00  0.00    +0.000 C 
ENDBRANCH  15  17
ENDBRANCH  14  15
ENDBRANCH   8  14
ENDBRANCH   7  11
ENDBRANCH   1   7
BRANCH   4  18
ATOM     18  C   UNL     1      49.437   7.890  14.840  0.00  0.00    +0.000 C 
BRANCH  18  19
ATOM     19  N   UNL     1      50.633   7.789  14.049  0.00  0.00    +0.000 N 
ATOM     20  C   UNL     1      51.388   8.897  13.764  0.00  0.00    +0.000 C 
ATOM     21  O   UNL     1      51.122  10.004  14.224  0.00  0.00    +0.000 OA
ATOM     22  H   UNL     1      50.743   6.954  13.481  0.00  0.00    +0.000 HD
BRANCH  20  23
ATOM     23  C   UNL     1      52.572   8.677  12.925  0.00  0.00    +0.000 A 
ATOM     24  C   UNL     1      53.824   9.055  13.391  0.00  0.00    +0.000 A 
ATOM     25  S   UNL     1      55.095   8.676  12.318  0.00  0.00    +0.000 S 
ATOM     26  C   UNL     1      54.010   8.043  11.171  0.00  0.00    +0.000 A 
ATOM     27  N   UNL     1      54.455   7.555   9.982  0.00  0.00    +0.000 NA
ATOM     28  C   UNL     1      53.523   7.136   9.193  0.00  0.00    +0.000 A 
ATOM     29  N   UNL     1      52.184   7.155   9.488  0.00  0.00    +0.000 N 
ATOM     30  C   UNL     1      51.691   7.606  10.688  0.00  0.00    +0.000 A 
ATOM     31  O   UNL     1      50.491   7.564  10.941  0.00  0.00    +0.000 OA
ATOM     32  C   UNL     1      52.699   8.103  11.606  0.00  0.00    +0.000 A 
ATOM     33  H   UNL     1      51.506   6.801   8.829  0.00  0.00    +0.000 HD
ENDBRANCH  20  23
ENDBRANCH  18  19
ENDBRANCH   4  18
TORSDOF 8
ENDMDL
MODEL 8
REMARK VINA RESULT:    -6.348      3.385      5.084
REMARK INTER + INTRA:         -10.338
REMARK INTER:                  -9.649
REMARK INTRA:                  -0.690
REMARK UNBOUND:                -1.022
REMARK  Name = 
REMARK  9 active torsions:
REMARK  status: ('A' for Active; 'I' for Inactive)
REMARK    1  A    between atoms: C_1  and  C_2
REMARK    2  A    between atoms: C_2  and  O_3
REMARK    3  A    between atoms: O_3  and  C_4
REMARK    4  A    between atoms: C_4  and  C_5
REMARK    5  A    between atoms: C_8  and  C_9
REMARK    6  A    between atoms: C_9  and  C_10
REMARK    7  A    between atoms: C_13  and  C_14
REMARK    8  A    between atoms: C_14  and  N_15
REMARK    9  A    between atoms: C_16  and  C_18
REMARK                            x       y       z     vdW  Elec       q    Type
REMARK                         _______ _______ _______ _____ _____    ______ ____
ROOT
ATOM      1  C   UNL     1      48.241   6.302  14.912  0.00  0.00    +0.000 A 
ATOM      2  C   UNL     1      48.748   7.460  15.496  0.00  0.00    +0.000 A 
ATOM      3  C   UNL     1      49.103   7.432  16.843  0.00  0.00    +0.000 A 
ATOM      4  C   UNL     1      48.968   6.249  17.570  0.00  0.00    +0.000 A 
ATOM      5  C   UNL     1      48.386   5.166  16.924  0.00  0.00    +0.000 A 
ATOM      6  N   UNL     1      48.018   5.168  15.622  0.00  0.00    +0.000 NA
ENDROOT
BRANCH   1   7
ATOM      7  C   UNL     1      48.055   6.214  13.412  0.00  0.00    +0.000 C 
BRANCH   7  11
ATOM      8  C   UNL     1      44.698   3.837  12.262  0.00  0.00    +0.000 A 
ATOM      9  C   UNL     1      44.646   5.211  12.031  0.00  0.00    +0.000 A 
ATOM     10  C   UNL     1      45.722   6.006  12.423  0.00  0.00    +0.000 A 
ATOM     11  C   UNL     1      46.830   5.417  13.032  0.00  0.00    +0.000 A 
ATOM     12  C   UNL     1      46.780   4.042  13.249  0.00  0.00    +0.000 A 
ATOM     13  N   UNL     1      45.744   3.248  12.890  0.00  0.00    +0.000 NA
BRANCH   8  14
ATOM     14  C   UNL     1      43.581   2.948  11.775  0.00  0.00    +0.000 C 
BRANCH  14  15
ATOM     15  O   UNL     1      43.443   3.114  10.362  0.00  0.00    +0.000 OA
BRANCH  15  17
ATOM     16  C   UNL     1      44.760   3.366   8.403  0.00  0.00    +0.000 C 
ATOM     17  C   UNL     1      44.521   2.528   9.644  0.00  0.00    +0.000 C 
ENDBRANCH  15  17
ENDBRANCH  14  15
ENDBRANCH   8  14
ENDBRANCH   7  11
ENDBRANCH   1   7
BRANCH   4  18
ATOM     18  C   UNL     1      49.422   6.136  18.995  0.00  0.00    +0.000 C 
BRANCH  18  19
ATOM     19  N   UNL     1      50.412   5.106  19.148  0.00  0.00    +0.000 N 
ATOM     20  C   UNL     1      51.722   5.327  18.807  0.00  0.00    +0.000 C 
ATOM     21  O   UNL     1      52.120   6.425  18.427  0.00  0.00    +0.000 OA
ATOM     22  H   UNL     1      50.077   4.151  19.234  0.00  0.00    +0.000 HD
BRANCH  20  23
ATOM     23  C   UNL     1      52.638   4.194  18.979  0.00  0.00    +0.000 A 
ATOM     24  C   UNL     1      53.775   4.343  19.762  0.00  0.00    +0.000 A 
ATOM     25  S   UNL     1      54.698   2.915  19.903  0.00  0.00    +0.000 S 
ATOM     26  C   UNL     1      53.637   2.064  18.880  0.00  0.00    +0.000 A 
ATOM     27  N   UNL     1      53.867   0.761  18.563  0.00  0.00    +0.000 NA
ATOM     28  C   UNL     1      53.002   0.248  17.753  0.00  0.00    +0.000 A 
ATOM     29  N   UNL     1      51.925   0.918  17.235  0.00  0.00    +0.000 N 
ATOM     30  C   UNL     1      51.634   2.223  17.553  0.00  0.00    +0.000 A 
ATOM     31  O   UNL     1      50.634   2.780  17.111  0.00  0.00    +0.000 OA
ATOM     32  C   UNL     1      52.586   2.852  18.450  0.00  0.00    +0.000 A 
ATOM     33  H   UNL     1      51.279   0.455  16.613  0.00  0.00    +0.000 HD
ENDBRANCH  20  23
ENDBRANCH  18  19
ENDBRANCH   4  18
TORSDOF 8
ENDMDL
MODEL 9
REMARK VINA RESULT:    -6.220      5.640      7.642
REMARK INTER + INTRA:         -10.150
REMARK INTER:                  -9.000
REMARK INTRA:                  -1.150
REMARK UNBOUND:                -1.022
REMARK  Name = 
REMARK  9 active torsions:
REMARK  status: ('A' for Active; 'I' for Inactive)
REMARK    1  A    between atoms: C_1  and  C_2
REMARK    2  A    between atoms: C_2  and  O_3
REMARK    3  A    between atoms: O_3  and  C_4
REMARK    4  A    between atoms: C_4  and  C_5
REMARK    5  A    between atoms: C_8  and  C_9
REMARK    6  A    between atoms: C_9  and  C_10
REMARK    7  A    between atoms: C_13  and  C_14
REMARK    8  A    between atoms: C_14  and  N_15
REMARK    9  A    between atoms: C_16  and  C_18
REMARK                            x       y       z     vdW  Elec       q    Type
REMARK                         _______ _______ _______ _____ _____    ______ ____
ROOT
ATOM      1  C   UNL     1      47.866   7.826  12.986  0.00  0.00    +0.000 A 
ATOM      2  C   UNL     1      48.776   8.097  14.004  0.00  0.00    +0.000 A 
ATOM      3  C   UNL     1      50.118   8.274  13.676  0.00  0.00    +0.000 A 
ATOM      4  C   UNL     1      50.520   8.200  12.341  0.00  0.00    +0.000 A 
ATOM      5  C   UNL     1      49.556   7.853  11.404  0.00  0.00    +0.000 A 
ATOM      6  N   UNL     1      48.249   7.662  11.695  0.00  0.00    +0.000 NA
ENDROOT
BRANCH   1   7
ATOM      7  C   UNL     1      46.377   7.851  13.256  0.00  0.00    +0.000 C 
BRANCH   7  11
ATOM      8  C   UNL     1      44.565   4.240  11.870  0.00  0.00    +0.000 A 
ATOM      9  C   UNL     1      44.357   5.408  11.137  0.00  0.00    +0.000 A 
ATOM     10  C   UNL     1      44.920   6.601  11.588  0.00  0.00    +0.000 A 
ATOM     11  C   UNL     1      45.682   6.607  12.757  0.00  0.00    +0.000 A 
ATOM     12  C   UNL     1      45.810   5.398  13.438  0.00  0.00    +0.000 A 
ATOM     13  N   UNL     1      45.265   4.229  13.029  0.00  0.00    +0.000 NA
BRANCH   8  14
ATOM     14  C   UNL     1      44.032   2.925  11.358  0.00  0.00    +0.000 C 
BRANCH  14  15
ATOM     15  O   UNL     1      43.738   3.058   9.965  0.00  0.00    +0.000 OA
BRANCH  15  17
ATOM     16  C   UNL     1      45.152   3.286   8.072  0.00  0.00    +0.000 C 
ATOM     17  C   UNL     1      44.658   2.342   9.151  0.00  0.00    +0.000 C 
ENDBRANCH  15  17
ENDBRANCH  14  15
ENDBRANCH   8  14
ENDBRANCH   7  11
ENDBRANCH   1   7
BRANCH   4  18
ATOM     18  C   UNL     1      51.933   8.474  11.921  0.00  0.00    +0.000 C 
BRANCH  18  19
ATOM     19  N   UNL     1      52.171   8.042  10.572  0.00  0.00    +0.000 N 
ATOM     20  C   UNL     1      53.174   8.594   9.818  0.00  0.00    +0.000 C 
ATOM     21  O   UNL     1      53.954   9.424  10.278  0.00  0.00    +0.000 OA
ATOM     22  H   UNL     1      51.418   7.544  10.106  0.00  0.00    +0.000 HD
BRANCH  20  23
ATOM     23  C   UNL     1      53.305   8.095   8.445  0.00  0.00    +0.000 A 
ATOM     24  C   UNL     1      53.187   8.976   7.378  0.00  0.00    +0.000 A 
ATOM     25  S   UNL     1      53.423   8.242   5.857  0.00  0.00    +0.000 S 
ATOM     26  C   UNL     1      53.639   6.711   6.568  0.00  0.00    +0.000 A 
ATOM     27  N   UNL     1      53.866   5.610   5.803  0.00  0.00    +0.000 NA
ATOM     28  C   UNL     1      53.978   4.510   6.469  0.00  0.00    +0.000 A 
ATOM     29  N   UNL     1      53.891   4.411   7.833  0.00  0.00    +0.000 N 
ATOM     30  C   UNL     1      53.698   5.500   8.649  0.00  0.00    +0.000 A 
ATOM     31  O   UNL     1      53.674   5.386   9.870  0.00  0.00    +0.000 OA
ATOM     32  C   UNL     1      53.549   6.761   7.947  0.00  0.00    +0.000 A 
ATOM     33  H   UNL     1      53.999   3.520   8.295  0.00  0.00    +0.000 HD
ENDBRANCH  20  23
ENDBRANCH  18  19
ENDBRANCH   4  18
TORSDOF 8
ENDMDL
