MODEL 1
REMARK VINA RESULT:    -7.364      0.000      0.000
REMARK INTER + INTRA:         -10.163
REMARK INTER:                  -9.516
REMARK INTRA:                  -0.647
REMARK UNBOUND:                -0.647
REMARK  Name = 
REMARK  6 active torsions:
REMARK  status: ('A' for Active; 'I' for Inactive)
REMARK    1  A    between atoms: C_1  and  S_2
REMARK    2  A    between atoms: S_2  and  C_3
REMARK    3  A    between atoms: C_6  and  C_7
REMARK    4  A    between atoms: C_7  and  O_8
REMARK    5  A    between atoms: O_8  and  C_9
REMARK    6  A    between atoms: C_12  and  C_13
REMARK                            x       y       z     vdW  Elec       q    Type
REMARK                         _______ _______ _______ _____ _____    ______ ____
ROOT
ATOM      1  C   UNL     1      44.453   3.360   9.304  0.00  0.00    +0.000 A 
ATOM      2  C   UNL     1      44.930   2.052   9.253  0.00  0.00    +0.000 A 
ATOM      3  C   UNL     1      45.940   1.722   8.348  0.00  0.00    +0.000 A 
ATOM      4  C   UNL     1      46.440   2.718   7.521  0.00  0.00    +0.000 A 
ATOM      5  N   UNL     1      46.004   4.007   7.541  0.00  0.00    +0.000 NA
ATOM      6  C   UNL     1      45.024   4.287   8.435  0.00  0.00    +0.000 A 
ENDROOT
BRANCH   4   7
ATOM      7  C   UNL     1      47.519   2.386   6.537  0.00  0.00    +0.000 C 
ATOM      8  N   UNL     1      47.497   3.112   5.376  0.00  0.00    +0.000 N 
ATOM      9  O   UNL     1      48.363   1.525   6.746  0.00  0.00    +0.000 OA
ATOM     10  H   UNL     1      46.779   3.813   5.239  0.00  0.00    +0.000 HD
ATOM     11  H   UNL     1      48.191   2.936   4.665  0.00  0.00    +0.000 HD
ENDBRANCH   4   7
BRANCH   1  12
ATOM     12  O   UNL     1      43.474   3.832  10.130  0.00  0.00    +0.000 OA
BRANCH  12  13
ATOM     13  C   UNL     1      43.568   3.467  11.509  0.00  0.00    +0.000 C 
BRANCH  13  17
ATOM     14  C   UNL     1      46.796   5.707  13.327  0.00  0.00    +0.000 A 
ATOM     15  C   UNL     1      46.768   4.316  13.431  0.00  0.00    +0.000 A 
ATOM     16  C   UNL     1      45.722   3.584  12.860  0.00  0.00    +0.000 A 
ATOM     17  C   UNL     1      44.674   4.236  12.197  0.00  0.00    +0.000 A 
ATOM     18  C   UNL     1      44.702   5.636  12.110  0.00  0.00    +0.000 A 
ATOM     19  C   UNL     1      45.749   6.366  12.678  0.00  0.00    +0.000 A 
BRANCH  14  21
ATOM     20  C   UNL     1      48.945   7.166  12.459  0.00  0.00    +0.000 C 
ATOM     21  S   UNL     1      48.144   6.657  14.005  0.00  0.00    +0.000 S 
ENDBRANCH  14  21
ENDBRANCH  13  17
ENDBRANCH  12  13
ENDBRANCH   1  12
TORSDOF 5
ENDMDL
MODEL 2
REMARK VINA RESULT:    -7.272      1.525      2.054
REMARK INTER + INTRA:         -10.045
REMARK INTER:                  -9.466
REMARK INTRA:                  -0.579
REMARK UNBOUND:                -0.647
REMARK  Name = 
REMARK  6 active torsions:
REMARK  status: ('A' for Active; 'I' for Inactive)
REMARK    1  A    between atoms: C_1  and  S_2
REMARK    2  A    between atoms: S_2  and  C_3
REMARK    3  A    between atoms: C_6  and  C_7
REMARK    4  A    between atoms: C_7  and  O_8
REMARK    5  A    between atoms: O_8  and  C_9
REMARK    6  A    between atoms: C_12  and  C_13
REMARK                            x       y       z     vdW  Elec       q    Type
REMARK                         _______ _______ _______ _____ _____    ______ ____
ROOT
ATOM      1  C   UNL     1      44.556   3.883   9.186  0.00  0.00    +0.000 A 
ATOM      2  C   UNL     1      45.497   4.312   8.253  0.00  0.00    +0.000 A 
ATOM      3  C   UNL     1      46.337   3.378   7.643  0.00  0.00    +0.000 A 
ATOM      4  C   UNL     1      46.204   2.041   7.991  0.00  0.00    +0.000 A 
ATOM      5  N   UNL     1      45.296   1.581   8.894  0.00  0.00    +0.000 NA
ATOM      6  C   UNL     1      44.498   2.519   9.462  0.00  0.00    +0.000 A 
ENDROOT
BRANCH   4   7
ATOM      7  C   UNL     1      47.098   1.022   7.355  0.00  0.00    +0.000 C 
ATOM      8  N   UNL     1      46.793  -0.283   7.636  0.00  0.00    +0.000 N 
ATOM      9  O   UNL     1      48.042   1.326   6.637  0.00  0.00    +0.000 OA
ATOM     10  H   UNL     1      46.006  -0.493   8.239  0.00  0.00    +0.000 HD
ATOM     11  H   UNL     1      47.358  -1.022   7.247  0.00  0.00    +0.000 HD
ENDBRANCH   4   7
BRANCH   1  12
ATOM     12  O   UNL     1      43.671   4.672   9.863  0.00  0.00    +0.000 OA
BRANCH  12  13
ATOM     13  C   UNL     1      43.688   4.577  11.289  0.00  0.00    +0.000 C 
BRANCH  13  17
ATOM     14  C   UNL     1      47.224   6.339  13.060  0.00  0.00    +0.000 A 
ATOM     15  C   UNL     1      46.514   7.035  12.081  0.00  0.00    +0.000 A 
ATOM     16  C   UNL     1      45.379   6.469  11.492  0.00  0.00    +0.000 A 
ATOM     17  C   UNL     1      44.952   5.186  11.856  0.00  0.00    +0.000 A 
ATOM     18  C   UNL     1      45.680   4.486  12.830  0.00  0.00    +0.000 A 
ATOM     19  C   UNL     1      46.812   5.055  13.420  0.00  0.00    +0.000 A 
BRANCH  14  21
ATOM     20  C   UNL     1      47.958   8.694  14.249  0.00  0.00    +0.000 C 
ATOM     21  S   UNL     1      48.645   7.062  13.859  0.00  0.00    +0.000 S 
ENDBRANCH  14  21
ENDBRANCH  13  17
ENDBRANCH  12  13
ENDBRANCH   1  12
TORSDOF 5
ENDMDL
MODEL 3
REMARK VINA RESULT:    -7.163      3.805      6.502
REMARK INTER + INTRA:          -9.903
REMARK INTER:                  -9.386
REMARK INTRA:                  -0.517
REMARK UNBOUND:                -0.647
REMARK  Name = 
REMARK  6 active torsions:
REMARK  status: ('A' for Active; 'I' for Inactive)
REMARK    1  A    between atoms: C_1  and  S_2
REMARK    2  A    between atoms: S_2  and  C_3
REMARK    3  A    between atoms: C_6  and  C_7
REMARK    4  A    between atoms: C_7  and  O_8
REMARK    5  A    between atoms: O_8  and  C_9
REMARK    6  A    between atoms: C_12  and  C_13
REMARK                            x       y       z     vdW  Elec       q    Type
REMARK                         _______ _______ _______ _____ _____    ______ ____
ROOT
ATOM      1  C   UNL     1      45.317   5.534  11.988  0.00  0.00    +0.000 A 
ATOM      2  C   UNL     1      46.578   6.063  12.253  0.00  0.00    +0.000 A 
ATOM      3  C   UNL     1      47.276   5.645  13.387  0.00  0.00    +0.000 A 
ATOM      4  C   UNL     1      46.683   4.708  14.222  0.00  0.00    +0.000 A 
ATOM      5  N   UNL     1      45.456   4.165  13.998  0.00  0.00    +0.000 NA
ATOM      6  C   UNL     1      44.812   4.595  12.885  0.00  0.00    +0.000 A 
ENDROOT
BRANCH   4   7
ATOM      7  C   UNL     1      47.409   4.251  15.449  0.00  0.00    +0.000 C 
ATOM      8  N   UNL     1      47.485   5.169  16.462  0.00  0.00    +0.000 N 
ATOM      9  O   UNL     1      47.907   3.137  15.546  0.00  0.00    +0.000 OA
ATOM     10  H   UNL     1      47.064   6.082  16.340  0.00  0.00    +0.000 HD
ATOM     11  H   UNL     1      47.966   4.930  17.316  0.00  0.00    +0.000 HD
ENDBRANCH   4   7
BRANCH   1  12
ATOM     12  O   UNL     1      44.517   5.842  10.926  0.00  0.00    +0.000 OA
BRANCH  12  13
ATOM     13  C   UNL     1      43.771   4.766  10.352  0.00  0.00    +0.000 C 
BRANCH  13  17
ATOM     14  C   UNL     1      46.343   2.380   7.815  0.00  0.00    +0.000 A 
ATOM     15  C   UNL     1      46.326   3.769   7.681  0.00  0.00    +0.000 A 
ATOM     16  C   UNL     1      45.489   4.548   8.485  0.00  0.00    +0.000 A 
ATOM     17  C   UNL     1      44.635   3.946   9.419  0.00  0.00    +0.000 A 
ATOM     18  C   UNL     1      44.647   2.548   9.537  0.00  0.00    +0.000 A 
ATOM     19  C   UNL     1      45.488   1.771   8.735  0.00  0.00    +0.000 A 
BRANCH  14  21
ATOM     20  C   UNL     1      47.593   2.444   5.379  0.00  0.00    +0.000 C 
ATOM     21  S   UNL     1      47.439   1.371   6.834  0.00  0.00    +0.000 S 
ENDBRANCH  14  21
ENDBRANCH  13  17
ENDBRANCH  12  13
ENDBRANCH   1  12
TORSDOF 5
ENDMDL
MODEL 4
REMARK VINA RESULT:    -6.511      3.686      6.107
REMARK INTER + INTRA:          -9.061
REMARK INTER:                  -8.446
REMARK INTRA:                  -0.615
REMARK UNBOUND:                -0.647
REMARK  Name = 
REMARK  6 active torsions:
REMARK  status: ('A' for Active; 'I' for Inactive)
REMARK    1  A    between atoms: C_1  and  S_2
REMARK    2  A    between atoms: S_2  and  C_3
REMARK    3  A    between atoms: C_6  and  C_7
REMARK    4  A    between atoms: C_7  and  O_8
REMARK    5  A    between atoms: O_8  and  C_9
REMARK    6  A    between atoms: C_12  and  C_13
REMARK                            x       y       z     vdW  Elec       q    Type
REMARK                         _______ _______ _______ _____ _____    ______ ____
ROOT
ATOM      1  C   UNL     1      44.874   4.903  12.478  0.00  0.00    +0.000 A 
ATOM      2  C   UNL     1      45.795   4.092  13.138  0.00  0.00    +0.000 A 
ATOM      3  C   UNL     1      46.966   4.654  13.648  0.00  0.00    +0.000 A 
ATOM      4  C   UNL     1      47.177   6.015  13.477  0.00  0.00    +0.000 A 
ATOM      5  N   UNL     1      46.302   6.842  12.842  0.00  0.00    +0.000 NA
ATOM      6  C   UNL     1      45.176   6.258  12.364  0.00  0.00    +0.000 A 
ENDROOT
BRANCH   4   7
ATOM      7  C   UNL     1      48.429   6.640  14.008  0.00  0.00    +0.000 C 
ATOM      8  N   UNL     1      49.372   6.957  13.067  0.00  0.00    +0.000 N 
ATOM      9  O   UNL     1      48.609   6.851  15.201  0.00  0.00    +0.000 OA
ATOM     10  H   UNL     1      49.186   6.762  12.090  0.00  0.00    +0.000 HD
ATOM     11  H   UNL     1      50.243   7.375  13.355  0.00  0.00    +0.000 HD
ENDBRANCH   4   7
BRANCH   1  12
ATOM     12  O   UNL     1      43.691   4.501  11.928  0.00  0.00    +0.000 OA
BRANCH  12  13
ATOM     13  C   UNL     1      43.509   4.764  10.535  0.00  0.00    +0.000 C 
BRANCH  13  17
ATOM     14  C   UNL     1      46.116   2.407   8.006  0.00  0.00    +0.000 A 
ATOM     15  C   UNL     1      45.277   1.775   8.925  0.00  0.00    +0.000 A 
ATOM     16  C   UNL     1      44.442   2.527   9.757  0.00  0.00    +0.000 A 
ATOM     17  C   UNL     1      44.452   3.926   9.699  0.00  0.00    +0.000 A 
ATOM     18  C   UNL     1      45.309   4.556   8.783  0.00  0.00    +0.000 A 
ATOM     19  C   UNL     1      46.141   3.802   7.950  0.00  0.00    +0.000 A 
BRANCH  14  21
ATOM     20  C   UNL     1      47.363   2.695   5.585  0.00  0.00    +0.000 C 
ATOM     21  S   UNL     1      47.153   1.466   6.902  0.00  0.00    +0.000 S 
ENDBRANCH  14  21
ENDBRANCH  13  17
ENDBRANCH  12  13
ENDBRANCH   1  12
TORSDOF 5
ENDMDL
MODEL 5
REMARK VINA RESULT:    -5.660      4.576      6.355
REMARK INTER + INTRA:          -7.962
REMARK INTER:                  -7.607
REMARK INTRA:                  -0.355
REMARK UNBOUND:                -0.647
REMARK  Name = 
REMARK  6 active torsions:
REMARK  status: ('A' for Active; 'I' for Inactive)
REMARK    1  A    between atoms: C_1  and  S_2
REMARK    2  A    between atoms: S_2  and  C_3
REMARK    3  A    between atoms: C_6  and  C_7
REMARK    4  A    between atoms: C_7  and  O_8
REMARK    5  A    between atoms: O_8  and  C_9
REMARK    6  A    between atoms: C_12  and  C_13
REMARK                            x       y       z     vdW  Elec       q    Type
REMARK                         _______ _______ _______ _____ _____    ______ ____
ROOT
ATOM      1  C   UNL     1      46.803   4.898  13.958  0.00  0.00    +0.000 A 
ATOM      2  C   UNL     1      46.150   5.927  13.281  0.00  0.00    +0.000 A 
ATOM      3  C   UNL     1      45.211   5.616  12.296  0.00  0.00    +0.000 A 
ATOM      4  C   UNL     1      44.956   4.279  12.022  0.00  0.00    +0.000 A 
ATOM      5  N   UNL     1      45.569   3.246  12.662  0.00  0.00    +0.000 NA
ATOM      6  C   UNL     1      46.472   3.590  13.612  0.00  0.00    +0.000 A 
ENDROOT
BRANCH   4   7
ATOM      7  C   UNL     1      43.959   3.921  10.965  0.00  0.00    +0.000 C 
ATOM      8  N   UNL     1      43.825   4.832   9.952  0.00  0.00    +0.000 N 
ATOM      9  O   UNL     1      43.301   2.889  10.999  0.00  0.00    +0.000 OA
ATOM     10  H   UNL     1      44.384   5.676   9.962  0.00  0.00    +0.000 HD
ATOM     11  H   UNL     1      43.165   4.658   9.209  0.00  0.00    +0.000 HD
ENDBRANCH   4   7
BRANCH   1  12
ATOM     12  O   UNL     1      47.740   5.044  14.939  0.00  0.00    +0.000 OA
BRANCH  12  13
ATOM     13  C   UNL     1      47.512   4.326  16.154  0.00  0.00    +0.000 C 
BRANCH  13  17
ATOM     14  C   UNL     1      51.301   2.811  17.603  0.00  0.00    +0.000 A 
ATOM     15  C   UNL     1      50.332   1.926  17.126  0.00  0.00    +0.000 A 
ATOM     16  C   UNL     1      49.100   2.404  16.669  0.00  0.00    +0.000 A 
ATOM     17  C   UNL     1      48.807   3.773  16.707  0.00  0.00    +0.000 A 
ATOM     18  C   UNL     1      49.781   4.655  17.202  0.00  0.00    +0.000 A 
ATOM     19  C   UNL     1      51.013   4.176  17.655  0.00  0.00    +0.000 A 
BRANCH  14  21
ATOM     20  C   UNL     1      53.219   3.443  19.451  0.00  0.00    +0.000 C 
ATOM     21  S   UNL     1      52.896   2.228  18.144  0.00  0.00    +0.000 S 
ENDBRANCH  14  21
ENDBRANCH  13  17
ENDBRANCH  12  13
ENDBRANCH   1  12
TORSDOF 5
ENDMDL
MODEL 6
REMARK VINA RESULT:    -5.494      1.993      2.708
REMARK INTER + INTRA:          -7.746
REMARK INTER:                  -7.175
REMARK INTRA:                  -0.571
REMARK UNBOUND:                -0.647
REMARK  Name = 
REMARK  6 active torsions:
REMARK  status: ('A' for Active; 'I' for Inactive)
REMARK    1  A    between atoms: C_1  and  S_2
REMARK    2  A    between atoms: S_2  and  C_3
REMARK    3  A    between atoms: C_6  and  C_7
REMARK    4  A    between atoms: C_7  and  O_8
REMARK    5  A    between atoms: O_8  and  C_9
REMARK    6  A    between atoms: C_12  and  C_13
REMARK                            x       y       z     vdW  Elec       q    Type
REMARK                         _______ _______ _______ _____ _____    ______ ____
ROOT
ATOM      1  C   UNL     1      44.660   4.516  10.833  0.00  0.00    +0.000 A 
ATOM      2  C   UNL     1      45.239   5.250   9.800  0.00  0.00    +0.000 A 
ATOM      3  C   UNL     1      45.758   4.583   8.689  0.00  0.00    +0.000 A 
ATOM      4  C   UNL     1      45.679   3.198   8.651  0.00  0.00    +0.000 A 
ATOM      5  N   UNL     1      45.119   2.445   9.636  0.00  0.00    +0.000 NA
ATOM      6  C   UNL     1      44.625   3.130  10.697  0.00  0.00    +0.000 A 
ENDROOT
BRANCH   4   7
ATOM      7  C   UNL     1      46.235   2.460   7.473  0.00  0.00    +0.000 C 
ATOM      8  N   UNL     1      46.678   1.190   7.731  0.00  0.00    +0.000 N 
ATOM      9  O   UNL     1      46.298   2.952   6.354  0.00  0.00    +0.000 OA
ATOM     10  H   UNL     1      46.612   0.821   8.672  0.00  0.00    +0.000 HD
ATOM     11  H   UNL     1      47.072   0.638   6.985  0.00  0.00    +0.000 HD
ENDBRANCH   4   7
BRANCH   1  12
ATOM     12  O   UNL     1      44.113   5.022  11.977  0.00  0.00    +0.000 OA
BRANCH  12  13
ATOM     13  C   UNL     1      44.968   5.087  13.121  0.00  0.00    +0.000 C 
BRANCH  13  17
ATOM     14  C   UNL     1      47.904   8.205  12.489  0.00  0.00    +0.000 A 
ATOM     15  C   UNL     1      48.317   6.885  12.675  0.00  0.00    +0.000 A 
ATOM     16  C   UNL     1      47.378   5.873  12.894  0.00  0.00    +0.000 A 
ATOM     17  C   UNL     1      46.011   6.170  12.957  0.00  0.00    +0.000 A 
ATOM     18  C   UNL     1      45.604   7.502  12.784  0.00  0.00    +0.000 A 
ATOM     19  C   UNL     1      46.544   8.512  12.561  0.00  0.00    +0.000 A 
BRANCH  14  21
ATOM     20  C   UNL     1      47.944  10.769  11.529  0.00  0.00    +0.000 C 
ATOM     21  S   UNL     1      49.080   9.503  12.159  0.00  0.00    +0.000 S 
ENDBRANCH  14  21
ENDBRANCH  13  17
ENDBRANCH  12  13
ENDBRANCH   1  12
TORSDOF 5
ENDMDL
MODEL 7
REMARK VINA RESULT:    -5.141      6.032      8.106
REMARK INTER + INTRA:          -7.290
REMARK INTER:                  -6.883
REMARK INTRA:                  -0.407
REMARK UNBOUND:                -0.647
REMARK  Name = 
REMARK  6 active torsions:
REMARK  status: ('A' for Active; 'I' for Inactive)
REMARK    1  A    between atoms: C_1  and  S_2
REMARK    2  A    between atoms: S_2  and  C_3
REMARK    3  A    between atoms: C_6  and  C_7
REMARK    4  A    between atoms: C_7  and  O_8
REMARK    5  A    between atoms: O_8  and  C_9
REMARK    6  A    between atoms: C_12  and  C_13
REMARK                            x       y       z     vdW  Elec       q    Type
REMARK                         _______ _______ _______ _____ _____    ______ ____
ROOT
ATOM      1  C   UNL     1      48.766   4.183  16.671  0.00  0.00    +0.000 A 
ATOM      2  C   UNL     1      48.577   2.802  16.651  0.00  0.00    +0.000 A 
ATOM      3  C   UNL     1      49.633   1.957  17.000  0.00  0.00    +0.000 A 
ATOM      4  C   UNL     1      50.847   2.527  17.358  0.00  0.00    +0.000 A 
ATOM      5  N   UNL     1      51.071   3.869  17.393  0.00  0.00    +0.000 NA
ATOM      6  C   UNL     1      50.021   4.654  17.050  0.00  0.00    +0.000 A 
ENDROOT
BRANCH   4   7
ATOM      7  C   UNL     1      51.995   1.641  17.728  0.00  0.00    +0.000 C 
ATOM      8  N   UNL     1      51.662   0.355  18.058  0.00  0.00    +0.000 N 
ATOM      9  O   UNL     1      53.155   2.033  17.743  0.00  0.00    +0.000 OA
ATOM     10  H   UNL     1      50.690   0.071  18.039  0.00  0.00    +0.000 HD
ATOM     11  H   UNL     1      52.386  -0.295  18.325  0.00  0.00    +0.000 HD
ENDBRANCH   4   7
BRANCH   1  12
ATOM     12  O   UNL     1      47.836   5.131  16.358  0.00  0.00    +0.000 OA
BRANCH  12  13
ATOM     13  C   UNL     1      48.137   5.982  15.249  0.00  0.00    +0.000 C 
BRANCH  13  17
ATOM     14  C   UNL     1      45.587   5.091  11.866  0.00  0.00    +0.000 A 
ATOM     15  C   UNL     1      45.727   4.162  12.897  0.00  0.00    +0.000 A 
ATOM     16  C   UNL     1      46.559   4.433  13.988  0.00  0.00    +0.000 A 
ATOM     17  C   UNL     1      47.285   5.629  14.050  0.00  0.00    +0.000 A 
ATOM     18  C   UNL     1      47.151   6.553  13.001  0.00  0.00    +0.000 A 
ATOM     19  C   UNL     1      46.316   6.281  11.914  0.00  0.00    +0.000 A 
BRANCH  14  21
ATOM     20  C   UNL     1      43.075   4.108  11.394  0.00  0.00    +0.000 C 
ATOM     21  S   UNL     1      44.494   4.787  10.491  0.00  0.00    +0.000 S 
ENDBRANCH  14  21
ENDBRANCH  13  17
ENDBRANCH  12  13
ENDBRANCH   1  12
TORSDOF 5
ENDMDL
MODEL 8
REMARK VINA RESULT:    -5.140      3.408      5.660
REMARK INTER + INTRA:          -7.289
REMARK INTER:                  -6.801
REMARK INTRA:                  -0.487
REMARK UNBOUND:                -0.647
REMARK  Name = 
REMARK  6 active torsions:
REMARK  status: ('A' for Active; 'I' for Inactive)
REMARK    1  A    between atoms: C_1  and  S_2
REMARK    2  A    between atoms: S_2  and  C_3
REMARK    3  A    between atoms: C_6  and  C_7
REMARK    4  A    between atoms: C_7  and  O_8
REMARK    5  A    between atoms: O_8  and  C_9
REMARK    6  A    between atoms: C_12  and  C_13
REMARK                            x       y       z     vdW  Elec       q    Type
REMARK                         _______ _______ _______ _____ _____    ______ ____
ROOT
ATOM      1  C   UNL     1      46.700   5.558  13.112  0.00  0.00    +0.000 A 
ATOM      2  C   UNL     1      46.030   5.994  11.970  0.00  0.00    +0.000 A 
ATOM      3  C   UNL     1      45.172   5.121  11.300  0.00  0.00    +0.000 A 
ATOM      4  C   UNL     1      45.014   3.834  11.797  0.00  0.00    +0.000 A 
ATOM      5  N   UNL     1      45.647   3.371  12.909  0.00  0.00    +0.000 NA
ATOM      6  C   UNL     1      46.469   4.251  13.533  0.00  0.00    +0.000 A 
ENDROOT
BRANCH   4   7
ATOM      7  C   UNL     1      44.106   2.877  11.090  0.00  0.00    +0.000 C 
ATOM      8  N   UNL     1      44.631   2.286   9.973  0.00  0.00    +0.000 N 
ATOM      9  O   UNL     1      42.969   2.637  11.476  0.00  0.00    +0.000 OA
ATOM     10  H   UNL     1      45.574   2.515   9.684  0.00  0.00    +0.000 HD
ATOM     11  H   UNL     1      44.071   1.635   9.443  0.00  0.00    +0.000 HD
ENDBRANCH   4   7
BRANCH   1  12
ATOM     12  O   UNL     1      47.566   6.291  13.870  0.00  0.00    +0.000 OA
BRANCH  12  13
ATOM     13  C   UNL     1      47.703   7.673  13.531  0.00  0.00    +0.000 C 
BRANCH  13  17
ATOM     14  C   UNL     1      51.693   8.342  11.990  0.00  0.00    +0.000 A 
ATOM     15  C   UNL     1      51.420   8.565  13.340  0.00  0.00    +0.000 A 
ATOM     16  C   UNL     1      50.132   8.366  13.846  0.00  0.00    +0.000 A 
ATOM     17  C   UNL     1      49.089   7.965  13.001  0.00  0.00    +0.000 A 
ATOM     18  C   UNL     1      49.367   7.758  11.641  0.00  0.00    +0.000 A 
ATOM     19  C   UNL     1      50.656   7.954  11.138  0.00  0.00    +0.000 A 
BRANCH  14  21
ATOM     20  C   UNL     1      52.943   8.574   9.565  0.00  0.00    +0.000 C 
ATOM     21  S   UNL     1      53.338   8.542  11.334  0.00  0.00    +0.000 S 
ENDBRANCH  14  21
ENDBRANCH  13  17
ENDBRANCH  12  13
ENDBRANCH   1  12
TORSDOF 5
ENDMDL
MODEL 9
REMARK VINA RESULT:    -5.068      4.327      6.400
REMARK INTER + INTRA:          -7.196
REMARK INTER:                  -6.790
REMARK INTRA:                  -0.406
REMARK UNBOUND:                -0.647
REMARK  Name = 
REMARK  6 active torsions:
REMARK  status: ('A' for Active; 'I' for Inactive)
REMARK    1  A    between atoms: C_1  and  S_2
REMARK    2  A    between atoms: S_2  and  C_3
REMARK    3  A    between atoms: C_6  and  C_7
REMARK    4  A    between atoms: C_7  and  O_8
REMARK    5  A    between atoms: O_8  and  C_9
REMARK    6  A    between atoms: C_12  and  C_13
REMARK                            x       y       z     vdW  Elec       q    Type
REMARK                         _______ _______ _______ _____ _____    ______ ____
ROOT
ATOM      1  C   UNL     1      47.051   5.328  13.203  0.00  0.00    +0.000 A 
ATOM      2  C   UNL     1      46.381   6.181  12.328  0.00  0.00    +0.000 A 
ATOM      3  C   UNL     1      45.129   5.812  11.831  0.00  0.00    +0.000 A 
ATOM      4  C   UNL     1      44.590   4.596  12.229  0.00  0.00    +0.000 A 
ATOM      5  N   UNL     1      45.211   3.737  13.083  0.00  0.00    +0.000 NA
ATOM      6  C   UNL     1      46.422   4.133  13.545  0.00  0.00    +0.000 A 
ENDROOT
BRANCH   4   7
ATOM      7  C   UNL     1      43.253   4.176  11.703  0.00  0.00    +0.000 C 
ATOM      8  N   UNL     1      42.275   5.132  11.756  0.00  0.00    +0.000 N 
ATOM      9  O   UNL     1      43.040   3.055  11.259  0.00  0.00    +0.000 OA
ATOM     10  H   UNL     1      42.491   6.046  12.136  0.00  0.00    +0.000 HD
ATOM     11  H   UNL     1      41.347   4.915  11.425  0.00  0.00    +0.000 HD
ENDBRANCH   4   7
BRANCH   1  12
ATOM     12  O   UNL     1      48.274   5.548  13.769  0.00  0.00    +0.000 OA
BRANCH  12  13
ATOM     13  C   UNL     1      48.385   6.682  14.633  0.00  0.00    +0.000 C 
BRANCH  13  17
ATOM     14  C   UNL     1      49.769   5.582  18.585  0.00  0.00    +0.000 A 
ATOM     15  C   UNL     1      50.374   6.638  17.903  0.00  0.00    +0.000 A 
ATOM     16  C   UNL     1      49.945   6.992  16.621  0.00  0.00    +0.000 A 
ATOM     17  C   UNL     1      48.919   6.277  15.990  0.00  0.00    +0.000 A 
ATOM     18  C   UNL     1      48.325   5.207  16.676  0.00  0.00    +0.000 A 
ATOM     19  C   UNL     1      48.753   4.856  17.959  0.00  0.00    +0.000 A 
BRANCH  14  21
ATOM     20  C   UNL     1      48.640   4.750  20.938  0.00  0.00    +0.000 C 
ATOM     21  S   UNL     1      50.267   5.144  20.240  0.00  0.00    +0.000 S 
ENDBRANCH  14  21
ENDBRANCH  13  17
ENDBRANCH  12  13
ENDBRANCH   1  12
TORSDOF 5
ENDMDL
