MODEL 1
REMARK VINA RESULT:    -7.565      0.000      0.000
REMARK INTER + INTRA:         -10.471
REMARK INTER:                  -9.776
REMARK INTRA:                  -0.695
REMARK UNBOUND:                -0.695
REMARK  Name = 
REMARK  7 active torsions:
REMARK  status: ('A' for Active; 'I' for Inactive)
REMARK    1  A    between atoms: C_1  and  C_2
REMARK    2  A    between atoms: C_2  and  C_3
REMARK    3  A    between atoms: C_2  and  N_4
REMARK    4  A    between atoms: C_5  and  C_7
REMARK    5  A    between atoms: N_11  and  C_12
REMARK    6  A    between atoms: C_12  and  C_13
REMARK    7  A    between atoms: C_13  and  C_16
REMARK                            x       y       z     vdW  Elec       q    Type
REMARK                         _______ _______ _______ _____ _____    ______ ____
ROOT
ATOM      1  C   UNL     1      46.628   4.391  14.278  0.00  0.00    +0.000 A 
ATOM      2  C   UNL     1      45.986   5.577  13.930  0.00  0.00    +0.000 A 
ATOM      3  C   UNL     1      45.132   5.590  12.825  0.00  0.00    +0.000 A 
ATOM      4  C   UNL     1      44.969   4.439  12.056  0.00  0.00    +0.000 A 
ATOM      5  N   UNL     1      44.132   4.515  10.939  0.00  0.00    +0.000 N 
ATOM      6  N   UNL     1      45.599   3.291  12.367  0.00  0.00    +0.000 NA
ATOM      7  C   UNL     1      46.405   3.287  13.465  0.00  0.00    +0.000 A 
ATOM      8  H   UNL     1      43.168   4.656  11.236  0.00  0.00    +0.000 HD
ENDROOT
BRANCH   1  10
ATOM      9  N   UNL     1      47.741   5.400  16.198  0.00  0.00    +0.000 N 
ATOM     10  C   UNL     1      47.565   4.273  15.421  0.00  0.00    +0.000 C 
ATOM     11  O   UNL     1      48.127   3.205  15.641  0.00  0.00    +0.000 OA
ATOM     12  H   UNL     1      47.085   6.165  16.110  0.00  0.00    +0.000 HD
BRANCH   9  14
ATOM     13  C   UNL     1      50.019   5.852  16.966  0.00  0.00    +0.000 C 
ATOM     14  C   UNL     1      48.617   5.404  17.367  0.00  0.00    +0.000 C 
ATOM     15  C   UNL     1      48.059   6.305  18.467  0.00  0.00    +0.000 C 
ENDBRANCH   9  14
ENDBRANCH   1  10
BRANCH   5  16
ATOM     16  C   UNL     1      44.275   3.431   9.946  0.00  0.00    +0.000 C 
BRANCH  16  17
ATOM     17  C   UNL     1      44.944   3.923   8.634  0.00  0.00    +0.000 C 
ATOM     18  F   UNL     1      43.943   4.290   7.774  0.00  0.00    +0.000 F 
ATOM     19  F   UNL     1      45.625   5.081   8.889  0.00  0.00    +0.000 F 
BRANCH  17  20
ATOM     20  C   UNL     1      45.849   2.874   8.033  0.00  0.00    +0.000 A 
ATOM     21  C   UNL     1      46.763   3.175   7.017  0.00  0.00    +0.000 A 
ATOM     22  C   UNL     1      47.575   2.169   6.501  0.00  0.00    +0.000 A 
ATOM     23  C   UNL     1      47.444   0.891   7.019  0.00  0.00    +0.000 A 
ATOM     24  N   UNL     1      46.571   0.564   7.996  0.00  0.00    +0.000 NA
ATOM     25  C   UNL     1      45.799   1.561   8.483  0.00  0.00    +0.000 A 
ENDBRANCH  17  20
ENDBRANCH  16  17
ENDBRANCH   5  16
TORSDOF 5
ENDMDL
MODEL 2
REMARK VINA RESULT:    -7.119      2.818      3.156
REMARK INTER + INTRA:          -9.894
REMARK INTER:                  -9.422
REMARK INTRA:                  -0.472
REMARK UNBOUND:                -0.695
REMARK  Name = 
REMARK  7 active torsions:
REMARK  status: ('A' for Active; 'I' for Inactive)
REMARK    1  A    between atoms: C_1  and  C_2
REMARK    2  A    between atoms: C_2  and  C_3
REMARK    3  A    between atoms: C_2  and  N_4
REMARK    4  A    between atoms: C_5  and  C_7
REMARK    5  A    between atoms: N_11  and  C_12
REMARK    6  A    between atoms: C_12  and  C_13
REMARK    7  A    between atoms: C_13  and  C_16
REMARK                            x       y       z     vdW  Elec       q    Type
REMARK                         _______ _______ _______ _____ _____    ______ ____
ROOT
ATOM      1  C   UNL     1      47.008   8.337  13.212  0.00  0.00    +0.000 A 
ATOM      2  C   UNL     1      45.667   8.610  12.955  0.00  0.00    +0.000 A 
ATOM      3  C   UNL     1      44.964   7.792  12.066  0.00  0.00    +0.000 A 
ATOM      4  C   UNL     1      45.618   6.751  11.411  0.00  0.00    +0.000 A 
ATOM      5  N   UNL     1      44.879   5.986  10.503  0.00  0.00    +0.000 N 
ATOM      6  N   UNL     1      46.920   6.488  11.633  0.00  0.00    +0.000 NA
ATOM      7  C   UNL     1      47.582   7.275  12.525  0.00  0.00    +0.000 A 
ATOM      8  H   UNL     1      44.167   5.451  10.999  0.00  0.00    +0.000 HD
ENDROOT
BRANCH   1  10
ATOM      9  N   UNL     1      47.748   8.869  15.473  0.00  0.00    +0.000 N 
ATOM     10  C   UNL     1      47.848   9.150  14.125  0.00  0.00    +0.000 C 
ATOM     11  O   UNL     1      48.591  10.010  13.666  0.00  0.00    +0.000 OA
ATOM     12  H   UNL     1      47.304   8.008  15.764  0.00  0.00    +0.000 HD
BRANCH   9  14
ATOM     13  C   UNL     1      47.740   9.741  17.758  0.00  0.00    +0.000 C 
ATOM     14  C   UNL     1      48.542   9.581  16.470  0.00  0.00    +0.000 C 
ATOM     15  C   UNL     1      49.857   8.855  16.744  0.00  0.00    +0.000 C 
ENDBRANCH   9  14
ENDBRANCH   1  10
BRANCH   5  16
ATOM     16  C   UNL     1      45.662   5.163   9.560  0.00  0.00    +0.000 C 
BRANCH  16  17
ATOM     17  C   UNL     1      44.857   3.940   9.042  0.00  0.00    +0.000 C 
ATOM     18  F   UNL     1      44.261   3.351  10.125  0.00  0.00    +0.000 F 
ATOM     19  F   UNL     1      43.818   4.384   8.272  0.00  0.00    +0.000 F 
BRANCH  17  20
ATOM     20  C   UNL     1      45.729   2.971   8.281  0.00  0.00    +0.000 A 
ATOM     21  C   UNL     1      46.555   3.382   7.228  0.00  0.00    +0.000 A 
ATOM     22  C   UNL     1      47.341   2.445   6.562  0.00  0.00    +0.000 A 
ATOM     23  C   UNL     1      47.272   1.124   6.972  0.00  0.00    +0.000 A 
ATOM     24  N   UNL     1      46.485   0.690   7.980  0.00  0.00    +0.000 NA
ATOM     25  C   UNL     1      45.737   1.622   8.614  0.00  0.00    +0.000 A 
ENDBRANCH  17  20
ENDBRANCH  16  17
ENDBRANCH   5  16
TORSDOF 5
ENDMDL
MODEL 3
REMARK VINA RESULT:    -7.095      1.777      2.308
REMARK INTER + INTRA:          -9.864
REMARK INTER:                  -9.334
REMARK INTRA:                  -0.531
REMARK UNBOUND:                -0.695
REMARK  Name = 
REMARK  7 active torsions:
REMARK  status: ('A' for Active; 'I' for Inactive)
REMARK    1  A    between atoms: C_1  and  C_2
REMARK    2  A    between atoms: C_2  and  C_3
REMARK    3  A    between atoms: C_2  and  N_4
REMARK    4  A    between atoms: C_5  and  C_7
REMARK    5  A    between atoms: N_11  and  C_12
REMARK    6  A    between atoms: C_12  and  C_13
REMARK    7  A    between atoms: C_13  and  C_16
REMARK                            x       y       z     vdW  Elec       q    Type
REMARK                         _______ _______ _______ _____ _____    ______ ____
ROOT
ATOM      1  C   UNL     1      47.886   5.406  15.446  0.00  0.00    +0.000 A 
ATOM      2  C   UNL     1      47.888   6.359  14.431  0.00  0.00    +0.000 A 
ATOM      3  C   UNL     1      47.100   6.148  13.297  0.00  0.00    +0.000 A 
ATOM      4  C   UNL     1      46.364   4.972  13.169  0.00  0.00    +0.000 A 
ATOM      5  N   UNL     1      45.621   4.793  11.998  0.00  0.00    +0.000 N 
ATOM      6  N   UNL     1      46.368   4.032  14.132  0.00  0.00    +0.000 NA
ATOM      7  C   UNL     1      47.117   4.266  15.245  0.00  0.00    +0.000 A 
ATOM      8  H   UNL     1      44.862   5.471  11.961  0.00  0.00    +0.000 HD
ENDROOT
BRANCH   1  10
ATOM      9  N   UNL     1      48.128   6.219  17.732  0.00  0.00    +0.000 N 
ATOM     10  C   UNL     1      48.696   5.525  16.683  0.00  0.00    +0.000 C 
ATOM     11  O   UNL     1      49.806   5.007  16.736  0.00  0.00    +0.000 OA
ATOM     12  H   UNL     1      47.136   6.416  17.710  0.00  0.00    +0.000 HD
BRANCH   9  14
ATOM     13  C   UNL     1      49.466   7.761  19.079  0.00  0.00    +0.000 C 
ATOM     14  C   UNL     1      48.814   6.384  19.010  0.00  0.00    +0.000 C 
ATOM     15  C   UNL     1      47.849   6.188  20.179  0.00  0.00    +0.000 C 
ENDBRANCH   9  14
ENDBRANCH   1  10
BRANCH   5  16
ATOM     16  C   UNL     1      45.174   3.413  11.719  0.00  0.00    +0.000 C 
BRANCH  16  17
ATOM     17  C   UNL     1      44.336   3.322  10.414  0.00  0.00    +0.000 C 
ATOM     18  F   UNL     1      43.479   2.262  10.548  0.00  0.00    +0.000 F 
ATOM     19  F   UNL     1      43.523   4.418  10.329  0.00  0.00    +0.000 F 
BRANCH  17  20
ATOM     20  C   UNL     1      45.210   3.190   9.190  0.00  0.00    +0.000 A 
ATOM     21  C   UNL     1      45.729   1.957   8.777  0.00  0.00    +0.000 A 
ATOM     22  C   UNL     1      46.527   1.892   7.638  0.00  0.00    +0.000 A 
ATOM     23  C   UNL     1      46.781   3.067   6.949  0.00  0.00    +0.000 A 
ATOM     24  N   UNL     1      46.301   4.273   7.320  0.00  0.00    +0.000 NA
ATOM     25  C   UNL     1      45.523   4.306   8.426  0.00  0.00    +0.000 A 
ENDBRANCH  17  20
ENDBRANCH  16  17
ENDBRANCH   5  16
TORSDOF 5
ENDMDL
MODEL 4
REMARK VINA RESULT:    -6.662      3.983      4.703
REMARK INTER + INTRA:          -9.304
REMARK INTER:                  -8.469
REMARK INTRA:                  -0.835
REMARK UNBOUND:                -0.695
REMARK  Name = 
REMARK  7 active torsions:
REMARK  status: ('A' for Active; 'I' for Inactive)
REMARK    1  A    between atoms: C_1  and  C_2
REMARK    2  A    between atoms: C_2  and  C_3
REMARK    3  A    between atoms: C_2  and  N_4
REMARK    4  A    between atoms: C_5  and  C_7
REMARK    5  A    between atoms: N_11  and  C_12
REMARK    6  A    between atoms: C_12  and  C_13
REMARK    7  A    between atoms: C_13  and  C_16
REMARK                            x       y       z     vdW  Elec       q    Type
REMARK                         _______ _______ _______ _____ _____    ______ ____
ROOT
ATOM      1  C   UNL     1      47.931   8.301  12.116  0.00  0.00    +0.000 A 
ATOM      2  C   UNL     1      46.737   8.989  12.316  0.00  0.00    +0.000 A 
ATOM      3  C   UNL     1      45.570   8.265  12.573  0.00  0.00    +0.000 A 
ATOM      4  C   UNL     1      45.601   6.872  12.578  0.00  0.00    +0.000 A 
ATOM      5  N   UNL     1      44.398   6.195  12.803  0.00  0.00    +0.000 N 
ATOM      6  N   UNL     1      46.744   6.193  12.365  0.00  0.00    +0.000 NA
ATOM      7  C   UNL     1      47.878   6.913  12.146  0.00  0.00    +0.000 A 
ATOM      8  H   UNL     1      44.081   6.358  13.757  0.00  0.00    +0.000 HD
ENDROOT
BRANCH   1  10
ATOM      9  N   UNL     1      50.320   8.153  11.650  0.00  0.00    +0.000 N 
ATOM     10  C   UNL     1      49.222   8.971  11.822  0.00  0.00    +0.000 C 
ATOM     11  O   UNL     1      49.267  10.193  11.732  0.00  0.00    +0.000 OA
ATOM     12  H   UNL     1      50.176   7.162  11.506  0.00  0.00    +0.000 HD
BRANCH   9  14
ATOM     13  C   UNL     1      52.510   8.714  12.585  0.00  0.00    +0.000 C 
ATOM     14  C   UNL     1      51.640   8.689  11.331  0.00  0.00    +0.000 C 
ATOM     15  C   UNL     1      52.311   7.873  10.228  0.00  0.00    +0.000 C 
ENDBRANCH   9  14
ENDBRANCH   1  10
BRANCH   5  16
ATOM     16  C   UNL     1      44.378   4.766  12.428  0.00  0.00    +0.000 C 
BRANCH  16  17
ATOM     17  C   UNL     1      43.560   4.512  11.132  0.00  0.00    +0.000 C 
ATOM     18  F   UNL     1      42.546   3.646  11.449  0.00  0.00    +0.000 F 
ATOM     19  F   UNL     1      42.927   5.670  10.771  0.00  0.00    +0.000 F 
BRANCH  17  20
ATOM     20  C   UNL     1      44.423   3.986  10.012  0.00  0.00    +0.000 A 
ATOM     21  C   UNL     1      44.536   2.617   9.741  0.00  0.00    +0.000 A 
ATOM     22  C   UNL     1      45.345   2.186   8.693  0.00  0.00    +0.000 A 
ATOM     23  C   UNL     1      46.018   3.143   7.950  0.00  0.00    +0.000 A 
ATOM     24  N   UNL     1      45.936   4.470   8.184  0.00  0.00    +0.000 NA
ATOM     25  C   UNL     1      45.138   4.861   9.205  0.00  0.00    +0.000 A 
ENDBRANCH  17  20
ENDBRANCH  16  17
ENDBRANCH   5  16
TORSDOF 5
ENDMDL
MODEL 5
REMARK VINA RESULT:    -6.626      3.805      8.404
REMARK INTER + INTRA:          -9.258
REMARK INTER:                  -8.690
REMARK INTRA:                  -0.568
REMARK UNBOUND:                -0.695
REMARK  Name = 
REMARK  7 active torsions:
REMARK  status: ('A' for Active; 'I' for Inactive)
REMARK    1  A    between atoms: C_1  and  C_2
REMARK    2  A    between atoms: C_2  and  C_3
REMARK    3  A    between atoms: C_2  and  N_4
REMARK    4  A    between atoms: C_5  and  C_7
REMARK    5  A    between atoms: N_11  and  C_12
REMARK    6  A    between atoms: C_12  and  C_13
REMARK    7  A    between atoms: C_13  and  C_16
REMARK                            x       y       z     vdW  Elec       q    Type
REMARK                         _______ _______ _______ _____ _____    ______ ____
ROOT
ATOM      1  C   UNL     1      45.482   4.078  12.173  0.00  0.00    +0.000 A 
ATOM      2  C   UNL     1      45.520   5.435  12.482  0.00  0.00    +0.000 A 
ATOM      3  C   UNL     1      46.226   5.856  13.612  0.00  0.00    +0.000 A 
ATOM      4  C   UNL     1      46.839   4.918  14.441  0.00  0.00    +0.000 A 
ATOM      5  N   UNL     1      47.501   5.389  15.579  0.00  0.00    +0.000 N 
ATOM      6  N   UNL     1      46.792   3.601  14.167  0.00  0.00    +0.000 NA
ATOM      7  C   UNL     1      46.126   3.209  13.046  0.00  0.00    +0.000 A 
ATOM      8  H   UNL     1      48.319   5.930  15.305  0.00  0.00    +0.000 HD
ENDROOT
BRANCH   1  10
ATOM      9  N   UNL     1      45.516   3.057   9.959  0.00  0.00    +0.000 N 
ATOM     10  C   UNL     1      44.749   3.524  11.008  0.00  0.00    +0.000 C 
ATOM     11  O   UNL     1      43.524   3.489  11.019  0.00  0.00    +0.000 OA
ATOM     12  H   UNL     1      46.504   2.900  10.106  0.00  0.00    +0.000 HD
BRANCH   9  14
ATOM     13  C   UNL     1      44.881   3.490   7.637  0.00  0.00    +0.000 C 
ATOM     14  C   UNL     1      44.915   2.465   8.767  0.00  0.00    +0.000 C 
ATOM     15  C   UNL     1      45.675   1.213   8.334  0.00  0.00    +0.000 C 
ENDBRANCH   9  14
ENDBRANCH   1  10
BRANCH   5  16
ATOM     16  C   UNL     1      47.799   4.382  16.618  0.00  0.00    +0.000 C 
BRANCH  16  17
ATOM     17  C   UNL     1      49.051   4.759  17.456  0.00  0.00    +0.000 C 
ATOM     18  F   UNL     1      49.566   5.914  16.929  0.00  0.00    +0.000 F 
ATOM     19  F   UNL     1      48.654   5.101  18.719  0.00  0.00    +0.000 F 
BRANCH  17  20
ATOM     20  C   UNL     1      50.070   3.647  17.482  0.00  0.00    +0.000 A 
ATOM     21  C   UNL     1      51.371   3.841  17.959  0.00  0.00    +0.000 A 
ATOM     22  C   UNL     1      52.271   2.779  17.963  0.00  0.00    +0.000 A 
ATOM     23  C   UNL     1      51.836   1.552  17.486  0.00  0.00    +0.000 A 
ATOM     24  N   UNL     1      50.590   1.328  17.016  0.00  0.00    +0.000 NA
ATOM     25  C   UNL     1      49.736   2.377  17.030  0.00  0.00    +0.000 A 
ENDBRANCH  17  20
ENDBRANCH  16  17
ENDBRANCH   5  16
TORSDOF 5
ENDMDL
MODEL 6
REMARK VINA RESULT:    -6.444      2.292      2.955
REMARK INTER + INTRA:          -9.022
REMARK INTER:                  -8.613
REMARK INTRA:                  -0.409
REMARK UNBOUND:                -0.695
REMARK  Name = 
REMARK  7 active torsions:
REMARK  status: ('A' for Active; 'I' for Inactive)
REMARK    1  A    between atoms: C_1  and  C_2
REMARK    2  A    between atoms: C_2  and  C_3
REMARK    3  A    between atoms: C_2  and  N_4
REMARK    4  A    between atoms: C_5  and  C_7
REMARK    5  A    between atoms: N_11  and  C_12
REMARK    6  A    between atoms: C_12  and  C_13
REMARK    7  A    between atoms: C_13  and  C_16
REMARK                            x       y       z     vdW  Elec       q    Type
REMARK                         _______ _______ _______ _____ _____    ______ ____
ROOT
ATOM      1  C   UNL     1      48.222   6.350  14.784  0.00  0.00    +0.000 A 
ATOM      2  C   UNL     1      47.936   7.171  13.697  0.00  0.00    +0.000 A 
ATOM      3  C   UNL     1      46.946   6.781  12.791  0.00  0.00    +0.000 A 
ATOM      4  C   UNL     1      46.294   5.560  12.954  0.00  0.00    +0.000 A 
ATOM      5  N   UNL     1      45.338   5.200  11.999  0.00  0.00    +0.000 N 
ATOM      6  N   UNL     1      46.575   4.746  13.989  0.00  0.00    +0.000 NA
ATOM      7  C   UNL     1      47.520   5.155  14.880  0.00  0.00    +0.000 A 
ATOM      8  H   UNL     1      44.537   5.826  12.056  0.00  0.00    +0.000 HD
ENDROOT
BRANCH   1  10
ATOM      9  N   UNL     1      50.522   6.959  15.315  0.00  0.00    +0.000 N 
ATOM     10  C   UNL     1      49.262   6.663  15.795  0.00  0.00    +0.000 C 
ATOM     11  O   UNL     1      48.974   6.660  16.986  0.00  0.00    +0.000 OA
ATOM     12  H   UNL     1      50.637   7.171  14.333  0.00  0.00    +0.000 HD
BRANCH   9  14
ATOM     13  C   UNL     1      52.332   6.043  16.682  0.00  0.00    +0.000 C 
ATOM     14  C   UNL     1      51.625   7.308  16.207  0.00  0.00    +0.000 C 
ATOM     15  C   UNL     1      52.612   8.247  15.516  0.00  0.00    +0.000 C 
ENDBRANCH   9  14
ENDBRANCH   1  10
BRANCH   5  16
ATOM     16  C   UNL     1      44.952   3.774  11.975  0.00  0.00    +0.000 C 
BRANCH  16  17
ATOM     17  C   UNL     1      44.119   3.415  10.714  0.00  0.00    +0.000 C 
ATOM     18  F   UNL     1      43.433   2.262  10.989  0.00  0.00    +0.000 F 
ATOM     19  F   UNL     1      43.150   4.362  10.536  0.00  0.00    +0.000 F 
BRANCH  17  20
ATOM     20  C   UNL     1      44.985   3.277   9.485  0.00  0.00    +0.000 A 
ATOM     21  C   UNL     1      45.422   2.031   9.020  0.00  0.00    +0.000 A 
ATOM     22  C   UNL     1      46.217   1.961   7.879  0.00  0.00    +0.000 A 
ATOM     23  C   UNL     1      46.551   3.144   7.241  0.00  0.00    +0.000 A 
ATOM     24  N   UNL     1      46.151   4.363   7.662  0.00  0.00    +0.000 NA
ATOM     25  C   UNL     1      45.375   4.401   8.770  0.00  0.00    +0.000 A 
ENDBRANCH  17  20
ENDBRANCH  16  17
ENDBRANCH   5  16
TORSDOF 5
ENDMDL
MODEL 7
REMARK VINA RESULT:    -6.227      3.933      7.676
REMARK INTER + INTRA:          -8.743
REMARK INTER:                  -8.068
REMARK INTRA:                  -0.675
REMARK UNBOUND:                -0.695
REMARK  Name = 
REMARK  7 active torsions:
REMARK  status: ('A' for Active; 'I' for Inactive)
REMARK    1  A    between atoms: C_1  and  C_2
REMARK    2  A    between atoms: C_2  and  C_3
REMARK    3  A    between atoms: C_2  and  N_4
REMARK    4  A    between atoms: C_5  and  C_7
REMARK    5  A    between atoms: N_11  and  C_12
REMARK    6  A    between atoms: C_12  and  C_13
REMARK    7  A    between atoms: C_13  and  C_16
REMARK                            x       y       z     vdW  Elec       q    Type
REMARK                         _______ _______ _______ _____ _____    ______ ____
ROOT
ATOM      1  C   UNL     1      45.132   3.967   9.868  0.00  0.00    +0.000 A 
ATOM      2  C   UNL     1      44.512   3.717  11.089  0.00  0.00    +0.000 A 
ATOM      3  C   UNL     1      44.429   4.744  12.033  0.00  0.00    +0.000 A 
ATOM      4  C   UNL     1      45.006   5.984  11.766  0.00  0.00    +0.000 A 
ATOM      5  N   UNL     1      44.927   6.966  12.759  0.00  0.00    +0.000 N 
ATOM      6  N   UNL     1      45.627   6.234  10.599  0.00  0.00    +0.000 NA
ATOM      7  C   UNL     1      45.673   5.233   9.678  0.00  0.00    +0.000 A 
ATOM      8  H   UNL     1      43.958   7.255  12.885  0.00  0.00    +0.000 HD
ENDROOT
BRANCH   1  10
ATOM      9  N   UNL     1      46.218   3.211   7.820  0.00  0.00    +0.000 N 
ATOM     10  C   UNL     1      45.288   2.945   8.804  0.00  0.00    +0.000 C 
ATOM     11  O   UNL     1      44.614   1.921   8.840  0.00  0.00    +0.000 OA
ATOM     12  H   UNL     1      46.896   3.946   7.970  0.00  0.00    +0.000 HD
BRANCH   9  14
ATOM     13  C   UNL     1      47.055   3.015   5.530  0.00  0.00    +0.000 C 
ATOM     14  C   UNL     1      46.482   2.272   6.733  0.00  0.00    +0.000 C 
ATOM     15  C   UNL     1      47.435   1.166   7.184  0.00  0.00    +0.000 C 
ENDBRANCH   9  14
ENDBRANCH   1  10
BRANCH   5  16
ATOM     16  C   UNL     1      45.854   8.107  12.618  0.00  0.00    +0.000 C 
BRANCH  16  17
ATOM     17  C   UNL     1      47.126   7.940  13.493  0.00  0.00    +0.000 C 
ATOM     18  F   UNL     1      46.954   8.703  14.618  0.00  0.00    +0.000 F 
ATOM     19  F   UNL     1      47.184   6.653  13.953  0.00  0.00    +0.000 F 
BRANCH  17  20
ATOM     20  C   UNL     1      48.381   8.313  12.743  0.00  0.00    +0.000 A 
ATOM     21  C   UNL     1      49.004   7.433  11.850  0.00  0.00    +0.000 A 
ATOM     22  C   UNL     1      50.159   7.830  11.183  0.00  0.00    +0.000 A 
ATOM     23  C   UNL     1      50.656   9.099  11.434  0.00  0.00    +0.000 A 
ATOM     24  N   UNL     1      50.085   9.972  12.291  0.00  0.00    +0.000 NA
ATOM     25  C   UNL     1      48.961   9.563  12.921  0.00  0.00    +0.000 A 
ENDBRANCH  17  20
ENDBRANCH  16  17
ENDBRANCH   5  16
TORSDOF 5
ENDMDL
MODEL 8
REMARK VINA RESULT:    -6.152      2.442      3.928
REMARK INTER + INTRA:          -8.646
REMARK INTER:                  -8.097
REMARK INTRA:                  -0.549
REMARK UNBOUND:                -0.695
REMARK  Name = 
REMARK  7 active torsions:
REMARK  status: ('A' for Active; 'I' for Inactive)
REMARK    1  A    between atoms: C_1  and  C_2
REMARK    2  A    between atoms: C_2  and  C_3
REMARK    3  A    between atoms: C_2  and  N_4
REMARK    4  A    between atoms: C_5  and  C_7
REMARK    5  A    between atoms: N_11  and  C_12
REMARK    6  A    between atoms: C_12  and  C_13
REMARK    7  A    between atoms: C_13  and  C_16
REMARK                            x       y       z     vdW  Elec       q    Type
REMARK                         _______ _______ _______ _____ _____    ______ ____
ROOT
ATOM      1  C   UNL     1      48.898   5.480  16.766  0.00  0.00    +0.000 A 
ATOM      2  C   UNL     1      48.212   4.290  16.991  0.00  0.00    +0.000 A 
ATOM      3  C   UNL     1      47.350   3.804  16.004  0.00  0.00    +0.000 A 
ATOM      4  C   UNL     1      47.147   4.535  14.835  0.00  0.00    +0.000 A 
ATOM      5  N   UNL     1      46.245   4.024  13.896  0.00  0.00    +0.000 N 
ATOM      6  N   UNL     1      47.787   5.698  14.613  0.00  0.00    +0.000 NA
ATOM      7  C   UNL     1      48.647   6.142  15.571  0.00  0.00    +0.000 A 
ATOM      8  H   UNL     1      46.613   3.163  13.494  0.00  0.00    +0.000 HD
ENDROOT
BRANCH   1  10
ATOM      9  N   UNL     1      49.659   5.715  19.070  0.00  0.00    +0.000 N 
ATOM     10  C   UNL     1      49.824   6.089  17.752  0.00  0.00    +0.000 C 
ATOM     11  O   UNL     1      50.688   6.872  17.374  0.00  0.00    +0.000 OA
ATOM     12  H   UNL     1      49.094   4.903  19.284  0.00  0.00    +0.000 HD
BRANCH   9  14
ATOM     13  C   UNL     1      49.853   7.405  20.828  0.00  0.00    +0.000 C 
ATOM     14  C   UNL     1      50.523   6.225  20.131  0.00  0.00    +0.000 C 
ATOM     15  C   UNL     1      50.860   5.127  21.139  0.00  0.00    +0.000 C 
ENDBRANCH   9  14
ENDBRANCH   1  10
BRANCH   5  16
ATOM     16  C   UNL     1      45.765   4.976  12.874  0.00  0.00    +0.000 C 
BRANCH  16  17
ATOM     17  C   UNL     1      44.482   4.471  12.160  0.00  0.00    +0.000 C 
ATOM     18  F   UNL     1      43.997   3.414  12.885  0.00  0.00    +0.000 F 
ATOM     19  F   UNL     1      43.512   5.431  12.255  0.00  0.00    +0.000 F 
BRANCH  17  20
ATOM     20  C   UNL     1      44.745   4.096  10.722  0.00  0.00    +0.000 A 
ATOM     21  C   UNL     1      44.385   2.847  10.202  0.00  0.00    +0.000 A 
ATOM     22  C   UNL     1      44.649   2.554   8.867  0.00  0.00    +0.000 A 
ATOM     23  C   UNL     1      45.268   3.523   8.094  0.00  0.00    +0.000 A 
ATOM     24  N   UNL     1      45.632   4.736   8.563  0.00  0.00    +0.000 NA
ATOM     25  C   UNL     1      45.358   4.996   9.862  0.00  0.00    +0.000 A 
ENDBRANCH  17  20
ENDBRANCH  16  17
ENDBRANCH   5  16
TORSDOF 5
ENDMDL
MODEL 9
REMARK VINA RESULT:    -6.065      3.993      8.119
REMARK INTER + INTRA:          -8.532
REMARK INTER:                  -7.665
REMARK INTRA:                  -0.867
REMARK UNBOUND:                -0.695
REMARK  Name = 
REMARK  7 active torsions:
REMARK  status: ('A' for Active; 'I' for Inactive)
REMARK    1  A    between atoms: C_1  and  C_2
REMARK    2  A    between atoms: C_2  and  C_3
REMARK    3  A    between atoms: C_2  and  N_4
REMARK    4  A    between atoms: C_5  and  C_7
REMARK    5  A    between atoms: N_11  and  C_12
REMARK    6  A    between atoms: C_12  and  C_13
REMARK    7  A    between atoms: C_13  and  C_16
REMARK                            x       y       z     vdW  Elec       q    Type
REMARK                         _______ _______ _______ _____ _____    ______ ____
ROOT
ATOM      1  C   UNL     1      46.096   6.424  12.518  0.00  0.00    +0.000 A 
ATOM      2  C   UNL     1      46.129   7.764  12.892  0.00  0.00    +0.000 A 
ATOM      3  C   UNL     1      47.181   8.224  13.688  0.00  0.00    +0.000 A 
ATOM      4  C   UNL     1      48.154   7.333  14.139  0.00  0.00    +0.000 A 
ATOM      5  N   UNL     1      49.165   7.836  14.964  0.00  0.00    +0.000 N 
ATOM      6  N   UNL     1      48.123   6.030  13.803  0.00  0.00    +0.000 NA
ATOM      7  C   UNL     1      47.108   5.605  13.002  0.00  0.00    +0.000 A 
ATOM      8  H   UNL     1      49.756   8.477  14.437  0.00  0.00    +0.000 HD
ENDROOT
BRANCH   1  10
ATOM      9  N   UNL     1      45.164   4.505  11.338  0.00  0.00    +0.000 N 
ATOM     10  C   UNL     1      45.018   5.832  11.689  0.00  0.00    +0.000 C 
ATOM     11  O   UNL     1      44.054   6.516  11.364  0.00  0.00    +0.000 OA
ATOM     12  H   UNL     1      45.849   3.941  11.823  0.00  0.00    +0.000 HD
BRANCH   9  14
ATOM     13  C   UNL     1      44.839   2.949   9.479  0.00  0.00    +0.000 C 
ATOM     14  C   UNL     1      44.159   3.801  10.546  0.00  0.00    +0.000 C 
ATOM     15  C   UNL     1      43.268   2.935  11.436  0.00  0.00    +0.000 C 
ENDBRANCH   9  14
ENDBRANCH   1  10
BRANCH   5  16
ATOM     16  C   UNL     1      49.939   6.835  15.725  0.00  0.00    +0.000 C 
BRANCH  16  17
ATOM     17  C   UNL     1      49.327   6.564  17.126  0.00  0.00    +0.000 C 
ATOM     18  F   UNL     1      50.306   6.800  18.055  0.00  0.00    +0.000 F 
ATOM     19  F   UNL     1      48.370   7.505  17.384  0.00  0.00    +0.000 F 
BRANCH  17  20
ATOM     20  C   UNL     1      48.768   5.166  17.238  0.00  0.00    +0.000 A 
ATOM     21  C   UNL     1      49.586   4.053  17.464  0.00  0.00    +0.000 A 
ATOM     22  C   UNL     1      49.017   2.787  17.561  0.00  0.00    +0.000 A 
ATOM     23  C   UNL     1      47.642   2.675  17.428  0.00  0.00    +0.000 A 
ATOM     24  N   UNL     1      46.822   3.725  17.207  0.00  0.00    +0.000 NA
ATOM     25  C   UNL     1      47.402   4.945  17.122  0.00  0.00    +0.000 A 
ENDBRANCH  17  20
ENDBRANCH  16  17
ENDBRANCH   5  16
TORSDOF 5
ENDMDL
