MODEL 1
REMARK VINA RESULT:    -7.870      0.000      0.000
REMARK INTER + INTRA:         -10.219
REMARK INTER:                  -9.710
REMARK INTRA:                  -0.509
REMARK UNBOUND:                -0.509
REMARK  Name = 
REMARK  4 active torsions:
REMARK  status: ('A' for Active; 'I' for Inactive)
REMARK    1  A    between atoms: C_2  and  C_4
REMARK    2  A    between atoms: C_7  and  O_8
REMARK    3  A    between atoms: O_8  and  C_9
REMARK    4  A    between atoms: C_9  and  C_10
REMARK                            x       y       z     vdW  Elec       q    Type
REMARK                         _______ _______ _______ _____ _____    ______ ____
ROOT
ATOM      1  C   UNL     1      46.428   2.615   7.577  0.00  0.00    +0.000 A 
ATOM      2  C   UNL     1      45.875   1.570   8.324  0.00  0.00    +0.000 A 
ATOM      3  C   UNL     1      44.885   1.832   9.279  0.00  0.00    +0.000 A 
ATOM      4  C   UNL     1      44.447   3.141   9.491  0.00  0.00    +0.000 A 
ATOM      5  C   UNL     1      44.996   4.182   8.739  0.00  0.00    +0.000 A 
ATOM      6  C   UNL     1      45.994   3.926   7.796  0.00  0.00    +0.000 A 
ENDROOT
BRANCH   1   8
ATOM      7  N   UNL     1      47.435   3.131   5.421  0.00  0.00    +0.000 N 
ATOM      8  C   UNL     1      47.486   2.376   6.561  0.00  0.00    +0.000 C 
ATOM      9  O   UNL     1      48.388   1.570   6.745  0.00  0.00    +0.000 OA
ATOM     10  H   UNL     1      48.221   3.037   4.789  0.00  0.00    +0.000 HD
ATOM     11  H   UNL     1      46.882   3.973   5.357  0.00  0.00    +0.000 HD
ENDBRANCH   1   8
BRANCH   4  12
ATOM     12  O   UNL     1      43.458   3.506  10.361  0.00  0.00    +0.000 OA
BRANCH  12  13
ATOM     13  C   UNL     1      43.603   3.035  11.706  0.00  0.00    +0.000 C 
BRANCH  13  14
ATOM     14  C   UNL     1      44.691   3.800  12.433  0.00  0.00    +0.000 A 
ATOM     15  C   UNL     1      44.618   5.182  12.603  0.00  0.00    +0.000 A 
ATOM     16  C   UNL     1      45.654   5.839  13.263  0.00  0.00    +0.000 A 
ATOM     17  C   UNL     1      46.741   5.107  13.723  0.00  0.00    +0.000 A 
ATOM     18  C   UNL     1      46.749   3.741  13.500  0.00  0.00    +0.000 A 
ATOM     19  N   UNL     1      45.758   3.075  12.866  0.00  0.00    +0.000 NA
ENDBRANCH  13  14
ENDBRANCH  12  13
ENDBRANCH   4  12
TORSDOF 4
ENDMDL
MODEL 2
REMARK VINA RESULT:    -7.247      2.477      5.881
REMARK INTER + INTRA:          -9.451
REMARK INTER:                  -9.022
REMARK INTRA:                  -0.429
REMARK UNBOUND:                -0.509
REMARK  Name = 
REMARK  4 active torsions:
REMARK  status: ('A' for Active; 'I' for Inactive)
REMARK    1  A    between atoms: C_2  and  C_4
REMARK    2  A    between atoms: C_7  and  O_8
REMARK    3  A    between atoms: O_8  and  C_9
REMARK    4  A    between atoms: C_9  and  C_10
REMARK                            x       y       z     vdW  Elec       q    Type
REMARK                         _______ _______ _______ _____ _____    ______ ____
ROOT
ATOM      1  C   UNL     1      46.584   5.578  12.834  0.00  0.00    +0.000 A 
ATOM      2  C   UNL     1      46.046   4.309  13.068  0.00  0.00    +0.000 A 
ATOM      3  C   UNL     1      45.241   3.694  12.101  0.00  0.00    +0.000 A 
ATOM      4  C   UNL     1      44.967   4.351  10.900  0.00  0.00    +0.000 A 
ATOM      5  C   UNL     1      45.509   5.615  10.665  0.00  0.00    +0.000 A 
ATOM      6  C   UNL     1      46.303   6.237  11.633  0.00  0.00    +0.000 A 
ENDROOT
BRANCH   1   8
ATOM      7  N   UNL     1      47.255   7.611  13.994  0.00  0.00    +0.000 N 
ATOM      8  C   UNL     1      47.438   6.264  13.838  0.00  0.00    +0.000 C 
ATOM      9  O   UNL     1      48.242   5.652  14.528  0.00  0.00    +0.000 OA
ATOM     10  H   UNL     1      47.763   8.044  14.755  0.00  0.00    +0.000 HD
ATOM     11  H   UNL     1      46.434   8.087  13.649  0.00  0.00    +0.000 HD
ENDBRANCH   1   8
BRANCH   4  12
ATOM     12  O   UNL     1      44.233   3.829   9.871  0.00  0.00    +0.000 OA
BRANCH  12  13
ATOM     13  C   UNL     1      44.502   2.460   9.542  0.00  0.00    +0.000 C 
BRANCH  13  14
ATOM     14  C   UNL     1      45.532   2.363   8.434  0.00  0.00    +0.000 A 
ATOM     15  C   UNL     1      45.745   3.417   7.546  0.00  0.00    +0.000 A 
ATOM     16  C   UNL     1      46.691   3.269   6.534  0.00  0.00    +0.000 A 
ATOM     17  C   UNL     1      47.389   2.073   6.424  0.00  0.00    +0.000 A 
ATOM     18  C   UNL     1      47.108   1.068   7.332  0.00  0.00    +0.000 A 
ATOM     19  N   UNL     1      46.198   1.182   8.326  0.00  0.00    +0.000 NA
ENDBRANCH  13  14
ENDBRANCH  12  13
ENDBRANCH   4  12
TORSDOF 4
ENDMDL
MODEL 3
REMARK VINA RESULT:    -5.816      2.805      6.262
REMARK INTER + INTRA:          -7.685
REMARK INTER:                  -7.327
REMARK INTRA:                  -0.357
REMARK UNBOUND:                -0.509
REMARK  Name = 
REMARK  4 active torsions:
REMARK  status: ('A' for Active; 'I' for Inactive)
REMARK    1  A    between atoms: C_2  and  C_4
REMARK    2  A    between atoms: C_7  and  O_8
REMARK    3  A    between atoms: O_8  and  C_9
REMARK    4  A    between atoms: C_9  and  C_10
REMARK                            x       y       z     vdW  Elec       q    Type
REMARK                         _______ _______ _______ _____ _____    ______ ____
ROOT
ATOM      1  C   UNL     1      44.986   7.186  11.751  0.00  0.00    +0.000 A 
ATOM      2  C   UNL     1      46.078   6.673  11.042  0.00  0.00    +0.000 A 
ATOM      3  C   UNL     1      46.081   5.338  10.621  0.00  0.00    +0.000 A 
ATOM      4  C   UNL     1      44.995   4.510  10.913  0.00  0.00    +0.000 A 
ATOM      5  C   UNL     1      43.904   5.026  11.614  0.00  0.00    +0.000 A 
ATOM      6  C   UNL     1      43.903   6.354  12.047  0.00  0.00    +0.000 A 
ENDROOT
BRANCH   1   8
ATOM      7  N   UNL     1      44.043   9.427  11.620  0.00  0.00    +0.000 N 
ATOM      8  C   UNL     1      44.950   8.596  12.219  0.00  0.00    +0.000 C 
ATOM      9  O   UNL     1      45.668   8.993  13.126  0.00  0.00    +0.000 OA
ATOM     10  H   UNL     1      43.952  10.352  12.023  0.00  0.00    +0.000 HD
ATOM     11  H   UNL     1      43.268   9.076  11.077  0.00  0.00    +0.000 HD
ENDBRANCH   1   8
BRANCH   4  12
ATOM     12  O   UNL     1      44.872   3.208  10.514  0.00  0.00    +0.000 OA
BRANCH  12  13
ATOM     13  C   UNL     1      44.347   3.004   9.196  0.00  0.00    +0.000 C 
BRANCH  13  14
ATOM     14  C   UNL     1      45.460   2.709   8.210  0.00  0.00    +0.000 A 
ATOM     15  C   UNL     1      46.148   1.496   8.233  0.00  0.00    +0.000 A 
ATOM     16  C   UNL     1      47.174   1.283   7.316  0.00  0.00    +0.000 A 
ATOM     17  C   UNL     1      47.498   2.286   6.411  0.00  0.00    +0.000 A 
ATOM     18  C   UNL     1      46.781   3.468   6.463  0.00  0.00    +0.000 A 
ATOM     19  N   UNL     1      45.779   3.704   7.338  0.00  0.00    +0.000 NA
ENDBRANCH  13  14
ENDBRANCH  12  13
ENDBRANCH   4  12
TORSDOF 4
ENDMDL
MODEL 4
REMARK VINA RESULT:    -5.692      3.252      6.284
REMARK INTER + INTRA:          -7.532
REMARK INTER:                  -7.216
REMARK INTRA:                  -0.315
REMARK UNBOUND:                -0.509
REMARK  Name = 
REMARK  4 active torsions:
REMARK  status: ('A' for Active; 'I' for Inactive)
REMARK    1  A    between atoms: C_2  and  C_4
REMARK    2  A    between atoms: C_7  and  O_8
REMARK    3  A    between atoms: O_8  and  C_9
REMARK    4  A    between atoms: C_9  and  C_10
REMARK                            x       y       z     vdW  Elec       q    Type
REMARK                         _______ _______ _______ _____ _____    ______ ____
ROOT
ATOM      1  C   UNL     1      48.195   6.972  13.287  0.00  0.00    +0.000 A 
ATOM      2  C   UNL     1      47.663   5.940  14.066  0.00  0.00    +0.000 A 
ATOM      3  C   UNL     1      46.573   5.193  13.600  0.00  0.00    +0.000 A 
ATOM      4  C   UNL     1      46.011   5.480  12.355  0.00  0.00    +0.000 A 
ATOM      5  C   UNL     1      46.547   6.506  11.576  0.00  0.00    +0.000 A 
ATOM      6  C   UNL     1      47.625   7.263  12.044  0.00  0.00    +0.000 A 
ENDROOT
BRANCH   1   8
ATOM      7  N   UNL     1      50.573   7.493  13.224  0.00  0.00    +0.000 N 
ATOM      8  C   UNL     1      49.345   7.790  13.751  0.00  0.00    +0.000 C 
ATOM      9  O   UNL     1      49.203   8.715  14.539  0.00  0.00    +0.000 OA
ATOM     10  H   UNL     1      51.325   8.126  13.463  0.00  0.00    +0.000 HD
ATOM     11  H   UNL     1      50.679   6.934  12.389  0.00  0.00    +0.000 HD
ENDBRANCH   1   8
BRANCH   4  12
ATOM     12  O   UNL     1      44.979   4.790  11.783  0.00  0.00    +0.000 OA
BRANCH  12  13
ATOM     13  C   UNL     1      44.639   5.167  10.443  0.00  0.00    +0.000 C 
BRANCH  13  14
ATOM     14  C   UNL     1      45.160   4.150   9.446  0.00  0.00    +0.000 A 
ATOM     15  C   UNL     1      45.039   2.780   9.677  0.00  0.00    +0.000 A 
ATOM     16  C   UNL     1      45.550   1.888   8.738  0.00  0.00    +0.000 A 
ATOM     17  C   UNL     1      46.180   2.380   7.602  0.00  0.00    +0.000 A 
ATOM     18  C   UNL     1      46.276   3.753   7.454  0.00  0.00    +0.000 A 
ATOM     19  N   UNL     1      45.788   4.644   8.346  0.00  0.00    +0.000 NA
ENDBRANCH  13  14
ENDBRANCH  12  13
ENDBRANCH   4  12
TORSDOF 4
ENDMDL
MODEL 5
REMARK VINA RESULT:    -5.609      4.354      5.998
REMARK INTER + INTRA:          -7.430
REMARK INTER:                  -7.087
REMARK INTRA:                  -0.343
REMARK UNBOUND:                -0.509
REMARK  Name = 
REMARK  4 active torsions:
REMARK  status: ('A' for Active; 'I' for Inactive)
REMARK    1  A    between atoms: C_2  and  C_4
REMARK    2  A    between atoms: C_7  and  O_8
REMARK    3  A    between atoms: O_8  and  C_9
REMARK    4  A    between atoms: C_9  and  C_10
REMARK                            x       y       z     vdW  Elec       q    Type
REMARK                         _______ _______ _______ _____ _____    ______ ____
ROOT
ATOM      1  C   UNL     1      44.579   5.578  11.887  0.00  0.00    +0.000 A 
ATOM      2  C   UNL     1      45.309   6.771  11.911  0.00  0.00    +0.000 A 
ATOM      3  C   UNL     1      46.522   6.843  12.606  0.00  0.00    +0.000 A 
ATOM      4  C   UNL     1      47.007   5.722  13.283  0.00  0.00    +0.000 A 
ATOM      5  C   UNL     1      46.281   4.531  13.253  0.00  0.00    +0.000 A 
ATOM      6  C   UNL     1      45.063   4.459  12.572  0.00  0.00    +0.000 A 
ENDROOT
BRANCH   1   8
ATOM      7  N   UNL     1      42.201   6.078  11.735  0.00  0.00    +0.000 N 
ATOM      8  C   UNL     1      43.285   5.466  11.167  0.00  0.00    +0.000 C 
ATOM      9  O   UNL     1      43.192   4.888  10.092  0.00  0.00    +0.000 OA
ATOM     10  H   UNL     1      41.354   6.089  11.181  0.00  0.00    +0.000 HD
ATOM     11  H   UNL     1      42.296   6.777  12.458  0.00  0.00    +0.000 HD
ENDBRANCH   1   8
BRANCH   4  12
ATOM     12  O   UNL     1      48.197   5.666  13.953  0.00  0.00    +0.000 OA
BRANCH  12  13
ATOM     13  C   UNL     1      48.184   6.167  15.296  0.00  0.00    +0.000 C 
BRANCH  13  14
ATOM     14  C   UNL     1      48.327   5.037  16.296  0.00  0.00    +0.000 A 
ATOM     15  C   UNL     1      47.240   4.240  16.652  0.00  0.00    +0.000 A 
ATOM     16  C   UNL     1      47.421   3.226  17.590  0.00  0.00    +0.000 A 
ATOM     17  C   UNL     1      48.674   3.042  18.160  0.00  0.00    +0.000 A 
ATOM     18  C   UNL     1      49.700   3.885  17.768  0.00  0.00    +0.000 A 
ATOM     19  N   UNL     1      49.555   4.875  16.859  0.00  0.00    +0.000 NA
ENDBRANCH  13  14
ENDBRANCH  12  13
ENDBRANCH   4  12
TORSDOF 4
ENDMDL
MODEL 6
REMARK VINA RESULT:    -5.305      3.111      6.806
REMARK INTER + INTRA:          -7.055
REMARK INTER:                  -6.672
REMARK INTRA:                  -0.383
REMARK UNBOUND:                -0.509
REMARK  Name = 
REMARK  4 active torsions:
REMARK  status: ('A' for Active; 'I' for Inactive)
REMARK    1  A    between atoms: C_2  and  C_4
REMARK    2  A    between atoms: C_7  and  O_8
REMARK    3  A    between atoms: O_8  and  C_9
REMARK    4  A    between atoms: C_9  and  C_10
REMARK                            x       y       z     vdW  Elec       q    Type
REMARK                         _______ _______ _______ _____ _____    ______ ____
ROOT
ATOM      1  C   UNL     1      47.797   5.764  14.901  0.00  0.00    +0.000 A 
ATOM      2  C   UNL     1      47.718   6.798  13.963  0.00  0.00    +0.000 A 
ATOM      3  C   UNL     1      46.801   6.725  12.908  0.00  0.00    +0.000 A 
ATOM      4  C   UNL     1      45.962   5.615  12.786  0.00  0.00    +0.000 A 
ATOM      5  C   UNL     1      46.038   4.587  13.727  0.00  0.00    +0.000 A 
ATOM      6  C   UNL     1      46.962   4.650  14.773  0.00  0.00    +0.000 A 
ENDROOT
BRANCH   1   8
ATOM      7  N   UNL     1      49.059   7.032  16.553  0.00  0.00    +0.000 N 
ATOM      8  C   UNL     1      48.762   5.803  16.030  0.00  0.00    +0.000 C 
ATOM      9  O   UNL     1      49.244   4.783  16.503  0.00  0.00    +0.000 OA
ATOM     10  H   UNL     1      49.629   7.035  17.389  0.00  0.00    +0.000 HD
ATOM     11  H   UNL     1      48.487   7.845  16.375  0.00  0.00    +0.000 HD
ENDBRANCH   1   8
BRANCH   4  12
ATOM     12  O   UNL     1      45.002   5.459  11.825  0.00  0.00    +0.000 OA
BRANCH  12  13
ATOM     13  C   UNL     1      45.378   5.844  10.497  0.00  0.00    +0.000 C 
BRANCH  13  14
ATOM     14  C   UNL     1      45.437   4.637   9.581  0.00  0.00    +0.000 A 
ATOM     15  C   UNL     1      44.962   3.391   9.989  0.00  0.00    +0.000 A 
ATOM     16  C   UNL     1      45.057   2.311   9.115  0.00  0.00    +0.000 A 
ATOM     17  C   UNL     1      45.635   2.495   7.865  0.00  0.00    +0.000 A 
ATOM     18  C   UNL     1      46.100   3.757   7.541  0.00  0.00    +0.000 A 
ATOM     19  N   UNL     1      46.019   4.825   8.365  0.00  0.00    +0.000 NA
ENDBRANCH  13  14
ENDBRANCH  12  13
ENDBRANCH   4  12
TORSDOF 4
ENDMDL
MODEL 7
REMARK VINA RESULT:    -5.131      4.525      8.423
REMARK INTER + INTRA:          -6.839
REMARK INTER:                  -6.494
REMARK INTRA:                  -0.346
REMARK UNBOUND:                -0.509
REMARK  Name = 
REMARK  4 active torsions:
REMARK  status: ('A' for Active; 'I' for Inactive)
REMARK    1  A    between atoms: C_2  and  C_4
REMARK    2  A    between atoms: C_7  and  O_8
REMARK    3  A    between atoms: O_8  and  C_9
REMARK    4  A    between atoms: C_9  and  C_10
REMARK                            x       y       z     vdW  Elec       q    Type
REMARK                         _______ _______ _______ _____ _____    ______ ____
ROOT
ATOM      1  C   UNL     1      48.136   4.956  18.203  0.00  0.00    +0.000 A 
ATOM      2  C   UNL     1      48.670   5.988  17.423  0.00  0.00    +0.000 A 
ATOM      3  C   UNL     1      48.490   5.988  16.034  0.00  0.00    +0.000 A 
ATOM      4  C   UNL     1      47.780   4.954  15.421  0.00  0.00    +0.000 A 
ATOM      5  C   UNL     1      47.243   3.929  16.201  0.00  0.00    +0.000 A 
ATOM      6  C   UNL     1      47.432   3.918  17.586  0.00  0.00    +0.000 A 
ENDROOT
BRANCH   1   8
ATOM      7  N   UNL     1      48.490   3.689  20.252  0.00  0.00    +0.000 N 
ATOM      8  C   UNL     1      48.313   4.919  19.677  0.00  0.00    +0.000 C 
ATOM      9  O   UNL     1      48.339   5.940  20.351  0.00  0.00    +0.000 OA
ATOM     10  H   UNL     1      48.719   3.687  21.238  0.00  0.00    +0.000 HD
ATOM     11  H   UNL     1      48.742   2.875  19.711  0.00  0.00    +0.000 HD
ENDBRANCH   1   8
BRANCH   4  12
ATOM     12  O   UNL     1      47.506   4.877  14.084  0.00  0.00    +0.000 OA
BRANCH  12  13
ATOM     13  C   UNL     1      46.819   3.696  13.653  0.00  0.00    +0.000 C 
BRANCH  13  14
ATOM     14  C   UNL     1      45.631   4.048  12.780  0.00  0.00    +0.000 A 
ATOM     15  C   UNL     1      45.558   5.270  12.112  0.00  0.00    +0.000 A 
ATOM     16  C   UNL     1      44.435   5.552  11.337  0.00  0.00    +0.000 A 
ATOM     17  C   UNL     1      43.410   4.619  11.259  0.00  0.00    +0.000 A 
ATOM     18  C   UNL     1      43.549   3.436  11.965  0.00  0.00    +0.000 A 
ATOM     19  N   UNL     1      44.626   3.133  12.722  0.00  0.00    +0.000 NA
ENDBRANCH  13  14
ENDBRANCH  12  13
ENDBRANCH   4  12
TORSDOF 4
ENDMDL
MODEL 8
REMARK VINA RESULT:    -5.043      4.144      5.976
REMARK INTER + INTRA:          -6.731
REMARK INTER:                  -6.395
REMARK INTRA:                  -0.336
REMARK UNBOUND:                -0.509
REMARK  Name = 
REMARK  4 active torsions:
REMARK  status: ('A' for Active; 'I' for Inactive)
REMARK    1  A    between atoms: C_2  and  C_4
REMARK    2  A    between atoms: C_7  and  O_8
REMARK    3  A    between atoms: O_8  and  C_9
REMARK    4  A    between atoms: C_9  and  C_10
REMARK                            x       y       z     vdW  Elec       q    Type
REMARK                         _______ _______ _______ _____ _____    ______ ____
ROOT
ATOM      1  C   UNL     1      44.940   4.187  11.493  0.00  0.00    +0.000 A 
ATOM      2  C   UNL     1      45.149   5.361  10.762  0.00  0.00    +0.000 A 
ATOM      3  C   UNL     1      45.926   6.397  11.297  0.00  0.00    +0.000 A 
ATOM      4  C   UNL     1      46.491   6.262  12.566  0.00  0.00    +0.000 A 
ATOM      5  C   UNL     1      46.286   5.088  13.292  0.00  0.00    +0.000 A 
ATOM      6  C   UNL     1      45.501   4.058  12.767  0.00  0.00    +0.000 A 
ENDROOT
BRANCH   1   8
ATOM      7  N   UNL     1      44.683   2.287   9.992  0.00  0.00    +0.000 N 
ATOM      8  C   UNL     1      44.117   3.070  10.961  0.00  0.00    +0.000 C 
ATOM      9  O   UNL     1      42.998   2.831  11.393  0.00  0.00    +0.000 OA
ATOM     10  H   UNL     1      44.157   1.466   9.719  0.00  0.00    +0.000 HD
ATOM     11  H   UNL     1      45.677   2.286   9.814  0.00  0.00    +0.000 HD
ENDBRANCH   1   8
BRANCH   4  12
ATOM     12  O   UNL     1      47.300   7.187  13.166  0.00  0.00    +0.000 OA
BRANCH  12  13
ATOM     13  C   UNL     1      47.369   8.467  12.526  0.00  0.00    +0.000 C 
BRANCH  13  14
ATOM     14  C   UNL     1      48.751   8.712  11.953  0.00  0.00    +0.000 A 
ATOM     15  C   UNL     1      49.670   7.673  11.804  0.00  0.00    +0.000 A 
ATOM     16  C   UNL     1      50.933   7.955  11.289  0.00  0.00    +0.000 A 
ATOM     17  C   UNL     1      51.254   9.263  10.951  0.00  0.00    +0.000 A 
ATOM     18  C   UNL     1      50.294  10.242  11.145  0.00  0.00    +0.000 A 
ATOM     19  N   UNL     1      49.060   9.999  11.639  0.00  0.00    +0.000 NA
ENDBRANCH  13  14
ENDBRANCH  12  13
ENDBRANCH   4  12
TORSDOF 4
ENDMDL
MODEL 9
REMARK VINA RESULT:    -4.991      3.292      5.342
REMARK INTER + INTRA:          -6.668
REMARK INTER:                  -6.351
REMARK INTRA:                  -0.317
REMARK UNBOUND:                -0.509
REMARK  Name = 
REMARK  4 active torsions:
REMARK  status: ('A' for Active; 'I' for Inactive)
REMARK    1  A    between atoms: C_2  and  C_4
REMARK    2  A    between atoms: C_7  and  O_8
REMARK    3  A    between atoms: O_8  and  C_9
REMARK    4  A    between atoms: C_9  and  C_10
REMARK                            x       y       z     vdW  Elec       q    Type
REMARK                         _______ _______ _______ _____ _____    ______ ____
ROOT
ATOM      1  C   UNL     1      44.989   4.144  11.458  0.00  0.00    +0.000 A 
ATOM      2  C   UNL     1      45.445   4.007  12.773  0.00  0.00    +0.000 A 
ATOM      3  C   UNL     1      46.236   5.006  13.354  0.00  0.00    +0.000 A 
ATOM      4  C   UNL     1      46.578   6.142  12.618  0.00  0.00    +0.000 A 
ATOM      5  C   UNL     1      46.117   6.280  11.307  0.00  0.00    +0.000 A 
ATOM      6  C   UNL     1      45.338   5.279  10.721  0.00  0.00    +0.000 A 
ENDROOT
BRANCH   1   8
ATOM      7  N   UNL     1      43.382   2.322  11.626  0.00  0.00    +0.000 N 
ATOM      8  C   UNL     1      44.153   3.102  10.808  0.00  0.00    +0.000 C 
ATOM      9  O   UNL     1      44.119   2.968   9.592  0.00  0.00    +0.000 OA
ATOM     10  H   UNL     1      42.737   1.693  11.163  0.00  0.00    +0.000 HD
ATOM     11  H   UNL     1      43.181   2.579  12.581  0.00  0.00    +0.000 HD
ENDBRANCH   1   8
BRANCH   4  12
ATOM     12  O   UNL     1      47.305   7.197  13.096  0.00  0.00    +0.000 OA
BRANCH  12  13
ATOM     13  C   UNL     1      48.631   6.891  13.544  0.00  0.00    +0.000 C 
BRANCH  13  14
ATOM     14  C   UNL     1      48.725   6.977  15.055  0.00  0.00    +0.000 A 
ATOM     15  C   UNL     1      48.688   8.204  15.716  0.00  0.00    +0.000 A 
ATOM     16  C   UNL     1      48.796   8.229  17.104  0.00  0.00    +0.000 A 
ATOM     17  C   UNL     1      48.954   7.035  17.797  0.00  0.00    +0.000 A 
ATOM     18  C   UNL     1      49.000   5.859  17.068  0.00  0.00    +0.000 A 
ATOM     19  N   UNL     1      48.894   5.803  15.721  0.00  0.00    +0.000 NA
ENDBRANCH  13  14
ENDBRANCH  12  13
ENDBRANCH   4  12
TORSDOF 4
ENDMDL
