MODEL 1
REMARK VINA RESULT:    -8.620      0.000      0.000
REMARK INTER + INTRA:         -12.915
REMARK INTER:                 -12.148
REMARK INTRA:                  -0.767
REMARK UNBOUND:                -0.767
REMARK  Name = 
REMARK  8 active torsions:
REMARK  status: ('A' for Active; 'I' for Inactive)
REMARK    1  A    between atoms: C_1  and  O_2
REMARK    2  A    between atoms: O_2  and  C_3
REMARK    3  A    between atoms: C_3  and  C_4
REMARK    4  A    between atoms: C_3  and  C_18
REMARK    5  A    between atoms: C_4  and  N_5
REMARK    6  A    between atoms: C_6  and  C_8
REMARK    7  A    between atoms: C_21  and  O_22
REMARK    8  A    between atoms: O_22  and  C_23
REMARK                            x       y       z     vdW  Elec       q    Type
REMARK                         _______ _______ _______ _____ _____    ______ ____
ROOT
ATOM      1  C   UNL     1      46.047   5.820  13.112  0.00  0.00    +0.000 C 
ENDROOT
BRANCH   1   2
ATOM      2  C   UNL     1      45.688   5.125  11.799  0.00  0.00    +0.000 A 
ATOM      3  C   UNL     1      45.104   3.846  11.841  0.00  0.00    +0.000 A 
ATOM      4  C   UNL     1      44.785   3.153  10.673  0.00  0.00    +0.000 A 
ATOM      5  C   UNL     1      44.982   3.748   9.429  0.00  0.00    +0.000 A 
ATOM      6  C   UNL     1      45.552   5.019   9.363  0.00  0.00    +0.000 A 
ATOM      7  C   UNL     1      45.887   5.707  10.537  0.00  0.00    +0.000 A 
BRANCH   5   8
ATOM      8  O   UNL     1      44.716   3.124   8.232  0.00  0.00    +0.000 OA
BRANCH   8   9
ATOM      9  C   UNL     1      45.789   2.637   7.493  0.00  0.00    +0.000 A 
ATOM     10  C   UNL     1      46.096   3.314   6.323  0.00  0.00    +0.000 A 
ATOM     11  C   UNL     1      47.179   2.867   5.570  0.00  0.00    +0.000 A 
ATOM     12  C   UNL     1      47.908   1.767   6.008  0.00  0.00    +0.000 A 
ATOM     13  C   UNL     1      47.510   1.139   7.176  0.00  0.00    +0.000 A 
ATOM     14  N   UNL     1      46.458   1.539   7.917  0.00  0.00    +0.000 NA
ENDBRANCH   8   9
ENDBRANCH   5   8
ENDBRANCH   1   2
BRANCH   1  16
ATOM     15  C   UNL     1      45.638   8.189  12.954  0.00  0.00    +0.000 C 
ATOM     16  O   UNL     1      45.115   6.911  13.275  0.00  0.00    +0.000 OA
ENDBRANCH   1  16
BRANCH   1  17
ATOM     17  C   UNL     1      46.050   4.921  14.372  0.00  0.00    +0.000 C 
BRANCH  17  18
ATOM     18  N   UNL     1      47.299   4.980  15.112  0.00  0.00    +0.000 N 
ATOM     19  C   UNL     1      47.464   4.341  16.314  0.00  0.00    +0.000 C 
ATOM     20  O   UNL     1      46.593   3.623  16.798  0.00  0.00    +0.000 OA
ATOM     21  H   UNL     1      47.989   5.652  14.792  0.00  0.00    +0.000 HD
BRANCH  19  22
ATOM     22  C   UNL     1      48.780   4.490  16.942  0.00  0.00    +0.000 A 
ATOM     23  C   UNL     1      49.172   5.711  17.469  0.00  0.00    +0.000 A 
ATOM     24  S   UNL     1      50.686   5.655  18.256  0.00  0.00    +0.000 S 
ATOM     25  C   UNL     1      50.890   4.008  17.869  0.00  0.00    +0.000 A 
ATOM     26  N   UNL     1      51.992   3.318  18.267  0.00  0.00    +0.000 NA
ATOM     27  C   UNL     1      52.018   2.082  17.880  0.00  0.00    +0.000 A 
ATOM     28  N   UNL     1      51.048   1.487  17.115  0.00  0.00    +0.000 N 
ATOM     29  C   UNL     1      49.945   2.161  16.653  0.00  0.00    +0.000 A 
ATOM     30  O   UNL     1      49.142   1.632  15.897  0.00  0.00    +0.000 OA
ATOM     31  C   UNL     1      49.833   3.525  17.124  0.00  0.00    +0.000 A 
ATOM     32  H   UNL     1      51.139   0.529  16.811  0.00  0.00    +0.000 HD
ENDBRANCH  19  22
ENDBRANCH  17  18
ENDBRANCH   1  17
TORSDOF 7
ENDMDL
MODEL 2
REMARK VINA RESULT:    -7.883      1.901      2.534
REMARK INTER + INTRA:         -11.876
REMARK INTER:                 -11.001
REMARK INTRA:                  -0.875
REMARK UNBOUND:                -0.767
REMARK  Name = 
REMARK  8 active torsions:
REMARK  status: ('A' for Active; 'I' for Inactive)
REMARK    1  A    between atoms: C_1  and  O_2
REMARK    2  A    between atoms: O_2  and  C_3
REMARK    3  A    between atoms: C_3  and  C_4
REMARK    4  A    between atoms: C_3  and  C_18
REMARK    5  A    between atoms: C_4  and  N_5
REMARK    6  A    between atoms: C_6  and  C_8
REMARK    7  A    between atoms: C_21  and  O_22
REMARK    8  A    between atoms: O_22  and  C_23
REMARK                            x       y       z     vdW  Elec       q    Type
REMARK                         _______ _______ _______ _____ _____    ______ ____
ROOT
ATOM      1  C   UNL     1      48.428   6.713  14.435  0.00  0.00    +0.000 C 
ENDROOT
BRANCH   1   2
ATOM      2  C   UNL     1      47.402   6.218  13.416  0.00  0.00    +0.000 A 
ATOM      3  C   UNL     1      46.740   5.000  13.650  0.00  0.00    +0.000 A 
ATOM      4  C   UNL     1      45.817   4.486  12.739  0.00  0.00    +0.000 A 
ATOM      5  C   UNL     1      45.480   5.211  11.599  0.00  0.00    +0.000 A 
ATOM      6  C   UNL     1      46.117   6.426  11.350  0.00  0.00    +0.000 A 
ATOM      7  C   UNL     1      47.057   6.933  12.258  0.00  0.00    +0.000 A 
BRANCH   5   8
ATOM      8  O   UNL     1      44.598   4.764  10.641  0.00  0.00    +0.000 OA
BRANCH   8   9
ATOM      9  C   UNL     1      45.080   3.914   9.651  0.00  0.00    +0.000 A 
ATOM     10  C   UNL     1      45.676   4.515   8.552  0.00  0.00    +0.000 A 
ATOM     11  C   UNL     1      46.190   3.693   7.553  0.00  0.00    +0.000 A 
ATOM     12  C   UNL     1      46.087   2.312   7.683  0.00  0.00    +0.000 A 
ATOM     13  C   UNL     1      45.452   1.805   8.804  0.00  0.00    +0.000 A 
ATOM     14  N   UNL     1      44.932   2.575   9.780  0.00  0.00    +0.000 NA
ENDBRANCH   8   9
ENDBRANCH   5   8
ENDBRANCH   1   2
BRANCH   1  16
ATOM     15  C   UNL     1      49.660   8.783  14.487  0.00  0.00    +0.000 C 
ATOM     16  O   UNL     1      48.391   8.156  14.399  0.00  0.00    +0.000 OA
ENDBRANCH   1  16
BRANCH   1  17
ATOM     17  C   UNL     1      48.238   6.205  15.885  0.00  0.00    +0.000 C 
BRANCH  17  18
ATOM     18  N   UNL     1      49.448   5.637  16.454  0.00  0.00    +0.000 N 
ATOM     19  C   UNL     1      49.414   4.744  17.495  0.00  0.00    +0.000 C 
ATOM     20  O   UNL     1      48.359   4.319  17.957  0.00  0.00    +0.000 OA
ATOM     21  H   UNL     1      50.328   6.054  16.168  0.00  0.00    +0.000 HD
BRANCH  19  22
ATOM     22  C   UNL     1      50.715   4.256  17.962  0.00  0.00    +0.000 A 
ATOM     23  C   UNL     1      51.554   5.083  18.693  0.00  0.00    +0.000 A 
ATOM     24  S   UNL     1      52.968   4.300  19.241  0.00  0.00    +0.000 S 
ATOM     25  C   UNL     1      52.529   2.845  18.470  0.00  0.00    +0.000 A 
ATOM     26  N   UNL     1      53.310   1.735  18.555  0.00  0.00    +0.000 NA
ATOM     27  C   UNL     1      52.859   0.713  17.900  0.00  0.00    +0.000 A 
ATOM     28  N   UNL     1      51.708   0.713  17.155  0.00  0.00    +0.000 N 
ATOM     29  C   UNL     1      50.917   1.825  17.006  0.00  0.00    +0.000 A 
ATOM     30  O   UNL     1      49.945   1.825  16.262  0.00  0.00    +0.000 OA
ATOM     31  C   UNL     1      51.339   2.971  17.781  0.00  0.00    +0.000 A 
ATOM     32  H   UNL     1      51.423  -0.103  16.635  0.00  0.00    +0.000 HD
ENDBRANCH  19  22
ENDBRANCH  17  18
ENDBRANCH   1  17
TORSDOF 7
ENDMDL
MODEL 3
REMARK VINA RESULT:    -7.851      2.654      3.252
REMARK INTER + INTRA:         -11.831
REMARK INTER:                 -11.049
REMARK INTRA:                  -0.782
REMARK UNBOUND:                -0.767
REMARK  Name = 
REMARK  8 active torsions:
REMARK  status: ('A' for Active; 'I' for Inactive)
REMARK    1  A    between atoms: C_1  and  O_2
REMARK    2  A    between atoms: O_2  and  C_3
REMARK    3  A    between atoms: C_3  and  C_4
REMARK    4  A    between atoms: C_3  and  C_18
REMARK    5  A    between atoms: C_4  and  N_5
REMARK    6  A    between atoms: C_6  and  C_8
REMARK    7  A    between atoms: C_21  and  O_22
REMARK    8  A    between atoms: O_22  and  C_23
REMARK                            x       y       z     vdW  Elec       q    Type
REMARK                         _______ _______ _______ _____ _____    ______ ____
ROOT
ATOM      1  C   UNL     1      46.043   5.577  13.527  0.00  0.00    +0.000 C 
ENDROOT
BRANCH   1   2
ATOM      2  C   UNL     1      45.692   5.127  12.110  0.00  0.00    +0.000 A 
ATOM      3  C   UNL     1      44.934   3.956  11.933  0.00  0.00    +0.000 A 
ATOM      4  C   UNL     1      44.611   3.483  10.661  0.00  0.00    +0.000 A 
ATOM      5  C   UNL     1      44.981   4.206   9.530  0.00  0.00    +0.000 A 
ATOM      6  C   UNL     1      45.725   5.375   9.681  0.00  0.00    +0.000 A 
ATOM      7  C   UNL     1      46.063   5.840  10.959  0.00  0.00    +0.000 A 
BRANCH   5   8
ATOM      8  O   UNL     1      44.721   3.796   8.242  0.00  0.00    +0.000 OA
BRANCH   8   9
ATOM      9  C   UNL     1      45.734   3.146   7.544  0.00  0.00    +0.000 A 
ATOM     10  C   UNL     1      46.139   1.916   8.040  0.00  0.00    +0.000 A 
ATOM     11  C   UNL     1      47.135   1.227   7.353  0.00  0.00    +0.000 A 
ATOM     12  C   UNL     1      47.689   1.788   6.207  0.00  0.00    +0.000 A 
ATOM     13  C   UNL     1      47.239   3.034   5.804  0.00  0.00    +0.000 A 
ATOM     14  N   UNL     1      46.287   3.731   6.456  0.00  0.00    +0.000 NA
ENDBRANCH   8   9
ENDBRANCH   5   8
ENDBRANCH   1   2
BRANCH   1  16
ATOM     15  C   UNL     1      47.210   3.579  14.197  0.00  0.00    +0.000 C 
ATOM     16  O   UNL     1      46.058   4.391  14.351  0.00  0.00    +0.000 OA
ENDBRANCH   1  16
BRANCH   1  17
ATOM     17  C   UNL     1      47.374   6.355  13.678  0.00  0.00    +0.000 C 
BRANCH  17  18
ATOM     18  N   UNL     1      47.624   6.801  15.038  0.00  0.00    +0.000 N 
ATOM     19  C   UNL     1      48.890   6.869  15.560  0.00  0.00    +0.000 C 
ATOM     20  O   UNL     1      49.889   6.628  14.887  0.00  0.00    +0.000 OA
ATOM     21  H   UNL     1      46.815   6.897  15.644  0.00  0.00    +0.000 HD
BRANCH  19  22
ATOM     22  C   UNL     1      48.985   7.339  16.946  0.00  0.00    +0.000 A 
ATOM     23  C   UNL     1      49.738   8.461  17.256  0.00  0.00    +0.000 A 
ATOM     24  S   UNL     1      49.632   8.914  18.899  0.00  0.00    +0.000 S 
ATOM     25  C   UNL     1      48.620   7.591  19.257  0.00  0.00    +0.000 A 
ATOM     26  N   UNL     1      48.137   7.389  20.512  0.00  0.00    +0.000 NA
ATOM     27  C   UNL     1      47.400   6.331  20.637  0.00  0.00    +0.000 A 
ATOM     28  N   UNL     1      47.123   5.452  19.622  0.00  0.00    +0.000 N 
ATOM     29  C   UNL     1      47.631   5.594  18.354  0.00  0.00    +0.000 A 
ATOM     30  O   UNL     1      47.444   4.747  17.491  0.00  0.00    +0.000 OA
ATOM     31  C   UNL     1      48.398   6.803  18.146  0.00  0.00    +0.000 A 
ATOM     32  H   UNL     1      46.572   4.622  19.786  0.00  0.00    +0.000 HD
ENDBRANCH  19  22
ENDBRANCH  17  18
ENDBRANCH   1  17
TORSDOF 7
ENDMDL
MODEL 4
REMARK VINA RESULT:    -7.330      2.872      3.471
REMARK INTER + INTRA:         -11.097
REMARK INTER:                 -10.043
REMARK INTRA:                  -1.054
REMARK UNBOUND:                -0.767
REMARK  Name = 
REMARK  8 active torsions:
REMARK  status: ('A' for Active; 'I' for Inactive)
REMARK    1  A    between atoms: C_1  and  O_2
REMARK    2  A    between atoms: O_2  and  C_3
REMARK    3  A    between atoms: C_3  and  C_4
REMARK    4  A    between atoms: C_3  and  C_18
REMARK    5  A    between atoms: C_4  and  N_5
REMARK    6  A    between atoms: C_6  and  C_8
REMARK    7  A    between atoms: C_21  and  O_22
REMARK    8  A    between atoms: O_22  and  C_23
REMARK                            x       y       z     vdW  Elec       q    Type
REMARK                         _______ _______ _______ _____ _____    ______ ____
ROOT
ATOM      1  C   UNL     1      46.471   5.798  13.668  0.00  0.00    +0.000 C 
ENDROOT
BRANCH   1   2
ATOM      2  C   UNL     1      45.967   5.162  12.374  0.00  0.00    +0.000 A 
ATOM      3  C   UNL     1      45.440   3.859  12.414  0.00  0.00    +0.000 A 
ATOM      4  C   UNL     1      44.993   3.218  11.258  0.00  0.00    +0.000 A 
ATOM      5  C   UNL     1      45.001   3.889  10.038  0.00  0.00    +0.000 A 
ATOM      6  C   UNL     1      45.511   5.185   9.975  0.00  0.00    +0.000 A 
ATOM      7  C   UNL     1      45.974   5.821  11.134  0.00  0.00    +0.000 A 
BRANCH   5   8
ATOM      8  O   UNL     1      44.600   3.321   8.850  0.00  0.00    +0.000 OA
BRANCH   8   9
ATOM      9  C   UNL     1      45.560   2.678   8.074  0.00  0.00    +0.000 A 
ATOM     10  C   UNL     1      46.000   3.354   6.946  0.00  0.00    +0.000 A 
ATOM     11  C   UNL     1      46.977   2.749   6.159  0.00  0.00    +0.000 A 
ATOM     12  C   UNL     1      47.471   1.500   6.521  0.00  0.00    +0.000 A 
ATOM     13  C   UNL     1      46.950   0.892   7.650  0.00  0.00    +0.000 A 
ATOM     14  N   UNL     1      45.995   1.445   8.423  0.00  0.00    +0.000 NA
ENDBRANCH   8   9
ENDBRANCH   5   8
ENDBRANCH   1   2
BRANCH   1  16
ATOM     15  C   UNL     1      47.144   4.390  15.504  0.00  0.00    +0.000 C 
ATOM     16  O   UNL     1      47.459   4.901  14.219  0.00  0.00    +0.000 OA
ENDBRANCH   1  16
BRANCH   1  17
ATOM     17  C   UNL     1      47.055   7.227  13.534  0.00  0.00    +0.000 C 
BRANCH  17  18
ATOM     18  N   UNL     1      48.497   7.272  13.708  0.00  0.00    +0.000 N 
ATOM     19  C   UNL     1      49.129   8.355  14.263  0.00  0.00    +0.000 C 
ATOM     20  O   UNL     1      48.509   9.316  14.711  0.00  0.00    +0.000 OA
ATOM     21  H   UNL     1      49.036   6.546  13.248  0.00  0.00    +0.000 HD
BRANCH  19  22
ATOM     22  C   UNL     1      50.588   8.256  14.375  0.00  0.00    +0.000 A 
ATOM     23  C   UNL     1      51.408   8.991  13.533  0.00  0.00    +0.000 A 
ATOM     24  S   UNL     1      53.069   8.828  13.894  0.00  0.00    +0.000 S 
ATOM     25  C   UNL     1      52.746   7.724  15.151  0.00  0.00    +0.000 A 
ATOM     26  N   UNL     1      53.747   7.193  15.901  0.00  0.00    +0.000 NA
ATOM     27  C   UNL     1      53.350   6.353  16.805  0.00  0.00    +0.000 A 
ATOM     28  N   UNL     1      52.045   5.988  17.007  0.00  0.00    +0.000 N 
ATOM     29  C   UNL     1      51.011   6.465  16.240  0.00  0.00    +0.000 A 
ATOM     30  O   UNL     1      49.867   6.054  16.381  0.00  0.00    +0.000 OA
ATOM     31  C   UNL     1      51.395   7.465  15.267  0.00  0.00    +0.000 A 
ATOM     32  H   UNL     1      51.797   5.300  17.702  0.00  0.00    +0.000 HD
ENDBRANCH  19  22
ENDBRANCH  17  18
ENDBRANCH   1  17
TORSDOF 7
ENDMDL
MODEL 5
REMARK VINA RESULT:    -7.311      3.802      5.272
REMARK INTER + INTRA:         -11.070
REMARK INTER:                 -10.041
REMARK INTRA:                  -1.028
REMARK UNBOUND:                -0.767
REMARK  Name = 
REMARK  8 active torsions:
REMARK  status: ('A' for Active; 'I' for Inactive)
REMARK    1  A    between atoms: C_1  and  O_2
REMARK    2  A    between atoms: O_2  and  C_3
REMARK    3  A    between atoms: C_3  and  C_4
REMARK    4  A    between atoms: C_3  and  C_18
REMARK    5  A    between atoms: C_4  and  N_5
REMARK    6  A    between atoms: C_6  and  C_8
REMARK    7  A    between atoms: C_21  and  O_22
REMARK    8  A    between atoms: O_22  and  C_23
REMARK                            x       y       z     vdW  Elec       q    Type
REMARK                         _______ _______ _______ _____ _____    ______ ____
ROOT
ATOM      1  C   UNL     1      45.508   5.904  13.035  0.00  0.00    +0.000 C 
ENDROOT
BRANCH   1   2
ATOM      2  C   UNL     1      45.256   5.155  11.728  0.00  0.00    +0.000 A 
ATOM      3  C   UNL     1      44.591   3.916  11.767  0.00  0.00    +0.000 A 
ATOM      4  C   UNL     1      44.362   3.175  10.607  0.00  0.00    +0.000 A 
ATOM      5  C   UNL     1      44.735   3.685   9.366  0.00  0.00    +0.000 A 
ATOM      6  C   UNL     1      45.388   4.915   9.301  0.00  0.00    +0.000 A 
ATOM      7  C   UNL     1      45.632   5.650  10.469  0.00  0.00    +0.000 A 
BRANCH   5   8
ATOM      8  O   UNL     1      44.566   3.008   8.180  0.00  0.00    +0.000 OA
BRANCH   8   9
ATOM      9  C   UNL     1      45.699   2.695   7.436  0.00  0.00    +0.000 A 
ATOM     10  C   UNL     1      46.467   1.634   7.891  0.00  0.00    +0.000 A 
ATOM     11  C   UNL     1      47.597   1.280   7.157  0.00  0.00    +0.000 A 
ATOM     12  C   UNL     1      47.918   1.994   6.008  0.00  0.00    +0.000 A 
ATOM     13  C   UNL     1      47.105   3.055   5.647  0.00  0.00    +0.000 A 
ATOM     14  N   UNL     1      46.014   3.431   6.345  0.00  0.00    +0.000 NA
ENDBRANCH   8   9
ENDBRANCH   5   8
ENDBRANCH   1   2
BRANCH   1  16
ATOM     15  C   UNL     1      46.914   4.690  14.569  0.00  0.00    +0.000 C 
ATOM     16  O   UNL     1      46.848   5.569  13.459  0.00  0.00    +0.000 OA
ENDBRANCH   1  16
BRANCH   1  17
ATOM     17  C   UNL     1      45.330   7.441  12.977  0.00  0.00    +0.000 C 
BRANCH  17  18
ATOM     18  N   UNL     1      46.434   8.119  12.319  0.00  0.00    +0.000 N 
ATOM     19  C   UNL     1      47.285   8.953  13.000  0.00  0.00    +0.000 C 
ATOM     20  O   UNL     1      47.208   9.116  14.214  0.00  0.00    +0.000 OA
ATOM     21  H   UNL     1      46.451   8.089  11.305  0.00  0.00    +0.000 HD
BRANCH  19  22
ATOM     22  C   UNL     1      48.353   9.564  12.203  0.00  0.00    +0.000 A 
ATOM     23  C   UNL     1      48.264  10.890  11.809  0.00  0.00    +0.000 A 
ATOM     24  S   UNL     1      49.654  11.449  10.990  0.00  0.00    +0.000 S 
ATOM     25  C   UNL     1      50.396   9.918  11.088  0.00  0.00    +0.000 A 
ATOM     26  N   UNL     1      51.640   9.701  10.584  0.00  0.00    +0.000 NA
ATOM     27  C   UNL     1      52.064   8.483  10.712  0.00  0.00    +0.000 A 
ATOM     28  N   UNL     1      51.343   7.466  11.281  0.00  0.00    +0.000 N 
ATOM     29  C   UNL     1      50.066   7.632  11.758  0.00  0.00    +0.000 A 
ATOM     30  O   UNL     1      49.411   6.688  12.178  0.00  0.00    +0.000 OA
ATOM     31  C   UNL     1      49.579   8.994  11.707  0.00  0.00    +0.000 A 
ATOM     32  H   UNL     1      51.709   6.526  11.322  0.00  0.00    +0.000 HD
ENDBRANCH  19  22
ENDBRANCH  17  18
ENDBRANCH   1  17
TORSDOF 7
ENDMDL
MODEL 6
REMARK VINA RESULT:    -7.193      3.674      4.779
REMARK INTER + INTRA:         -10.903
REMARK INTER:                  -9.733
REMARK INTRA:                  -1.170
REMARK UNBOUND:                -0.767
REMARK  Name = 
REMARK  8 active torsions:
REMARK  status: ('A' for Active; 'I' for Inactive)
REMARK    1  A    between atoms: C_1  and  O_2
REMARK    2  A    between atoms: O_2  and  C_3
REMARK    3  A    between atoms: C_3  and  C_4
REMARK    4  A    between atoms: C_3  and  C_18
REMARK    5  A    between atoms: C_4  and  N_5
REMARK    6  A    between atoms: C_6  and  C_8
REMARK    7  A    between atoms: C_21  and  O_22
REMARK    8  A    between atoms: O_22  and  C_23
REMARK                            x       y       z     vdW  Elec       q    Type
REMARK                         _______ _______ _______ _____ _____    ______ ____
ROOT
ATOM      1  C   UNL     1      46.252   5.774  13.459  0.00  0.00    +0.000 C 
ENDROOT
BRANCH   1   2
ATOM      2  C   UNL     1      45.813   5.156  12.132  0.00  0.00    +0.000 A 
ATOM      3  C   UNL     1      45.202   3.889  12.138  0.00  0.00    +0.000 A 
ATOM      4  C   UNL     1      44.808   3.265  10.954  0.00  0.00    +0.000 A 
ATOM      5  C   UNL     1      44.956   3.921   9.734  0.00  0.00    +0.000 A 
ATOM      6  C   UNL     1      45.552   5.181   9.705  0.00  0.00    +0.000 A 
ATOM      7  C   UNL     1      45.962   5.799  10.893  0.00  0.00    +0.000 A 
BRANCH   5   8
ATOM      8  O   UNL     1      44.616   3.366   8.522  0.00  0.00    +0.000 OA
BRANCH   8   9
ATOM      9  C   UNL     1      45.639   2.885   7.710  0.00  0.00    +0.000 A 
ATOM     10  C   UNL     1      46.233   1.694   8.101  0.00  0.00    +0.000 A 
ATOM     11  C   UNL     1      47.245   1.172   7.299  0.00  0.00    +0.000 A 
ATOM     12  C   UNL     1      47.628   1.854   6.149  0.00  0.00    +0.000 A 
ATOM     13  C   UNL     1      46.995   3.050   5.856  0.00  0.00    +0.000 A 
ATOM     14  N   UNL     1      46.023   3.587   6.619  0.00  0.00    +0.000 NA
ENDBRANCH   8   9
ENDBRANCH   5   8
ENDBRANCH   1   2
BRANCH   1  16
ATOM     15  C   UNL     1      47.155   4.469  15.272  0.00  0.00    +0.000 C 
ATOM     16  O   UNL     1      47.341   4.966  13.957  0.00  0.00    +0.000 OA
ENDBRANCH   1  16
BRANCH   1  17
ATOM     17  C   UNL     1      46.669   7.264  13.404  0.00  0.00    +0.000 C 
BRANCH  17  18
ATOM     18  N   UNL     1      48.109   7.454  13.369  0.00  0.00    +0.000 N 
ATOM     19  C   UNL     1      48.767   8.204  14.310  0.00  0.00    +0.000 C 
ATOM     20  O   UNL     1      48.188   8.697  15.274  0.00  0.00    +0.000 OA
ATOM     21  H   UNL     1      48.590   7.153  12.527  0.00  0.00    +0.000 HD
BRANCH  19  22
ATOM     22  C   UNL     1      50.220   8.304  14.146  0.00  0.00    +0.000 A 
ATOM     23  C   UNL     1      51.065   8.084  15.223  0.00  0.00    +0.000 A 
ATOM     24  S   UNL     1      52.720   8.133  14.806  0.00  0.00    +0.000 S 
ATOM     25  C   UNL     1      52.359   8.504  13.183  0.00  0.00    +0.000 A 
ATOM     26  N   UNL     1      53.342   8.666  12.258  0.00  0.00    +0.000 NA
ATOM     27  C   UNL     1      52.917   8.966  11.072  0.00  0.00    +0.000 A 
ATOM     28  N   UNL     1      51.598   9.137  10.740  0.00  0.00    +0.000 N 
ATOM     29  C   UNL     1      50.579   9.029  11.654  0.00  0.00    +0.000 A 
ATOM     30  O   UNL     1      49.419   9.277  11.352  0.00  0.00    +0.000 OA
ATOM     31  C   UNL     1      50.999   8.619  12.976  0.00  0.00    +0.000 A 
ATOM     32  H   UNL     1      51.326   9.407   9.806  0.00  0.00    +0.000 HD
ENDBRANCH  19  22
ENDBRANCH  17  18
ENDBRANCH   1  17
TORSDOF 7
ENDMDL
MODEL 7
REMARK VINA RESULT:    -7.066      3.940      5.901
REMARK INTER + INTRA:         -10.724
REMARK INTER:                  -8.804
REMARK INTRA:                  -1.920
REMARK UNBOUND:                -0.767
REMARK  Name = 
REMARK  8 active torsions:
REMARK  status: ('A' for Active; 'I' for Inactive)
REMARK    1  A    between atoms: C_1  and  O_2
REMARK    2  A    between atoms: O_2  and  C_3
REMARK    3  A    between atoms: C_3  and  C_4
REMARK    4  A    between atoms: C_3  and  C_18
REMARK    5  A    between atoms: C_4  and  N_5
REMARK    6  A    between atoms: C_6  and  C_8
REMARK    7  A    between atoms: C_21  and  O_22
REMARK    8  A    between atoms: O_22  and  C_23
REMARK                            x       y       z     vdW  Elec       q    Type
REMARK                         _______ _______ _______ _____ _____    ______ ____
ROOT
ATOM      1  C   UNL     1      44.812   6.154  12.831  0.00  0.00    +0.000 C 
ENDROOT
BRANCH   1   2
ATOM      2  C   UNL     1      45.957   7.131  12.570  0.00  0.00    +0.000 A 
ATOM      3  C   UNL     1      47.060   6.704  11.809  0.00  0.00    +0.000 A 
ATOM      4  C   UNL     1      48.146   7.545  11.566  0.00  0.00    +0.000 A 
ATOM      5  C   UNL     1      48.130   8.860  12.023  0.00  0.00    +0.000 A 
ATOM      6  C   UNL     1      47.043   9.309  12.772  0.00  0.00    +0.000 A 
ATOM      7  C   UNL     1      45.960   8.458  13.030  0.00  0.00    +0.000 A 
BRANCH   5   8
ATOM      8  O   UNL     1      49.170   9.744  11.846  0.00  0.00    +0.000 OA
BRANCH   8   9
ATOM      9  C   UNL     1      50.443   9.347  12.242  0.00  0.00    +0.000 A 
ATOM     10  C   UNL     1      50.655   9.212  13.606  0.00  0.00    +0.000 A 
ATOM     11  C   UNL     1      51.912   8.794  14.036  0.00  0.00    +0.000 A 
ATOM     12  C   UNL     1      52.904   8.533  13.098  0.00  0.00    +0.000 A 
ATOM     13  C   UNL     1      52.607   8.722  11.759  0.00  0.00    +0.000 A 
ATOM     14  N   UNL     1      51.405   9.140  11.313  0.00  0.00    +0.000 NA
ENDBRANCH   8   9
ENDBRANCH   5   8
ENDBRANCH   1   2
BRANCH   1  16
ATOM     15  C   UNL     1      42.746   5.552  11.748  0.00  0.00    +0.000 C 
ATOM     16  O   UNL     1      44.067   6.043  11.599  0.00  0.00    +0.000 OA
ENDBRANCH   1  16
BRANCH   1  17
ATOM     17  C   UNL     1      45.226   4.750  13.339  0.00  0.00    +0.000 C 
BRANCH  17  18
ATOM     18  N   UNL     1      45.960   4.791  14.592  0.00  0.00    +0.000 N 
ATOM     19  C   UNL     1      46.999   3.934  14.854  0.00  0.00    +0.000 C 
ATOM     20  O   UNL     1      47.414   3.135  14.019  0.00  0.00    +0.000 OA
ATOM     21  H   UNL     1      45.567   5.360  15.334  0.00  0.00    +0.000 HD
BRANCH  19  22
ATOM     22  C   UNL     1      47.645   4.094  16.160  0.00  0.00    +0.000 A 
ATOM     23  C   UNL     1      47.465   3.144  17.154  0.00  0.00    +0.000 A 
ATOM     24  S   UNL     1      48.388   3.450  18.558  0.00  0.00    +0.000 S 
ATOM     25  C   UNL     1      49.014   4.892  17.901  0.00  0.00    +0.000 A 
ATOM     26  N   UNL     1      49.901   5.658  18.591  0.00  0.00    +0.000 NA
ATOM     27  C   UNL     1      50.271   6.735  17.974  0.00  0.00    +0.000 A 
ATOM     28  N   UNL     1      49.816   7.119  16.739  0.00  0.00    +0.000 N 
ATOM     29  C   UNL     1      48.885   6.399  16.031  0.00  0.00    +0.000 A 
ATOM     30  O   UNL     1      48.427   6.810  14.973  0.00  0.00    +0.000 OA
ATOM     31  C   UNL     1      48.499   5.147  16.646  0.00  0.00    +0.000 A 
ATOM     32  H   UNL     1      50.111   7.988  16.321  0.00  0.00    +0.000 HD
ENDBRANCH  19  22
ENDBRANCH  17  18
ENDBRANCH   1  17
TORSDOF 7
ENDMDL
MODEL 8
REMARK VINA RESULT:    -6.947      3.300      4.760
REMARK INTER + INTRA:         -10.557
REMARK INTER:                  -8.875
REMARK INTRA:                  -1.682
REMARK UNBOUND:                -0.767
REMARK  Name = 
REMARK  8 active torsions:
REMARK  status: ('A' for Active; 'I' for Inactive)
REMARK    1  A    between atoms: C_1  and  O_2
REMARK    2  A    between atoms: O_2  and  C_3
REMARK    3  A    between atoms: C_3  and  C_4
REMARK    4  A    between atoms: C_3  and  C_18
REMARK    5  A    between atoms: C_4  and  N_5
REMARK    6  A    between atoms: C_6  and  C_8
REMARK    7  A    between atoms: C_21  and  O_22
REMARK    8  A    between atoms: O_22  and  C_23
REMARK                            x       y       z     vdW  Elec       q    Type
REMARK                         _______ _______ _______ _____ _____    ______ ____
ROOT
ATOM      1  C   UNL     1      49.616   8.661  13.311  0.00  0.00    +0.000 C 
ENDROOT
BRANCH   1   2
ATOM      2  C   UNL     1      48.228   8.195  12.876  0.00  0.00    +0.000 A 
ATOM      3  C   UNL     1      48.119   7.122  11.974  0.00  0.00    +0.000 A 
ATOM      4  C   UNL     1      46.878   6.676  11.520  0.00  0.00    +0.000 A 
ATOM      5  C   UNL     1      45.706   7.248  12.008  0.00  0.00    +0.000 A 
ATOM      6  C   UNL     1      45.789   8.307  12.911  0.00  0.00    +0.000 A 
ATOM      7  C   UNL     1      47.036   8.766  13.353  0.00  0.00    +0.000 A 
BRANCH   5   8
ATOM      8  O   UNL     1      44.445   6.881  11.594  0.00  0.00    +0.000 OA
BRANCH   8   9
ATOM      9  C   UNL     1      44.114   5.530  11.619  0.00  0.00    +0.000 A 
ATOM     10  C   UNL     1      43.804   4.990  12.857  0.00  0.00    +0.000 A 
ATOM     11  C   UNL     1      43.445   3.645  12.916  0.00  0.00    +0.000 A 
ATOM     12  C   UNL     1      43.415   2.894  11.745  0.00  0.00    +0.000 A 
ATOM     13  C   UNL     1      43.767   3.515  10.559  0.00  0.00    +0.000 A 
ATOM     14  N   UNL     1      44.132   4.810  10.473  0.00  0.00    +0.000 NA
ENDBRANCH   8   9
ENDBRANCH   5   8
ENDBRANCH   1   2
BRANCH   1  16
ATOM     15  C   UNL     1      50.920   9.467  11.452  0.00  0.00    +0.000 C 
ATOM     16  O   UNL     1      49.970   9.773  12.460  0.00  0.00    +0.000 OA
ENDBRANCH   1  16
BRANCH   1  17
ATOM     17  C   UNL     1      49.759   9.057  14.802  0.00  0.00    +0.000 C 
BRANCH  17  18
ATOM     18  N   UNL     1      49.679   7.921  15.704  0.00  0.00    +0.000 N 
ATOM     19  C   UNL     1      48.878   7.931  16.818  0.00  0.00    +0.000 C 
ATOM     20  O   UNL     1      48.129   8.869  17.076  0.00  0.00    +0.000 OA
ATOM     21  H   UNL     1      50.367   7.186  15.576  0.00  0.00    +0.000 HD
BRANCH  19  22
ATOM     22  C   UNL     1      48.901   6.712  17.632  0.00  0.00    +0.000 A 
ATOM     23  C   UNL     1      49.432   6.733  18.912  0.00  0.00    +0.000 A 
ATOM     24  S   UNL     1      49.264   5.249  19.740  0.00  0.00    +0.000 S 
ATOM     25  C   UNL     1      48.524   4.516  18.390  0.00  0.00    +0.000 A 
ATOM     26  N   UNL     1      48.104   3.224  18.429  0.00  0.00    +0.000 NA
ATOM     27  C   UNL     1      47.581   2.798  17.323  0.00  0.00    +0.000 A 
ATOM     28  N   UNL     1      47.463   3.547  16.181  0.00  0.00    +0.000 N 
ATOM     29  C   UNL     1      47.918   4.839  16.086  0.00  0.00    +0.000 A 
ATOM     30  O   UNL     1      47.883   5.454  15.029  0.00  0.00    +0.000 OA
ATOM     31  C   UNL     1      48.440   5.384  17.320  0.00  0.00    +0.000 A 
ATOM     32  H   UNL     1      47.080   3.151  15.335  0.00  0.00    +0.000 HD
ENDBRANCH  19  22
ENDBRANCH  17  18
ENDBRANCH   1  17
TORSDOF 7
ENDMDL
MODEL 9
REMARK VINA RESULT:    -6.839      2.340      3.397
REMARK INTER + INTRA:         -10.405
REMARK INTER:                  -9.355
REMARK INTRA:                  -1.050
REMARK UNBOUND:                -0.767
REMARK  Name = 
REMARK  8 active torsions:
REMARK  status: ('A' for Active; 'I' for Inactive)
REMARK    1  A    between atoms: C_1  and  O_2
REMARK    2  A    between atoms: O_2  and  C_3
REMARK    3  A    between atoms: C_3  and  C_4
REMARK    4  A    between atoms: C_3  and  C_18
REMARK    5  A    between atoms: C_4  and  N_5
REMARK    6  A    between atoms: C_6  and  C_8
REMARK    7  A    between atoms: C_21  and  O_22
REMARK    8  A    between atoms: O_22  and  C_23
REMARK                            x       y       z     vdW  Elec       q    Type
REMARK                         _______ _______ _______ _____ _____    ______ ____
ROOT
ATOM      1  C   UNL     1      48.576   6.427  14.948  0.00  0.00    +0.000 C 
ENDROOT
BRANCH   1   2
ATOM      2  C   UNL     1      47.486   6.070  13.939  0.00  0.00    +0.000 A 
ATOM      3  C   UNL     1      46.855   4.817  14.029  0.00  0.00    +0.000 A 
ATOM      4  C   UNL     1      45.875   4.428  13.115  0.00  0.00    +0.000 A 
ATOM      5  C   UNL     1      45.452   5.310  12.124  0.00  0.00    +0.000 A 
ATOM      6  C   UNL     1      46.056   6.562  12.021  0.00  0.00    +0.000 A 
ATOM      7  C   UNL     1      47.052   6.945  12.929  0.00  0.00    +0.000 A 
BRANCH   5   8
ATOM      8  O   UNL     1      44.509   4.995  11.172  0.00  0.00    +0.000 OA
BRANCH   8   9
ATOM      9  C   UNL     1      44.893   4.177  10.114  0.00  0.00    +0.000 A 
ATOM     10  C   UNL     1      45.522   4.799   9.046  0.00  0.00    +0.000 A 
ATOM     11  C   UNL     1      45.940   4.007   7.980  0.00  0.00    +0.000 A 
ATOM     12  C   UNL     1      45.713   2.635   8.016  0.00  0.00    +0.000 A 
ATOM     13  C   UNL     1      45.053   2.109   9.113  0.00  0.00    +0.000 A 
ATOM     14  N   UNL     1      44.623   2.852  10.153  0.00  0.00    +0.000 NA
ENDBRANCH   8   9
ENDBRANCH   5   8
ENDBRANCH   1   2
BRANCH   1  16
ATOM     15  C   UNL     1      48.629   8.378  16.360  0.00  0.00    +0.000 C 
ATOM     16  O   UNL     1      48.610   7.868  15.037  0.00  0.00    +0.000 OA
ENDBRANCH   1  16
BRANCH   1  17
ATOM     17  C   UNL     1      48.421   5.803  16.358  0.00  0.00    +0.000 C 
BRANCH  17  18
ATOM     18  N   UNL     1      49.557   4.987  16.749  0.00  0.00    +0.000 N 
ATOM     19  C   UNL     1      49.402   3.745  17.310  0.00  0.00    +0.000 C 
ATOM     20  O   UNL     1      48.299   3.222  17.447  0.00  0.00    +0.000 OA
ATOM     21  H   UNL     1      50.466   5.438  16.750  0.00  0.00    +0.000 HD
BRANCH  19  22
ATOM     22  C   UNL     1      50.641   3.039  17.652  0.00  0.00    +0.000 A 
ATOM     23  C   UNL     1      50.856   1.743  17.207  0.00  0.00    +0.000 A 
ATOM     24  S   UNL     1      52.400   1.136  17.610  0.00  0.00    +0.000 S 
ATOM     25  C   UNL     1      52.807   2.567  18.441  0.00  0.00    +0.000 A 
ATOM     26  N   UNL     1      54.024   2.723  19.027  0.00  0.00    +0.000 NA
ATOM     27  C   UNL     1      54.182   3.853  19.641  0.00  0.00    +0.000 A 
ATOM     28  N   UNL     1      53.222   4.828  19.732  0.00  0.00    +0.000 N 
ATOM     29  C   UNL     1      51.966   4.689  19.196  0.00  0.00    +0.000 A 
ATOM     30  O   UNL     1      51.098   5.534  19.371  0.00  0.00    +0.000 OA
ATOM     31  C   UNL     1      51.768   3.475  18.435  0.00  0.00    +0.000 A 
ATOM     32  H   UNL     1      53.387   5.675  20.255  0.00  0.00    +0.000 HD
ENDBRANCH  19  22
ENDBRANCH  17  18
ENDBRANCH   1  17
TORSDOF 7
ENDMDL
