MODEL 1
REMARK VINA RESULT:    -7.922      0.000      0.000
REMARK INTER + INTRA:         -12.564
REMARK INTER:                 -11.627
REMARK INTRA:                  -0.937
REMARK UNBOUND:                -0.937
REMARK  Name = 
REMARK  9 active torsions:
REMARK  status: ('A' for Active; 'I' for Inactive)
REMARK    1  A    between atoms: C_1  and  C_2
REMARK    2  A    between atoms: C_2  and  N_3
REMARK    3  A    between atoms: C_2  and  C_19
REMARK    4  A    between atoms: N_3  and  C_4
REMARK    5  A    between atoms: C_4  and  C_5
REMARK    6  A    between atoms: C_8  and  C_9
REMARK    7  A    between atoms: C_9  and  O_10
REMARK    8  A    between atoms: O_10  and  C_11
REMARK    9  A    between atoms: C_11  and  C_12
REMARK                            x       y       z     vdW  Elec       q    Type
REMARK                         _______ _______ _______ _____ _____    ______ ____
ROOT
ATOM      1  N   UNL     1      47.530   5.349  15.957  0.00  0.00    +0.000 NA
ATOM      2  H   UNL     1      48.016   6.074  16.483  0.00  0.00    +0.000 HD
ENDROOT
BRANCH   1   4
ATOM      3  C   UNL     1      46.873   3.352  17.306  0.00  0.00    +0.000 C 
ATOM      4  C   UNL     1      47.960   4.047  16.483  0.00  0.00    +0.000 C 
BRANCH   4   5
ATOM      5  C   UNL     1      49.191   4.310  17.340  0.00  0.00    +0.000 A 
ATOM      6  C   UNL     1      49.385   5.445  18.117  0.00  0.00    +0.000 A 
ATOM      7  S   UNL     1      50.890   5.473  18.919  0.00  0.00    +0.000 S 
ATOM      8  C   UNL     1      51.313   3.945  18.298  0.00  0.00    +0.000 A 
ATOM      9  N   UNL     1      52.502   3.365  18.611  0.00  0.00    +0.000 NA
ATOM     10  C   UNL     1      52.672   2.194  18.090  0.00  0.00    +0.000 A 
ATOM     11  N   UNL     1      51.764   1.552  17.288  0.00  0.00    +0.000 N 
ATOM     12  C   UNL     1      50.550   2.103  16.935  0.00  0.00    +0.000 A 
ATOM     13  O   UNL     1      49.757   1.505  16.219  0.00  0.00    +0.000 OA
ATOM     14  C   UNL     1      50.319   3.423  17.492  0.00  0.00    +0.000 A 
ATOM     15  H   UNL     1      51.955   0.630  16.925  0.00  0.00    +0.000 HD
ENDBRANCH   4   5
ENDBRANCH   1   4
BRANCH   1  16
ATOM     16  C   UNL     1      47.811   5.556  14.539  0.00  0.00    +0.000 C 
BRANCH  16  17
ATOM     17  C   UNL     1      46.644   5.079  13.698  0.00  0.00    +0.000 A 
ATOM     18  C   UNL     1      46.532   3.733  13.321  0.00  0.00    +0.000 A 
ATOM     19  C   UNL     1      45.486   3.306  12.498  0.00  0.00    +0.000 A 
ATOM     20  C   UNL     1      44.519   4.214  12.045  0.00  0.00    +0.000 A 
ATOM     21  C   UNL     1      44.614   5.553  12.443  0.00  0.00    +0.000 A 
ATOM     22  C   UNL     1      45.668   5.982  13.256  0.00  0.00    +0.000 A 
BRANCH  20  23
ATOM     23  C   UNL     1      43.419   3.762  11.120  0.00  0.00    +0.000 C 
BRANCH  23  24
ATOM     24  O   UNL     1      44.002   3.099  10.003  0.00  0.00    +0.000 OA
BRANCH  24  25
ATOM     25  C   UNL     1      44.502   4.019   9.044  0.00  0.00    +0.000 C 
BRANCH  25  26
ATOM     26  C   UNL     1      45.563   3.378   8.190  0.00  0.00    +0.000 C 
ATOM     27  C   UNL     1      46.013   1.985   8.363  0.00  0.00    +0.000 C 
ATOM     28  C   UNL     1      46.992   1.820   7.339  0.00  0.00    +0.000 C 
ATOM     29  C   UNL     1      47.046   2.999   6.704  0.00  0.00    +0.000 C 
ATOM     30  N   UNL     1      46.190   3.969   7.199  0.00  0.00    +0.000 NA
ENDBRANCH  25  26
ENDBRANCH  24  25
ENDBRANCH  23  24
ENDBRANCH  20  23
ENDBRANCH  16  17
ENDBRANCH   1  16
TORSDOF 8
ENDMDL
MODEL 2
REMARK VINA RESULT:    -7.578      1.262      1.502
REMARK INTER + INTRA:         -12.059
REMARK INTER:                 -11.142
REMARK INTRA:                  -0.917
REMARK UNBOUND:                -0.937
REMARK  Name = 
REMARK  9 active torsions:
REMARK  status: ('A' for Active; 'I' for Inactive)
REMARK    1  A    between atoms: C_1  and  C_2
REMARK    2  A    between atoms: C_2  and  N_3
REMARK    3  A    between atoms: C_2  and  C_19
REMARK    4  A    between atoms: N_3  and  C_4
REMARK    5  A    between atoms: C_4  and  C_5
REMARK    6  A    between atoms: C_8  and  C_9
REMARK    7  A    between atoms: C_9  and  O_10
REMARK    8  A    between atoms: O_10  and  C_11
REMARK    9  A    between atoms: C_11  and  C_12
REMARK                            x       y       z     vdW  Elec       q    Type
REMARK                         _______ _______ _______ _____ _____    ______ ____
ROOT
ATOM      1  N   UNL     1      48.519   4.634  15.850  0.00  0.00    +0.000 NA
ATOM      2  H   UNL     1      47.834   3.972  15.490  0.00  0.00    +0.000 HD
ENDROOT
BRANCH   1   4
ATOM      3  C   UNL     1      47.855   5.944  17.872  0.00  0.00    +0.000 C 
ATOM      4  C   UNL     1      48.419   4.633  17.316  0.00  0.00    +0.000 C 
BRANCH   4   5
ATOM      5  C   UNL     1      49.826   4.390  17.847  0.00  0.00    +0.000 A 
ATOM      6  C   UNL     1      50.537   5.284  18.637  0.00  0.00    +0.000 A 
ATOM      7  S   UNL     1      52.108   4.747  19.026  0.00  0.00    +0.000 S 
ATOM      8  C   UNL     1      51.875   3.280  18.196  0.00  0.00    +0.000 A 
ATOM      9  N   UNL     1      52.854   2.338  18.144  0.00  0.00    +0.000 NA
ATOM     10  C   UNL     1      52.523   1.265  17.505  0.00  0.00    +0.000 A 
ATOM     11  N   UNL     1      51.305   1.048  16.913  0.00  0.00    +0.000 N 
ATOM     12  C   UNL     1      50.285   1.976  16.929  0.00  0.00    +0.000 A 
ATOM     13  O   UNL     1      49.205   1.754  16.394  0.00  0.00    +0.000 OA
ATOM     14  C   UNL     1      50.615   3.202  17.632  0.00  0.00    +0.000 A 
ATOM     15  H   UNL     1      51.107   0.180  16.439  0.00  0.00    +0.000 HD
ENDBRANCH   4   5
ENDBRANCH   1   4
BRANCH   1  16
ATOM     16  C   UNL     1      48.265   5.929  15.224  0.00  0.00    +0.000 C 
BRANCH  16  17
ATOM     17  C   UNL     1      47.339   5.763  14.035  0.00  0.00    +0.000 A 
ATOM     18  C   UNL     1      46.444   4.685  13.965  0.00  0.00    +0.000 A 
ATOM     19  C   UNL     1      45.631   4.504  12.842  0.00  0.00    +0.000 A 
ATOM     20  C   UNL     1      45.685   5.404  11.769  0.00  0.00    +0.000 A 
ATOM     21  C   UNL     1      46.558   6.495  11.849  0.00  0.00    +0.000 A 
ATOM     22  C   UNL     1      47.380   6.670  12.967  0.00  0.00    +0.000 A 
BRANCH  20  23
ATOM     23  C   UNL     1      44.844   5.180  10.540  0.00  0.00    +0.000 C 
BRANCH  23  24
ATOM     24  O   UNL     1      45.701   4.865   9.448  0.00  0.00    +0.000 OA
BRANCH  24  25
ATOM     25  C   UNL     1      45.032   4.103   8.453  0.00  0.00    +0.000 C 
BRANCH  25  26
ATOM     26  C   UNL     1      45.941   3.044   7.888  0.00  0.00    +0.000 C 
ATOM     27  C   UNL     1      46.895   3.294   6.793  0.00  0.00    +0.000 C 
ATOM     28  C   UNL     1      47.536   2.032   6.615  0.00  0.00    +0.000 C 
ATOM     29  C   UNL     1      46.976   1.216   7.518  0.00  0.00    +0.000 C 
ATOM     30  N   UNL     1      45.999   1.801   8.307  0.00  0.00    +0.000 NA
ENDBRANCH  25  26
ENDBRANCH  24  25
ENDBRANCH  23  24
ENDBRANCH  20  23
ENDBRANCH  16  17
ENDBRANCH   1  16
TORSDOF 8
ENDMDL
MODEL 3
REMARK VINA RESULT:    -7.529      1.879      2.290
REMARK INTER + INTRA:         -11.987
REMARK INTER:                 -10.824
REMARK INTRA:                  -1.164
REMARK UNBOUND:                -0.937
REMARK  Name = 
REMARK  9 active torsions:
REMARK  status: ('A' for Active; 'I' for Inactive)
REMARK    1  A    between atoms: C_1  and  C_2
REMARK    2  A    between atoms: C_2  and  N_3
REMARK    3  A    between atoms: C_2  and  C_19
REMARK    4  A    between atoms: N_3  and  C_4
REMARK    5  A    between atoms: C_4  and  C_5
REMARK    6  A    between atoms: C_8  and  C_9
REMARK    7  A    between atoms: C_9  and  O_10
REMARK    8  A    between atoms: O_10  and  C_11
REMARK    9  A    between atoms: C_11  and  C_12
REMARK                            x       y       z     vdW  Elec       q    Type
REMARK                         _______ _______ _______ _____ _____    ______ ____
ROOT
ATOM      1  N   UNL     1      48.419   6.000  14.807  0.00  0.00    +0.000 NA
ATOM      2  H   UNL     1      47.538   5.549  15.049  0.00  0.00    +0.000 HD
ENDROOT
BRANCH   1   4
ATOM      3  C   UNL     1      48.616   8.394  15.495  0.00  0.00    +0.000 C 
ATOM      4  C   UNL     1      48.764   6.924  15.897  0.00  0.00    +0.000 C 
BRANCH   4   5
ATOM      5  C   UNL     1      50.204   6.619  16.285  0.00  0.00    +0.000 A 
ATOM      6  C   UNL     1      51.288   7.443  16.011  0.00  0.00    +0.000 A 
ATOM      7  S   UNL     1      52.781   6.799  16.525  0.00  0.00    +0.000 S 
ATOM      8  C   UNL     1      52.026   5.420  17.179  0.00  0.00    +0.000 A 
ATOM      9  N   UNL     1      52.750   4.447  17.792  0.00  0.00    +0.000 NA
ATOM     10  C   UNL     1      52.039   3.477  18.265  0.00  0.00    +0.000 A 
ATOM     11  N   UNL     1      50.673   3.391  18.180  0.00  0.00    +0.000 N 
ATOM     12  C   UNL     1      49.896   4.347  17.560  0.00  0.00    +0.000 A 
ATOM     13  O   UNL     1      48.676   4.246  17.502  0.00  0.00    +0.000 OA
ATOM     14  C   UNL     1      50.654   5.454  17.007  0.00  0.00    +0.000 A 
ATOM     15  H   UNL     1      50.177   2.610  18.584  0.00  0.00    +0.000 HD
ENDBRANCH   4   5
ENDBRANCH   1   4
BRANCH   1  16
ATOM     16  C   UNL     1      48.257   6.633  13.501  0.00  0.00    +0.000 C 
BRANCH  16  17
ATOM     17  C   UNL     1      47.035   6.078  12.797  0.00  0.00    +0.000 A 
ATOM     18  C   UNL     1      46.195   5.154  13.436  0.00  0.00    +0.000 A 
ATOM     19  C   UNL     1      45.101   4.600  12.764  0.00  0.00    +0.000 A 
ATOM     20  C   UNL     1      44.814   4.969  11.443  0.00  0.00    +0.000 A 
ATOM     21  C   UNL     1      45.635   5.912  10.813  0.00  0.00    +0.000 A 
ATOM     22  C   UNL     1      46.737   6.456  11.481  0.00  0.00    +0.000 A 
BRANCH  20  23
ATOM     23  C   UNL     1      43.663   4.337  10.705  0.00  0.00    +0.000 C 
BRANCH  23  24
ATOM     24  O   UNL     1      44.128   3.867   9.444  0.00  0.00    +0.000 OA
BRANCH  24  25
ATOM     25  C   UNL     1      44.578   2.522   9.514  0.00  0.00    +0.000 C 
BRANCH  25  26
ATOM     26  C   UNL     1      45.644   2.259   8.484  0.00  0.00    +0.000 C 
ATOM     27  C   UNL     1      46.192   3.304   7.600  0.00  0.00    +0.000 C 
ATOM     28  C   UNL     1      47.167   2.607   6.825  0.00  0.00    +0.000 C 
ATOM     29  C   UNL     1      47.129   1.340   7.259  0.00  0.00    +0.000 C 
ATOM     30  N   UNL     1      46.210   1.095   8.267  0.00  0.00    +0.000 NA
ENDBRANCH  25  26
ENDBRANCH  24  25
ENDBRANCH  23  24
ENDBRANCH  20  23
ENDBRANCH  16  17
ENDBRANCH   1  16
TORSDOF 8
ENDMDL
MODEL 4
REMARK VINA RESULT:    -7.310      2.861      3.792
REMARK INTER + INTRA:         -11.665
REMARK INTER:                 -10.675
REMARK INTRA:                  -0.990
REMARK UNBOUND:                -0.937
REMARK  Name = 
REMARK  9 active torsions:
REMARK  status: ('A' for Active; 'I' for Inactive)
REMARK    1  A    between atoms: C_1  and  C_2
REMARK    2  A    between atoms: C_2  and  N_3
REMARK    3  A    between atoms: C_2  and  C_19
REMARK    4  A    between atoms: N_3  and  C_4
REMARK    5  A    between atoms: C_4  and  C_5
REMARK    6  A    between atoms: C_8  and  C_9
REMARK    7  A    between atoms: C_9  and  O_10
REMARK    8  A    between atoms: O_10  and  C_11
REMARK    9  A    between atoms: C_11  and  C_12
REMARK                            x       y       z     vdW  Elec       q    Type
REMARK                         _______ _______ _______ _____ _____    ______ ____
ROOT
ATOM      1  N   UNL     1      48.567   6.162  14.460  0.00  0.00    +0.000 NA
ATOM      2  H   UNL     1      47.869   5.498  14.790  0.00  0.00    +0.000 HD
ENDROOT
BRANCH   1   4
ATOM      3  C   UNL     1      50.509   7.284  15.560  0.00  0.00    +0.000 C 
ATOM      4  C   UNL     1      49.015   6.955  15.612  0.00  0.00    +0.000 C 
BRANCH   4   5
ATOM      5  C   UNL     1      48.692   6.136  16.855  0.00  0.00    +0.000 A 
ATOM      6  C   UNL     1      48.734   4.749  16.919  0.00  0.00    +0.000 A 
ATOM      7  S   UNL     1      48.264   4.123  18.435  0.00  0.00    +0.000 S 
ATOM      8  C   UNL     1      48.039   5.685  19.074  0.00  0.00    +0.000 A 
ATOM      9  N   UNL     1      47.638   5.866  20.360  0.00  0.00    +0.000 NA
ATOM     10  C   UNL     1      47.538   7.106  20.713  0.00  0.00    +0.000 A 
ATOM     11  N   UNL     1      47.801   8.178  19.899  0.00  0.00    +0.000 N 
ATOM     12  C   UNL     1      48.200   8.045  18.585  0.00  0.00    +0.000 A 
ATOM     13  O   UNL     1      48.431   9.021  17.882  0.00  0.00    +0.000 OA
ATOM     14  C   UNL     1      48.319   6.668  18.143  0.00  0.00    +0.000 A 
ATOM     15  H   UNL     1      47.715   9.122  20.243  0.00  0.00    +0.000 HD
ENDBRANCH   4   5
ENDBRANCH   1   4
BRANCH   1  16
ATOM     16  C   UNL     1      47.969   6.942  13.380  0.00  0.00    +0.000 C 
BRANCH  16  17
ATOM     17  C   UNL     1      46.901   6.130  12.675  0.00  0.00    +0.000 A 
ATOM     18  C   UNL     1      46.523   6.429  11.358  0.00  0.00    +0.000 A 
ATOM     19  C   UNL     1      45.498   5.714  10.729  0.00  0.00    +0.000 A 
ATOM     20  C   UNL     1      44.839   4.675  11.399  0.00  0.00    +0.000 A 
ATOM     21  C   UNL     1      45.233   4.358  12.704  0.00  0.00    +0.000 A 
ATOM     22  C   UNL     1      46.250   5.080  13.337  0.00  0.00    +0.000 A 
BRANCH  20  23
ATOM     23  C   UNL     1      43.703   3.938  10.738  0.00  0.00    +0.000 C 
BRANCH  23  24
ATOM     24  O   UNL     1      44.123   3.512   9.446  0.00  0.00    +0.000 OA
BRANCH  24  25
ATOM     25  C   UNL     1      44.764   2.245   9.490  0.00  0.00    +0.000 C 
BRANCH  25  26
ATOM     26  C   UNL     1      45.805   2.134   8.408  0.00  0.00    +0.000 C 
ATOM     27  C   UNL     1      46.251   3.277   7.591  0.00  0.00    +0.000 C 
ATOM     28  C   UNL     1      47.240   2.709   6.734  0.00  0.00    +0.000 C 
ATOM     29  C   UNL     1      47.300   1.412   7.068  0.00  0.00    +0.000 C 
ATOM     30  N   UNL     1      46.437   1.030   8.083  0.00  0.00    +0.000 NA
ENDBRANCH  25  26
ENDBRANCH  24  25
ENDBRANCH  23  24
ENDBRANCH  20  23
ENDBRANCH  16  17
ENDBRANCH   1  16
TORSDOF 8
ENDMDL
MODEL 5
REMARK VINA RESULT:    -6.928      3.065      8.733
REMARK INTER + INTRA:         -11.105
REMARK INTER:                  -9.716
REMARK INTRA:                  -1.389
REMARK UNBOUND:                -0.937
REMARK  Name = 
REMARK  9 active torsions:
REMARK  status: ('A' for Active; 'I' for Inactive)
REMARK    1  A    between atoms: C_1  and  C_2
REMARK    2  A    between atoms: C_2  and  N_3
REMARK    3  A    between atoms: C_2  and  C_19
REMARK    4  A    between atoms: N_3  and  C_4
REMARK    5  A    between atoms: C_4  and  C_5
REMARK    6  A    between atoms: C_8  and  C_9
REMARK    7  A    between atoms: C_9  and  O_10
REMARK    8  A    between atoms: O_10  and  C_11
REMARK    9  A    between atoms: C_11  and  C_12
REMARK                            x       y       z     vdW  Elec       q    Type
REMARK                         _______ _______ _______ _____ _____    ______ ____
ROOT
ATOM      1  N   UNL     1      47.186   6.703  11.650  0.00  0.00    +0.000 NA
ATOM      2  H   UNL     1      47.544   6.257  10.808  0.00  0.00    +0.000 HD
ENDROOT
BRANCH   1   4
ATOM      3  C   UNL     1      45.240   8.078  12.401  0.00  0.00    +0.000 C 
ATOM      4  C   UNL     1      45.773   7.031  11.419  0.00  0.00    +0.000 C 
BRANCH   4   5
ATOM      5  C   UNL     1      44.997   5.728  11.555  0.00  0.00    +0.000 A 
ATOM      6  C   UNL     1      44.242   5.371  12.665  0.00  0.00    +0.000 A 
ATOM      7  S   UNL     1      43.536   3.823  12.539  0.00  0.00    +0.000 S 
ATOM      8  C   UNL     1      44.171   3.598  10.975  0.00  0.00    +0.000 A 
ATOM      9  N   UNL     1      43.930   2.457  10.277  0.00  0.00    +0.000 NA
ATOM     10  C   UNL     1      44.452   2.441   9.094  0.00  0.00    +0.000 A 
ATOM     11  N   UNL     1      45.191   3.459   8.548  0.00  0.00    +0.000 N 
ATOM     12  C   UNL     1      45.471   4.630   9.220  0.00  0.00    +0.000 A 
ATOM     13  O   UNL     1      46.131   5.524   8.706  0.00  0.00    +0.000 OA
ATOM     14  C   UNL     1      44.910   4.690  10.558  0.00  0.00    +0.000 A 
ATOM     15  H   UNL     1      45.559   3.386   7.612  0.00  0.00    +0.000 HD
ENDBRANCH   4   5
ENDBRANCH   1   4
BRANCH   1  16
ATOM     16  C   UNL     1      48.037   7.852  11.947  0.00  0.00    +0.000 C 
BRANCH  16  17
ATOM     17  C   UNL     1      48.797   7.622  13.238  0.00  0.00    +0.000 A 
ATOM     18  C   UNL     1      50.116   8.076  13.386  0.00  0.00    +0.000 A 
ATOM     19  C   UNL     1      50.834   7.813  14.557  0.00  0.00    +0.000 A 
ATOM     20  C   UNL     1      50.245   7.103  15.611  0.00  0.00    +0.000 A 
ATOM     21  C   UNL     1      48.919   6.673  15.476  0.00  0.00    +0.000 A 
ATOM     22  C   UNL     1      48.205   6.926  14.300  0.00  0.00    +0.000 A 
BRANCH  20  23
ATOM     23  C   UNL     1      51.035   6.780  16.852  0.00  0.00    +0.000 C 
BRANCH  23  24
ATOM     24  O   UNL     1      51.456   5.421  16.788  0.00  0.00    +0.000 OA
BRANCH  24  25
ATOM     25  C   UNL     1      50.993   4.671  17.902  0.00  0.00    +0.000 C 
BRANCH  25  26
ATOM     26  C   UNL     1      49.910   3.710  17.489  0.00  0.00    +0.000 C 
ATOM     27  C   UNL     1      48.489   3.893  17.835  0.00  0.00    +0.000 C 
ATOM     28  C   UNL     1      47.851   2.772  17.224  0.00  0.00    +0.000 C 
ATOM     29  C   UNL     1      48.833   2.082  16.628  0.00  0.00    +0.000 C 
ATOM     30  N   UNL     1      50.099   2.627  16.772  0.00  0.00    +0.000 NA
ENDBRANCH  25  26
ENDBRANCH  24  25
ENDBRANCH  23  24
ENDBRANCH  20  23
ENDBRANCH  16  17
ENDBRANCH   1  16
TORSDOF 8
ENDMDL
MODEL 6
REMARK VINA RESULT:    -6.907      2.702      8.926
REMARK INTER + INTRA:         -11.074
REMARK INTER:                  -9.991
REMARK INTRA:                  -1.083
REMARK UNBOUND:                -0.937
REMARK  Name = 
REMARK  9 active torsions:
REMARK  status: ('A' for Active; 'I' for Inactive)
REMARK    1  A    between atoms: C_1  and  C_2
REMARK    2  A    between atoms: C_2  and  N_3
REMARK    3  A    between atoms: C_2  and  C_19
REMARK    4  A    between atoms: N_3  and  C_4
REMARK    5  A    between atoms: C_4  and  C_5
REMARK    6  A    between atoms: C_8  and  C_9
REMARK    7  A    between atoms: C_9  and  O_10
REMARK    8  A    between atoms: O_10  and  C_11
REMARK    9  A    between atoms: C_11  and  C_12
REMARK                            x       y       z     vdW  Elec       q    Type
REMARK                         _______ _______ _______ _____ _____    ______ ____
ROOT
ATOM      1  N   UNL     1      46.740   6.419  11.360  0.00  0.00    +0.000 NA
ATOM      2  H   UNL     1      47.304   6.659  10.547  0.00  0.00    +0.000 HD
ENDROOT
BRANCH   1   4
ATOM      3  C   UNL     1      44.555   7.483  11.942  0.00  0.00    +0.000 C 
ATOM      4  C   UNL     1      45.327   6.568  10.987  0.00  0.00    +0.000 C 
BRANCH   4   5
ATOM      5  C   UNL     1      44.728   5.168  10.988  0.00  0.00    +0.000 A 
ATOM      6  C   UNL     1      43.876   4.675  11.968  0.00  0.00    +0.000 A 
ATOM      7  S   UNL     1      43.418   3.051  11.717  0.00  0.00    +0.000 S 
ATOM      8  C   UNL     1      44.299   2.967  10.263  0.00  0.00    +0.000 A 
ATOM      9  N   UNL     1      44.322   1.829   9.521  0.00  0.00    +0.000 NA
ATOM     10  C   UNL     1      45.007   1.923   8.429  0.00  0.00    +0.000 A 
ATOM     11  N   UNL     1      45.670   3.050   8.013  0.00  0.00    +0.000 N 
ATOM     12  C   UNL     1      45.684   4.224   8.735  0.00  0.00    +0.000 A 
ATOM     13  O   UNL     1      46.282   5.217   8.337  0.00  0.00    +0.000 OA
ATOM     14  C   UNL     1      44.932   4.162   9.975  0.00  0.00    +0.000 A 
ATOM     15  H   UNL     1      46.176   3.059   7.140  0.00  0.00    +0.000 HD
ENDBRANCH   4   5
ENDBRANCH   1   4
BRANCH   1  16
ATOM     16  C   UNL     1      47.168   7.266  12.470  0.00  0.00    +0.000 C 
BRANCH  16  17
ATOM     17  C   UNL     1      47.500   6.416  13.681  0.00  0.00    +0.000 A 
ATOM     18  C   UNL     1      46.905   5.159  13.862  0.00  0.00    +0.000 A 
ATOM     19  C   UNL     1      47.170   4.401  15.007  0.00  0.00    +0.000 A 
ATOM     20  C   UNL     1      48.047   4.878  15.990  0.00  0.00    +0.000 A 
ATOM     21  C   UNL     1      48.663   6.120  15.798  0.00  0.00    +0.000 A 
ATOM     22  C   UNL     1      48.389   6.883  14.658  0.00  0.00    +0.000 A 
BRANCH  20  23
ATOM     23  C   UNL     1      48.294   4.082  17.245  0.00  0.00    +0.000 C 
BRANCH  23  24
ATOM     24  O   UNL     1      49.393   3.205  17.023  0.00  0.00    +0.000 OA
BRANCH  24  25
ATOM     25  C   UNL     1      50.510   3.539  17.835  0.00  0.00    +0.000 C 
BRANCH  25  26
ATOM     26  C   UNL     1      51.590   2.497  17.717  0.00  0.00    +0.000 C 
ATOM     27  C   UNL     1      53.011   2.767  18.000  0.00  0.00    +0.000 C 
ATOM     28  C   UNL     1      53.640   1.505  17.779  0.00  0.00    +0.000 C 
ATOM     29  C   UNL     1      52.653   0.672  17.419  0.00  0.00    +0.000 C 
ATOM     30  N   UNL     1      51.393   1.246  17.370  0.00  0.00    +0.000 NA
ENDBRANCH  25  26
ENDBRANCH  24  25
ENDBRANCH  23  24
ENDBRANCH  20  23
ENDBRANCH  16  17
ENDBRANCH   1  16
TORSDOF 8
ENDMDL
MODEL 7
REMARK VINA RESULT:    -6.487      3.209      9.479
REMARK INTER + INTRA:         -10.458
REMARK INTER:                  -9.431
REMARK INTRA:                  -1.027
REMARK UNBOUND:                -0.937
REMARK  Name = 
REMARK  9 active torsions:
REMARK  status: ('A' for Active; 'I' for Inactive)
REMARK    1  A    between atoms: C_1  and  C_2
REMARK    2  A    between atoms: C_2  and  N_3
REMARK    3  A    between atoms: C_2  and  C_19
REMARK    4  A    between atoms: N_3  and  C_4
REMARK    5  A    between atoms: C_4  and  C_5
REMARK    6  A    between atoms: C_8  and  C_9
REMARK    7  A    between atoms: C_9  and  O_10
REMARK    8  A    between atoms: O_10  and  C_11
REMARK    9  A    between atoms: C_11  and  C_12
REMARK                            x       y       z     vdW  Elec       q    Type
REMARK                         _______ _______ _______ _____ _____    ______ ____
ROOT
ATOM      1  N   UNL     1      47.166   5.087  15.749  0.00  0.00    +0.000 NA
ATOM      2  H   UNL     1      47.027   4.101  15.536  0.00  0.00    +0.000 HD
ENDROOT
BRANCH   1   4
ATOM      3  C   UNL     1      48.585   7.003  15.002  0.00  0.00    +0.000 C 
ATOM      4  C   UNL     1      47.890   5.693  14.623  0.00  0.00    +0.000 C 
BRANCH   4   5
ATOM      5  C   UNL     1      46.864   5.932  13.524  0.00  0.00    +0.000 A 
ATOM      6  C   UNL     1      46.550   7.177  12.995  0.00  0.00    +0.000 A 
ATOM      7  S   UNL     1      45.319   7.124  11.815  0.00  0.00    +0.000 S 
ATOM      8  C   UNL     1      45.199   5.430  11.933  0.00  0.00    +0.000 A 
ATOM      9  N   UNL     1      44.317   4.734  11.168  0.00  0.00    +0.000 NA
ATOM     10  C   UNL     1      44.360   3.454  11.345  0.00  0.00    +0.000 A 
ATOM     11  N   UNL     1      45.202   2.809  12.216  0.00  0.00    +0.000 N 
ATOM     12  C   UNL     1      46.105   3.473  13.019  0.00  0.00    +0.000 A 
ATOM     13  O   UNL     1      46.846   2.870  13.786  0.00  0.00    +0.000 OA
ATOM     14  C   UNL     1      46.087   4.915  12.859  0.00  0.00    +0.000 A 
ATOM     15  H   UNL     1      45.192   1.804  12.295  0.00  0.00    +0.000 HD
ENDBRANCH   4   5
ENDBRANCH   1   4
BRANCH   1  16
ATOM     16  C   UNL     1      47.854   5.178  17.034  0.00  0.00    +0.000 C 
BRANCH  16  17
ATOM     17  C   UNL     1      48.971   4.156  17.104  0.00  0.00    +0.000 A 
ATOM     18  C   UNL     1      48.723   2.800  16.841  0.00  0.00    +0.000 A 
ATOM     19  C   UNL     1      49.743   1.852  16.961  0.00  0.00    +0.000 A 
ATOM     20  C   UNL     1      51.038   2.239  17.333  0.00  0.00    +0.000 A 
ATOM     21  C   UNL     1      51.293   3.595  17.570  0.00  0.00    +0.000 A 
ATOM     22  C   UNL     1      50.270   4.542  17.461  0.00  0.00    +0.000 A 
BRANCH  20  23
ATOM     23  C   UNL     1      52.123   1.210  17.509  0.00  0.00    +0.000 C 
BRANCH  23  24
ATOM     24  O   UNL     1      52.953   1.598  18.599  0.00  0.00    +0.000 OA
BRANCH  24  25
ATOM     25  C   UNL     1      54.319   1.294  18.358  0.00  0.00    +0.000 C 
BRANCH  25  26
ATOM     26  C   UNL     1      54.634  -0.119  18.772  0.00  0.00    +0.000 C 
ATOM     27  C   UNL     1      54.842  -1.218  17.811  0.00  0.00    +0.000 C 
ATOM     28  C   UNL     1      55.129  -2.339  18.645  0.00  0.00    +0.000 C 
ATOM     29  C   UNL     1      55.074  -1.874  19.901  0.00  0.00    +0.000 C 
ATOM     30  N   UNL     1      54.773  -0.526  20.012  0.00  0.00    +0.000 NA
ENDBRANCH  25  26
ENDBRANCH  24  25
ENDBRANCH  23  24
ENDBRANCH  20  23
ENDBRANCH  16  17
ENDBRANCH   1  16
TORSDOF 8
ENDMDL
MODEL 8
REMARK VINA RESULT:    -6.419      3.743      8.607
REMARK INTER + INTRA:         -10.358
REMARK INTER:                  -8.880
REMARK INTRA:                  -1.478
REMARK UNBOUND:                -0.937
REMARK  Name = 
REMARK  9 active torsions:
REMARK  status: ('A' for Active; 'I' for Inactive)
REMARK    1  A    between atoms: C_1  and  C_2
REMARK    2  A    between atoms: C_2  and  N_3
REMARK    3  A    between atoms: C_2  and  C_19
REMARK    4  A    between atoms: N_3  and  C_4
REMARK    5  A    between atoms: C_4  and  C_5
REMARK    6  A    between atoms: C_8  and  C_9
REMARK    7  A    between atoms: C_9  and  O_10
REMARK    8  A    between atoms: O_10  and  C_11
REMARK    9  A    between atoms: C_11  and  C_12
REMARK                            x       y       z     vdW  Elec       q    Type
REMARK                         _______ _______ _______ _____ _____    ______ ____
ROOT
ATOM      1  N   UNL     1      46.776   7.835  13.817  0.00  0.00    +0.000 NA
ATOM      2  H   UNL     1      46.455   7.445  14.702  0.00  0.00    +0.000 HD
ENDROOT
BRANCH   1   4
ATOM      3  C   UNL     1      48.020   7.071  11.790  0.00  0.00    +0.000 C 
ATOM      4  C   UNL     1      47.021   6.718  12.896  0.00  0.00    +0.000 C 
BRANCH   4   5
ATOM      5  C   UNL     1      45.672   6.345  12.296  0.00  0.00    +0.000 A 
ATOM      6  C   UNL     1      44.815   7.237  11.663  0.00  0.00    +0.000 A 
ATOM      7  S   UNL     1      43.353   6.526  11.147  0.00  0.00    +0.000 S 
ATOM      8  C   UNL     1      43.836   4.991  11.704  0.00  0.00    +0.000 A 
ATOM      9  N   UNL     1      43.029   3.907  11.562  0.00  0.00    +0.000 NA
ATOM     10  C   UNL     1      43.540   2.806  12.005  0.00  0.00    +0.000 A 
ATOM     11  N   UNL     1      44.781   2.691  12.577  0.00  0.00    +0.000 N 
ATOM     12  C   UNL     1      45.631   3.762  12.753  0.00  0.00    +0.000 A 
ATOM     13  O   UNL     1      46.736   3.629  13.264  0.00  0.00    +0.000 OA
ATOM     14  C   UNL     1      45.095   5.024  12.275  0.00  0.00    +0.000 A 
ATOM     15  H   UNL     1      45.125   1.796  12.891  0.00  0.00    +0.000 HD
ENDBRANCH   4   5
ENDBRANCH   1   4
BRANCH   1  16
ATOM     16  C   UNL     1      47.944   8.667  14.090  0.00  0.00    +0.000 C 
BRANCH  16  17
ATOM     17  C   UNL     1      48.668   8.168  15.324  0.00  0.00    +0.000 A 
ATOM     18  C   UNL     1      48.356   8.674  16.595  0.00  0.00    +0.000 A 
ATOM     19  C   UNL     1      49.063   8.253  17.725  0.00  0.00    +0.000 A 
ATOM     20  C   UNL     1      50.089   7.305  17.612  0.00  0.00    +0.000 A 
ATOM     21  C   UNL     1      50.383   6.778  16.349  0.00  0.00    +0.000 A 
ATOM     22  C   UNL     1      49.684   7.208  15.217  0.00  0.00    +0.000 A 
BRANCH  20  23
ATOM     23  C   UNL     1      50.882   6.887  18.823  0.00  0.00    +0.000 C 
BRANCH  23  24
ATOM     24  O   UNL     1      50.894   5.465  18.896  0.00  0.00    +0.000 OA
BRANCH  24  25
ATOM     25  C   UNL     1      49.704   4.956  19.481  0.00  0.00    +0.000 C 
BRANCH  25  26
ATOM     26  C   UNL     1      48.856   4.260  18.451  0.00  0.00    +0.000 C 
ATOM     27  C   UNL     1      47.528   4.744  18.032  0.00  0.00    +0.000 C 
ATOM     28  C   UNL     1      47.124   3.797  17.044  0.00  0.00    +0.000 C 
ATOM     29  C   UNL     1      48.131   2.916  16.961  0.00  0.00    +0.000 C 
ATOM     30  N   UNL     1      49.199   3.169  17.806  0.00  0.00    +0.000 NA
ENDBRANCH  25  26
ENDBRANCH  24  25
ENDBRANCH  23  24
ENDBRANCH  20  23
ENDBRANCH  16  17
ENDBRANCH   1  16
TORSDOF 8
ENDMDL
MODEL 9
REMARK VINA RESULT:    -6.351      3.154      9.075
REMARK INTER + INTRA:         -10.259
REMARK INTER:                  -9.076
REMARK INTRA:                  -1.183
REMARK UNBOUND:                -0.937
REMARK  Name = 
REMARK  9 active torsions:
REMARK  status: ('A' for Active; 'I' for Inactive)
REMARK    1  A    between atoms: C_1  and  C_2
REMARK    2  A    between atoms: C_2  and  N_3
REMARK    3  A    between atoms: C_2  and  C_19
REMARK    4  A    between atoms: N_3  and  C_4
REMARK    5  A    between atoms: C_4  and  C_5
REMARK    6  A    between atoms: C_8  and  C_9
REMARK    7  A    between atoms: C_9  and  O_10
REMARK    8  A    between atoms: O_10  and  C_11
REMARK    9  A    between atoms: C_11  and  C_12
REMARK                            x       y       z     vdW  Elec       q    Type
REMARK                         _______ _______ _______ _____ _____    ______ ____
ROOT
ATOM      1  N   UNL     1      46.932   4.853  15.377  0.00  0.00    +0.000 NA
ATOM      2  H   UNL     1      46.909   3.852  15.189  0.00  0.00    +0.000 HD
ENDROOT
BRANCH   1   4
ATOM      3  C   UNL     1      48.405   6.746  14.677  0.00  0.00    +0.000 C 
ATOM      4  C   UNL     1      47.612   5.507  14.251  0.00  0.00    +0.000 C 
BRANCH   4   5
ATOM      5  C   UNL     1      46.529   5.884  13.250  0.00  0.00    +0.000 A 
ATOM      6  C   UNL     1      46.248   7.182  12.842  0.00  0.00    +0.000 A 
ATOM      7  S   UNL     1      44.940   7.285  11.752  0.00  0.00    +0.000 S 
ATOM      8  C   UNL     1      44.738   5.594  11.746  0.00  0.00    +0.000 A 
ATOM      9  N   UNL     1      43.771   5.006  10.992  0.00  0.00    +0.000 NA
ATOM     10  C   UNL     1      43.757   3.715  11.065  0.00  0.00    +0.000 A 
ATOM     11  N   UNL     1      44.618   2.962  11.822  0.00  0.00    +0.000 N 
ATOM     12  C   UNL     1      45.607   3.513  12.609  0.00  0.00    +0.000 A 
ATOM     13  O   UNL     1      46.365   2.815  13.272  0.00  0.00    +0.000 OA
ATOM     14  C   UNL     1      45.656   4.963  12.564  0.00  0.00    +0.000 A 
ATOM     15  H   UNL     1      44.560   1.955  11.823  0.00  0.00    +0.000 HD
ENDBRANCH   4   5
ENDBRANCH   1   4
BRANCH   1  16
ATOM     16  C   UNL     1      47.573   5.052  16.674  0.00  0.00    +0.000 C 
BRANCH  16  17
ATOM     17  C   UNL     1      48.697   4.052  16.862  0.00  0.00    +0.000 A 
ATOM     18  C   UNL     1      48.516   2.698  16.540  0.00  0.00    +0.000 A 
ATOM     19  C   UNL     1      49.535   1.768  16.768  0.00  0.00    +0.000 A 
ATOM     20  C   UNL     1      50.763   2.173  17.309  0.00  0.00    +0.000 A 
ATOM     21  C   UNL     1      50.954   3.527  17.606  0.00  0.00    +0.000 A 
ATOM     22  C   UNL     1      49.931   4.456  17.390  0.00  0.00    +0.000 A 
BRANCH  20  23
ATOM     23  C   UNL     1      51.842   1.162  17.598  0.00  0.00    +0.000 C 
BRANCH  23  24
ATOM     24  O   UNL     1      52.761   1.725  18.528  0.00  0.00    +0.000 OA
BRANCH  24  25
ATOM     25  C   UNL     1      54.109   1.517  18.131  0.00  0.00    +0.000 C 
BRANCH  25  26
ATOM     26  C   UNL     1      54.692   2.770  17.535  0.00  0.00    +0.000 C 
ATOM     27  C   UNL     1      54.472   4.114  18.099  0.00  0.00    +0.000 C 
ATOM     28  C   UNL     1      55.219   4.966  17.232  0.00  0.00    +0.000 C 
ATOM     29  C   UNL     1      55.766   4.154  16.318  0.00  0.00    +0.000 C 
ATOM     30  N   UNL     1      55.463   2.811  16.474  0.00  0.00    +0.000 NA
ENDBRANCH  25  26
ENDBRANCH  24  25
ENDBRANCH  23  24
ENDBRANCH  20  23
ENDBRANCH  16  17
ENDBRANCH   1  16
TORSDOF 8
ENDMDL
