MODEL 1
REMARK VINA RESULT:    -8.189      0.000      0.000
REMARK INTER + INTRA:         -13.301
REMARK INTER:                 -12.019
REMARK INTRA:                  -1.282
REMARK UNBOUND:                -1.282
REMARK  Name = 
REMARK  9 active torsions:
REMARK  status: ('A' for Active; 'I' for Inactive)
REMARK    1  A    between atoms: C_1  and  C_2
REMARK    2  A    between atoms: C_2  and  N_3
REMARK    3  A    between atoms: N_3  and  C_4
REMARK    4  A    between atoms: N_3  and  C_11
REMARK    5  A    between atoms: C_4  and  C_5
REMARK    6  A    between atoms: C_11  and  C_12
REMARK    7  A    between atoms: C_15  and  C_16
REMARK    8  A    between atoms: C_16  and  N_17
REMARK    9  A    between atoms: C_18  and  C_20
REMARK                            x       y       z     vdW  Elec       q    Type
REMARK                         _______ _______ _______ _____ _____    ______ ____
ROOT
ATOM      1  C   UNL     1      44.996   6.350  11.184  0.00  0.00    +0.000 A 
ATOM      2  C   UNL     1      46.371   6.167  11.046  0.00  0.00    +0.000 A 
ATOM      3  C   UNL     1      47.237   6.857  11.895  0.00  0.00    +0.000 A 
ATOM      4  C   UNL     1      46.726   7.742  12.846  0.00  0.00    +0.000 A 
ATOM      5  C   UNL     1      45.343   7.884  12.893  0.00  0.00    +0.000 A 
ATOM      6  N   UNL     1      44.475   7.212  12.095  0.00  0.00    +0.000 NA
ENDROOT
BRANCH   1   7
ATOM      7  C   UNL     1      44.018   5.528  10.342  0.00  0.00    +0.000 C 
BRANCH   7   8
ATOM      8  N   UNL     1      44.481   4.136  10.035  0.00  0.00    +0.000 NA
BRANCH   8  10
ATOM      9  C   UNL     1      43.820   3.105  12.272  0.00  0.00    +0.000 C 
ATOM     10  C   UNL     1      43.597   3.189  10.765  0.00  0.00    +0.000 C 
ENDBRANCH   8  10
BRANCH   8  11
ATOM     11  C   UNL     1      44.419   3.871   8.575  0.00  0.00    +0.000 C 
BRANCH  11  12
ATOM     12  C   UNL     1      45.535   3.046   7.951  0.00  0.00    +0.000 A 
ATOM     13  C   UNL     1      46.401   3.528   6.960  0.00  0.00    +0.000 A 
ATOM     14  C   UNL     1      47.363   2.688   6.386  0.00  0.00    +0.000 A 
ATOM     15  C   UNL     1      47.511   1.377   6.832  0.00  0.00    +0.000 A 
ATOM     16  C   UNL     1      46.722   0.911   7.879  0.00  0.00    +0.000 A 
ATOM     17  C   UNL     1      45.748   1.741   8.437  0.00  0.00    +0.000 A 
ENDBRANCH  11  12
ENDBRANCH   8  11
ENDBRANCH   7   8
ENDBRANCH   1   7
BRANCH   4  18
ATOM     18  C   UNL     1      47.625   8.479  13.796  0.00  0.00    +0.000 C 
BRANCH  18  19
ATOM     19  N   UNL     1      47.918   7.705  14.981  0.00  0.00    +0.000 N 
ATOM     20  C   UNL     1      49.095   7.003  15.085  0.00  0.00    +0.000 C 
ATOM     21  O   UNL     1      49.949   7.047  14.200  0.00  0.00    +0.000 OA
ATOM     22  H   UNL     1      47.149   7.483  15.607  0.00  0.00    +0.000 HD
BRANCH  20  23
ATOM     23  C   UNL     1      49.320   6.233  16.318  0.00  0.00    +0.000 A 
ATOM     24  C   UNL     1      50.341   6.613  17.180  0.00  0.00    +0.000 A 
ATOM     25  S   UNL     1      50.457   5.644  18.578  0.00  0.00    +0.000 S 
ATOM     26  C   UNL     1      49.172   4.653  18.062  0.00  0.00    +0.000 A 
ATOM     27  N   UNL     1      48.773   3.589  18.809  0.00  0.00    +0.000 NA
ATOM     28  C   UNL     1      47.812   2.906  18.288  0.00  0.00    +0.000 A 
ATOM     29  N   UNL     1      47.204   3.200  17.091  0.00  0.00    +0.000 N 
ATOM     30  C   UNL     1      47.554   4.280  16.316  0.00  0.00    +0.000 A 
ATOM     31  O   UNL     1      46.968   4.536  15.273  0.00  0.00    +0.000 OA
ATOM     32  C   UNL     1      48.646   5.072  16.852  0.00  0.00    +0.000 A 
ATOM     33  H   UNL     1      46.446   2.629  16.745  0.00  0.00    +0.000 HD
ENDBRANCH  20  23
ENDBRANCH  18  19
ENDBRANCH   4  18
TORSDOF 8
ENDMDL
MODEL 2
REMARK VINA RESULT:    -7.746      2.179      2.648
REMARK INTER + INTRA:         -12.651
REMARK INTER:                 -11.710
REMARK INTRA:                  -0.941
REMARK UNBOUND:                -1.282
REMARK  Name = 
REMARK  9 active torsions:
REMARK  status: ('A' for Active; 'I' for Inactive)
REMARK    1  A    between atoms: C_1  and  C_2
REMARK    2  A    between atoms: C_2  and  N_3
REMARK    3  A    between atoms: N_3  and  C_4
REMARK    4  A    between atoms: N_3  and  C_11
REMARK    5  A    between atoms: C_4  and  C_5
REMARK    6  A    between atoms: C_11  and  C_12
REMARK    7  A    between atoms: C_15  and  C_16
REMARK    8  A    between atoms: C_16  and  N_17
REMARK    9  A    between atoms: C_18  and  C_20
REMARK                            x       y       z     vdW  Elec       q    Type
REMARK                         _______ _______ _______ _____ _____    ______ ____
ROOT
ATOM      1  C   UNL     1      46.662   6.210  11.943  0.00  0.00    +0.000 A 
ATOM      2  C   UNL     1      46.897   5.269  12.944  0.00  0.00    +0.000 A 
ATOM      3  C   UNL     1      47.540   5.669  14.115  0.00  0.00    +0.000 A 
ATOM      4  C   UNL     1      47.969   6.989  14.262  0.00  0.00    +0.000 A 
ATOM      5  C   UNL     1      47.719   7.853  13.200  0.00  0.00    +0.000 A 
ATOM      6  N   UNL     1      47.078   7.498  12.058  0.00  0.00    +0.000 NA
ENDROOT
BRANCH   1   7
ATOM      7  C   UNL     1      45.865   5.829  10.694  0.00  0.00    +0.000 C 
BRANCH   7   8
ATOM      8  N   UNL     1      44.725   4.891  10.947  0.00  0.00    +0.000 NA
BRANCH   8  10
ATOM      9  C   UNL     1      43.085   4.972  12.899  0.00  0.00    +0.000 C 
ATOM     10  C   UNL     1      43.659   5.648  11.657  0.00  0.00    +0.000 C 
ENDBRANCH   8  10
BRANCH   8  11
ATOM     11  C   UNL     1      44.199   4.345   9.670  0.00  0.00    +0.000 C 
BRANCH  11  12
ATOM     12  C   UNL     1      45.110   3.445   8.848  0.00  0.00    +0.000 A 
ATOM     13  C   UNL     1      45.220   2.062   9.040  0.00  0.00    +0.000 A 
ATOM     14  C   UNL     1      46.128   1.308   8.287  0.00  0.00    +0.000 A 
ATOM     15  C   UNL     1      46.898   1.916   7.297  0.00  0.00    +0.000 A 
ATOM     16  C   UNL     1      46.734   3.271   7.031  0.00  0.00    +0.000 A 
ATOM     17  C   UNL     1      45.843   4.027   7.796  0.00  0.00    +0.000 A 
ENDBRANCH  11  12
ENDBRANCH   8  11
ENDBRANCH   7   8
ENDBRANCH   1   7
BRANCH   4  18
ATOM     18  C   UNL     1      48.637   7.462  15.520  0.00  0.00    +0.000 C 
BRANCH  18  19
ATOM     19  N   UNL     1      49.707   6.583  15.934  0.00  0.00    +0.000 N 
ATOM     20  C   UNL     1      49.688   5.995  17.176  0.00  0.00    +0.000 C 
ATOM     21  O   UNL     1      48.747   6.159  17.950  0.00  0.00    +0.000 OA
ATOM     22  H   UNL     1      50.577   6.613  15.409  0.00  0.00    +0.000 HD
BRANCH  20  23
ATOM     23  C   UNL     1      50.815   5.118  17.528  0.00  0.00    +0.000 A 
ATOM     24  C   UNL     1      51.996   5.682  17.997  0.00  0.00    +0.000 A 
ATOM     25  S   UNL     1      53.197   4.538  18.390  0.00  0.00    +0.000 S 
ATOM     26  C   UNL     1      52.199   3.246  17.908  0.00  0.00    +0.000 A 
ATOM     27  N   UNL     1      52.647   1.963  17.965  0.00  0.00    +0.000 NA
ATOM     28  C   UNL     1      51.802   1.086  17.541  0.00  0.00    +0.000 A 
ATOM     29  N   UNL     1      50.542   1.376  17.076  0.00  0.00    +0.000 N 
ATOM     30  C   UNL     1      50.036   2.653  17.026  0.00  0.00    +0.000 A 
ATOM     31  O   UNL     1      48.895   2.875  16.641  0.00  0.00    +0.000 OA
ATOM     32  C   UNL     1      50.957   3.681  17.477  0.00  0.00    +0.000 A 
ATOM     33  H   UNL     1      49.924   0.638  16.770  0.00  0.00    +0.000 HD
ENDBRANCH  20  23
ENDBRANCH  18  19
ENDBRANCH   4  18
TORSDOF 8
ENDMDL
MODEL 3
REMARK VINA RESULT:    -7.192      2.754      3.988
REMARK INTER + INTRA:         -11.838
REMARK INTER:                 -10.640
REMARK INTRA:                  -1.198
REMARK UNBOUND:                -1.282
REMARK  Name = 
REMARK  9 active torsions:
REMARK  status: ('A' for Active; 'I' for Inactive)
REMARK    1  A    between atoms: C_1  and  C_2
REMARK    2  A    between atoms: C_2  and  N_3
REMARK    3  A    between atoms: N_3  and  C_4
REMARK    4  A    between atoms: N_3  and  C_11
REMARK    5  A    between atoms: C_4  and  C_5
REMARK    6  A    between atoms: C_11  and  C_12
REMARK    7  A    between atoms: C_15  and  C_16
REMARK    8  A    between atoms: C_16  and  N_17
REMARK    9  A    between atoms: C_18  and  C_20
REMARK                            x       y       z     vdW  Elec       q    Type
REMARK                         _______ _______ _______ _____ _____    ______ ____
ROOT
ATOM      1  C   UNL     1      46.448   5.204  12.362  0.00  0.00    +0.000 A 
ATOM      2  C   UNL     1      46.226   3.942  12.908  0.00  0.00    +0.000 A 
ATOM      3  C   UNL     1      46.659   3.678  14.207  0.00  0.00    +0.000 A 
ATOM      4  C   UNL     1      47.335   4.661  14.933  0.00  0.00    +0.000 A 
ATOM      5  C   UNL     1      47.538   5.882  14.297  0.00  0.00    +0.000 A 
ATOM      6  N   UNL     1      47.111   6.174  13.043  0.00  0.00    +0.000 NA
ENDROOT
BRANCH   1   7
ATOM      7  C   UNL     1      45.890   5.559  10.981  0.00  0.00    +0.000 C 
BRANCH   7   8
ATOM      8  N   UNL     1      44.547   4.966  10.683  0.00  0.00    +0.000 NA
BRANCH   8  10
ATOM      9  C   UNL     1      42.364   5.321  11.953  0.00  0.00    +0.000 C 
ATOM     10  C   UNL     1      43.510   5.926  11.146  0.00  0.00    +0.000 C 
ENDBRANCH   8  10
BRANCH   8  11
ATOM     11  C   UNL     1      44.395   4.713   9.228  0.00  0.00    +0.000 C 
BRANCH  11  12
ATOM     12  C   UNL     1      45.257   3.629   8.597  0.00  0.00    +0.000 A 
ATOM     13  C   UNL     1      45.155   2.268   8.913  0.00  0.00    +0.000 A 
ATOM     14  C   UNL     1      46.027   1.335   8.339  0.00  0.00    +0.000 A 
ATOM     15  C   UNL     1      46.973   1.741   7.400  0.00  0.00    +0.000 A 
ATOM     16  C   UNL     1      47.026   3.073   7.005  0.00  0.00    +0.000 A 
ATOM     17  C   UNL     1      46.171   4.007   7.594  0.00  0.00    +0.000 A 
ENDBRANCH  11  12
ENDBRANCH   8  11
ENDBRANCH   7   8
ENDBRANCH   1   7
BRANCH   4  18
ATOM     18  C   UNL     1      47.789   4.423  16.343  0.00  0.00    +0.000 C 
BRANCH  18  19
ATOM     19  N   UNL     1      47.499   5.546  17.207  0.00  0.00    +0.000 N 
ATOM     20  C   UNL     1      48.518   6.256  17.796  0.00  0.00    +0.000 C 
ATOM     21  O   UNL     1      49.698   5.991  17.573  0.00  0.00    +0.000 OA
ATOM     22  H   UNL     1      46.554   5.636  17.569  0.00  0.00    +0.000 HD
BRANCH  20  23
ATOM     23  C   UNL     1      48.145   7.381  18.667  0.00  0.00    +0.000 A 
ATOM     24  C   UNL     1      47.917   7.149  20.018  0.00  0.00    +0.000 A 
ATOM     25  S   UNL     1      47.522   8.553  20.901  0.00  0.00    +0.000 S 
ATOM     26  C   UNL     1      47.600   9.518  19.501  0.00  0.00    +0.000 A 
ATOM     27  N   UNL     1      47.332  10.850  19.561  0.00  0.00    +0.000 NA
ATOM     28  C   UNL     1      47.396  11.456  18.425  0.00  0.00    +0.000 A 
ATOM     29  N   UNL     1      47.717  10.851  17.233  0.00  0.00    +0.000 N 
ATOM     30  C   UNL     1      48.022   9.514  17.129  0.00  0.00    +0.000 A 
ATOM     31  O   UNL     1      48.340   9.012  16.059  0.00  0.00    +0.000 OA
ATOM     32  C   UNL     1      47.947   8.783  18.381  0.00  0.00    +0.000 A 
ATOM     33  H   UNL     1      47.761  11.387  16.379  0.00  0.00    +0.000 HD
ENDBRANCH  20  23
ENDBRANCH  18  19
ENDBRANCH   4  18
TORSDOF 8
ENDMDL
MODEL 4
REMARK VINA RESULT:    -6.837      3.081      8.433
REMARK INTER + INTRA:         -11.316
REMARK INTER:                  -9.844
REMARK INTRA:                  -1.472
REMARK UNBOUND:                -1.282
REMARK  Name = 
REMARK  9 active torsions:
REMARK  status: ('A' for Active; 'I' for Inactive)
REMARK    1  A    between atoms: C_1  and  C_2
REMARK    2  A    between atoms: C_2  and  N_3
REMARK    3  A    between atoms: N_3  and  C_4
REMARK    4  A    between atoms: N_3  and  C_11
REMARK    5  A    between atoms: C_4  and  C_5
REMARK    6  A    between atoms: C_11  and  C_12
REMARK    7  A    between atoms: C_15  and  C_16
REMARK    8  A    between atoms: C_16  and  N_17
REMARK    9  A    between atoms: C_18  and  C_20
REMARK                            x       y       z     vdW  Elec       q    Type
REMARK                         _______ _______ _______ _____ _____    ______ ____
ROOT
ATOM      1  C   UNL     1      49.873   8.045  14.875  0.00  0.00    +0.000 A 
ATOM      2  C   UNL     1      48.998   9.130  14.880  0.00  0.00    +0.000 A 
ATOM      3  C   UNL     1      47.933   9.148  13.980  0.00  0.00    +0.000 A 
ATOM      4  C   UNL     1      47.769   8.104  13.068  0.00  0.00    +0.000 A 
ATOM      5  C   UNL     1      48.707   7.077  13.115  0.00  0.00    +0.000 A 
ATOM      6  N   UNL     1      49.741   7.022  13.991  0.00  0.00    +0.000 NA
ENDROOT
BRANCH   1   7
ATOM      7  C   UNL     1      50.987   7.944  15.919  0.00  0.00    +0.000 C 
BRANCH   7   8
ATOM      8  N   UNL     1      51.380   6.543  16.274  0.00  0.00    +0.000 NA
BRANCH   8  10
ATOM      9  C   UNL     1      53.368   5.399  17.390  0.00  0.00    +0.000 C 
ATOM     10  C   UNL     1      52.851   6.523  16.496  0.00  0.00    +0.000 C 
ENDBRANCH   8  10
BRANCH   8  11
ATOM     11  C   UNL     1      50.673   6.092  17.499  0.00  0.00    +0.000 C 
BRANCH  11  12
ATOM     12  C   UNL     1      49.656   4.968  17.365  0.00  0.00    +0.000 A 
ATOM     13  C   UNL     1      49.973   3.610  17.498  0.00  0.00    +0.000 A 
ATOM     14  C   UNL     1      48.995   2.628  17.297  0.00  0.00    +0.000 A 
ATOM     15  C   UNL     1      47.680   2.990  17.016  0.00  0.00    +0.000 A 
ATOM     16  C   UNL     1      47.329   4.335  16.973  0.00  0.00    +0.000 A 
ATOM     17  C   UNL     1      48.308   5.314  17.152  0.00  0.00    +0.000 A 
ENDBRANCH  11  12
ENDBRANCH   8  11
ENDBRANCH   7   8
ENDBRANCH   1   7
BRANCH   4  18
ATOM     18  C   UNL     1      46.618   8.075  12.107  0.00  0.00    +0.000 C 
BRANCH  18  19
ATOM     19  N   UNL     1      46.195   6.727  11.802  0.00  0.00    +0.000 N 
ATOM     20  C   UNL     1      44.875   6.452  11.531  0.00  0.00    +0.000 C 
ATOM     21  O   UNL     1      44.028   7.344  11.493  0.00  0.00    +0.000 OA
ATOM     22  H   UNL     1      46.823   5.965  12.042  0.00  0.00    +0.000 HD
BRANCH  20  23
ATOM     23  C   UNL     1      44.520   5.056  11.237  0.00  0.00    +0.000 A 
ATOM     24  C   UNL     1      43.740   4.346  12.143  0.00  0.00    +0.000 A 
ATOM     25  S   UNL     1      43.389   2.753  11.650  0.00  0.00    +0.000 S 
ATOM     26  C   UNL     1      44.302   2.937  10.224  0.00  0.00    +0.000 A 
ATOM     27  N   UNL     1      44.436   1.906   9.348  0.00  0.00    +0.000 NA
ATOM     28  C   UNL     1      45.178   2.170   8.327  0.00  0.00    +0.000 A 
ATOM     29  N   UNL     1      45.788   3.380   8.097  0.00  0.00    +0.000 N 
ATOM     30  C   UNL     1      45.659   4.458   8.939  0.00  0.00    +0.000 A 
ATOM     31  O   UNL     1      46.186   5.534   8.688  0.00  0.00    +0.000 OA
ATOM     32  C   UNL     1      44.845   4.206  10.115  0.00  0.00    +0.000 A 
ATOM     33  H   UNL     1      46.348   3.524   7.269  0.00  0.00    +0.000 HD
ENDBRANCH  20  23
ENDBRANCH  18  19
ENDBRANCH   4  18
TORSDOF 8
ENDMDL
MODEL 5
REMARK VINA RESULT:    -6.733      4.100      9.191
REMARK INTER + INTRA:         -11.163
REMARK INTER:                  -9.888
REMARK INTRA:                  -1.275
REMARK UNBOUND:                -1.282
REMARK  Name = 
REMARK  9 active torsions:
REMARK  status: ('A' for Active; 'I' for Inactive)
REMARK    1  A    between atoms: C_1  and  C_2
REMARK    2  A    between atoms: C_2  and  N_3
REMARK    3  A    between atoms: N_3  and  C_4
REMARK    4  A    between atoms: N_3  and  C_11
REMARK    5  A    between atoms: C_4  and  C_5
REMARK    6  A    between atoms: C_11  and  C_12
REMARK    7  A    between atoms: C_15  and  C_16
REMARK    8  A    between atoms: C_16  and  N_17
REMARK    9  A    between atoms: C_18  and  C_20
REMARK                            x       y       z     vdW  Elec       q    Type
REMARK                         _______ _______ _______ _____ _____    ______ ____
ROOT
ATOM      1  C   UNL     1      51.145   4.122  18.214  0.00  0.00    +0.000 A 
ATOM      2  C   UNL     1      50.884   2.938  17.527  0.00  0.00    +0.000 A 
ATOM      3  C   UNL     1      49.584   2.676  17.095  0.00  0.00    +0.000 A 
ATOM      4  C   UNL     1      48.557   3.579  17.378  0.00  0.00    +0.000 A 
ATOM      5  C   UNL     1      48.904   4.720  18.094  0.00  0.00    +0.000 A 
ATOM      6  N   UNL     1      50.163   5.012  18.510  0.00  0.00    +0.000 NA
ENDROOT
BRANCH   1   7
ATOM      7  C   UNL     1      52.578   4.488  18.607  0.00  0.00    +0.000 C 
BRANCH   7   8
ATOM      8  N   UNL     1      53.574   4.383  17.493  0.00  0.00    +0.000 NA
BRANCH   8  10
ATOM      9  C   UNL     1      53.074   6.558  16.256  0.00  0.00    +0.000 C 
ATOM     10  C   UNL     1      54.022   5.759  17.148  0.00  0.00    +0.000 C 
ENDBRANCH   8  10
BRANCH   8  11
ATOM     11  C   UNL     1      54.737   3.556  17.903  0.00  0.00    +0.000 C 
BRANCH  11  12
ATOM     12  C   UNL     1      54.832   2.138  17.359  0.00  0.00    +0.000 A 
ATOM     13  C   UNL     1      55.660   1.764  16.292  0.00  0.00    +0.000 A 
ATOM     14  C   UNL     1      55.646   0.452  15.805  0.00  0.00    +0.000 A 
ATOM     15  C   UNL     1      54.849  -0.517  16.411  0.00  0.00    +0.000 A 
ATOM     16  C   UNL     1      54.091  -0.185  17.529  0.00  0.00    +0.000 A 
ATOM     17  C   UNL     1      54.089   1.129  18.002  0.00  0.00    +0.000 A 
ENDBRANCH  11  12
ENDBRANCH   8  11
ENDBRANCH   7   8
ENDBRANCH   1   7
BRANCH   4  18
ATOM     18  C   UNL     1      47.153   3.345  16.903  0.00  0.00    +0.000 C 
BRANCH  18  19
ATOM     19  N   UNL     1      46.723   4.350  15.957  0.00  0.00    +0.000 N 
ATOM     20  C   UNL     1      46.849   4.137  14.604  0.00  0.00    +0.000 C 
ATOM     21  O   UNL     1      47.285   3.077  14.159  0.00  0.00    +0.000 OA
ATOM     22  H   UNL     1      46.572   5.294  16.301  0.00  0.00    +0.000 HD
BRANCH  20  23
ATOM     23  C   UNL     1      46.395   5.208  13.704  0.00  0.00    +0.000 A 
ATOM     24  C   UNL     1      47.224   6.300  13.473  0.00  0.00    +0.000 A 
ATOM     25  S   UNL     1      46.573   7.441  12.387  0.00  0.00    +0.000 S 
ATOM     26  C   UNL     1      45.138   6.539  12.217  0.00  0.00    +0.000 A 
ATOM     27  N   UNL     1      44.126   6.987  11.427  0.00  0.00    +0.000 NA
ATOM     28  C   UNL     1      43.086   6.225  11.413  0.00  0.00    +0.000 A 
ATOM     29  N   UNL     1      42.974   5.045  12.109  0.00  0.00    +0.000 N 
ATOM     30  C   UNL     1      43.980   4.538  12.897  0.00  0.00    +0.000 A 
ATOM     31  O   UNL     1      43.862   3.466  13.475  0.00  0.00    +0.000 OA
ATOM     32  C   UNL     1      45.168   5.371  12.960  0.00  0.00    +0.000 A 
ATOM     33  H   UNL     1      42.134   4.487  12.044  0.00  0.00    +0.000 HD
ENDBRANCH  20  23
ENDBRANCH  18  19
ENDBRANCH   4  18
TORSDOF 8
ENDMDL
MODEL 6
REMARK VINA RESULT:    -6.580      2.139      2.514
REMARK INTER + INTRA:         -10.940
REMARK INTER:                 -10.014
REMARK INTRA:                  -0.926
REMARK UNBOUND:                -1.282
REMARK  Name = 
REMARK  9 active torsions:
REMARK  status: ('A' for Active; 'I' for Inactive)
REMARK    1  A    between atoms: C_1  and  C_2
REMARK    2  A    between atoms: C_2  and  N_3
REMARK    3  A    between atoms: N_3  and  C_4
REMARK    4  A    between atoms: N_3  and  C_11
REMARK    5  A    between atoms: C_4  and  C_5
REMARK    6  A    between atoms: C_11  and  C_12
REMARK    7  A    between atoms: C_15  and  C_16
REMARK    8  A    between atoms: C_16  and  N_17
REMARK    9  A    between atoms: C_18  and  C_20
REMARK                            x       y       z     vdW  Elec       q    Type
REMARK                         _______ _______ _______ _____ _____    ______ ____
ROOT
ATOM      1  C   UNL     1      45.825   6.701  11.394  0.00  0.00    +0.000 A 
ATOM      2  C   UNL     1      45.230   7.849  11.915  0.00  0.00    +0.000 A 
ATOM      3  C   UNL     1      45.895   8.567  12.909  0.00  0.00    +0.000 A 
ATOM      4  C   UNL     1      47.125   8.118  13.393  0.00  0.00    +0.000 A 
ATOM      5  C   UNL     1      47.629   6.947  12.836  0.00  0.00    +0.000 A 
ATOM      6  N   UNL     1      47.016   6.238  11.855  0.00  0.00    +0.000 NA
ENDROOT
BRANCH   1   7
ATOM      7  C   UNL     1      45.173   5.952  10.230  0.00  0.00    +0.000 C 
BRANCH   7   8
ATOM      8  N   UNL     1      44.855   4.516  10.516  0.00  0.00    +0.000 NA
BRANCH   8  10
ATOM      9  C   UNL     1      44.262   3.764  12.881  0.00  0.00    +0.000 C 
ATOM     10  C   UNL     1      43.838   4.480  11.601  0.00  0.00    +0.000 C 
ENDBRANCH   8  10
BRANCH   8  11
ATOM     11  C   UNL     1      44.330   3.841   9.302  0.00  0.00    +0.000 C 
BRANCH  11  12
ATOM     12  C   UNL     1      45.308   3.056   8.442  0.00  0.00    +0.000 A 
ATOM     13  C   UNL     1      45.636   1.711   8.661  0.00  0.00    +0.000 A 
ATOM     14  C   UNL     1      46.595   1.073   7.866  0.00  0.00    +0.000 A 
ATOM     15  C   UNL     1      47.197   1.750   6.808  0.00  0.00    +0.000 A 
ATOM     16  C   UNL     1      46.815   3.056   6.518  0.00  0.00    +0.000 A 
ATOM     17  C   UNL     1      45.875   3.699   7.324  0.00  0.00    +0.000 A 
ENDBRANCH  11  12
ENDBRANCH   8  11
ENDBRANCH   7   8
ENDBRANCH   1   7
BRANCH   4  18
ATOM     18  C   UNL     1      47.882   8.881  14.440  0.00  0.00    +0.000 C 
BRANCH  18  19
ATOM     19  N   UNL     1      47.917   8.184  15.706  0.00  0.00    +0.000 N 
ATOM     20  C   UNL     1      48.822   8.541  16.677  0.00  0.00    +0.000 C 
ATOM     21  O   UNL     1      49.594   9.486  16.519  0.00  0.00    +0.000 OA
ATOM     22  H   UNL     1      47.451   7.283  15.766  0.00  0.00    +0.000 HD
BRANCH  20  23
ATOM     23  C   UNL     1      48.801   7.782  17.936  0.00  0.00    +0.000 A 
ATOM     24  C   UNL     1      47.855   8.096  18.905  0.00  0.00    +0.000 A 
ATOM     25  S   UNL     1      47.937   7.110  20.293  0.00  0.00    +0.000 S 
ATOM     26  C   UNL     1      49.269   6.253  19.669  0.00  0.00    +0.000 A 
ATOM     27  N   UNL     1      49.858   5.263  20.393  0.00  0.00    +0.000 NA
ATOM     28  C   UNL     1      50.875   4.717  19.817  0.00  0.00    +0.000 A 
ATOM     29  N   UNL     1      51.348   5.065  18.575  0.00  0.00    +0.000 N 
ATOM     30  C   UNL     1      50.769   6.038  17.796  0.00  0.00    +0.000 A 
ATOM     31  O   UNL     1      51.193   6.299  16.678  0.00  0.00    +0.000 OA
ATOM     32  C   UNL     1      49.629   6.696  18.408  0.00  0.00    +0.000 A 
ATOM     33  H   UNL     1      52.144   4.588  18.176  0.00  0.00    +0.000 HD
ENDBRANCH  20  23
ENDBRANCH  18  19
ENDBRANCH   4  18
TORSDOF 8
ENDMDL
MODEL 7
REMARK VINA RESULT:    -6.564      3.661      8.968
REMARK INTER + INTRA:         -10.916
REMARK INTER:                  -9.309
REMARK INTRA:                  -1.607
REMARK UNBOUND:                -1.282
REMARK  Name = 
REMARK  9 active torsions:
REMARK  status: ('A' for Active; 'I' for Inactive)
REMARK    1  A    between atoms: C_1  and  C_2
REMARK    2  A    between atoms: C_2  and  N_3
REMARK    3  A    between atoms: N_3  and  C_4
REMARK    4  A    between atoms: N_3  and  C_11
REMARK    5  A    between atoms: C_4  and  C_5
REMARK    6  A    between atoms: C_11  and  C_12
REMARK    7  A    between atoms: C_15  and  C_16
REMARK    8  A    between atoms: C_16  and  N_17
REMARK    9  A    between atoms: C_18  and  C_20
REMARK                            x       y       z     vdW  Elec       q    Type
REMARK                         _______ _______ _______ _____ _____    ______ ____
ROOT
ATOM      1  C   UNL     1      51.143   3.886  18.406  0.00  0.00    +0.000 A 
ATOM      2  C   UNL     1      50.879   2.844  17.519  0.00  0.00    +0.000 A 
ATOM      3  C   UNL     1      49.575   2.657  17.059  0.00  0.00    +0.000 A 
ATOM      4  C   UNL     1      48.548   3.488  17.511  0.00  0.00    +0.000 A 
ATOM      5  C   UNL     1      48.899   4.484  18.417  0.00  0.00    +0.000 A 
ATOM      6  N   UNL     1      50.160   4.702  18.867  0.00  0.00    +0.000 NA
ENDROOT
BRANCH   1   7
ATOM      7  C   UNL     1      52.579   4.183  18.845  0.00  0.00    +0.000 C 
BRANCH   7   8
ATOM      8  N   UNL     1      53.038   5.580  18.559  0.00  0.00    +0.000 NA
BRANCH   8  10
ATOM      9  C   UNL     1      55.501   6.172  18.858  0.00  0.00    +0.000 C 
ATOM     10  C   UNL     1      54.144   5.900  19.501  0.00  0.00    +0.000 C 
ENDBRANCH   8  10
BRANCH   8  11
ATOM     11  C   UNL     1      53.511   5.702  17.157  0.00  0.00    +0.000 C 
BRANCH  11  12
ATOM     12  C   UNL     1      52.714   6.586  16.208  0.00  0.00    +0.000 A 
ATOM     13  C   UNL     1      51.320   6.714  16.248  0.00  0.00    +0.000 A 
ATOM     14  C   UNL     1      50.649   7.497  15.300  0.00  0.00    +0.000 A 
ATOM     15  C   UNL     1      51.365   8.205  14.337  0.00  0.00    +0.000 A 
ATOM     16  C   UNL     1      52.756   8.162  14.341  0.00  0.00    +0.000 A 
ATOM     17  C   UNL     1      53.423   7.365  15.273  0.00  0.00    +0.000 A 
ENDBRANCH  11  12
ENDBRANCH   8  11
ENDBRANCH   7   8
ENDBRANCH   1   7
BRANCH   4  18
ATOM     18  C   UNL     1      47.140   3.336  17.014  0.00  0.00    +0.000 C 
BRANCH  18  19
ATOM     19  N   UNL     1      46.794   4.344  16.037  0.00  0.00    +0.000 N 
ATOM     20  C   UNL     1      46.958   4.102  14.694  0.00  0.00    +0.000 C 
ATOM     21  O   UNL     1      47.357   3.013  14.282  0.00  0.00    +0.000 OA
ATOM     22  H   UNL     1      46.678   5.300  16.361  0.00  0.00    +0.000 HD
BRANCH  20  23
ATOM     23  C   UNL     1      46.590   5.177  13.761  0.00  0.00    +0.000 A 
ATOM     24  C   UNL     1      47.484   6.217  13.534  0.00  0.00    +0.000 A 
ATOM     25  S   UNL     1      46.928   7.370  12.408  0.00  0.00    +0.000 S 
ATOM     26  C   UNL     1      45.452   6.544  12.212  0.00  0.00    +0.000 A 
ATOM     27  N   UNL     1      44.490   7.030  11.384  0.00  0.00    +0.000 NA
ATOM     28  C   UNL     1      43.411   6.325  11.352  0.00  0.00    +0.000 A 
ATOM     29  N   UNL     1      43.213   5.168  12.066  0.00  0.00    +0.000 N 
ATOM     30  C   UNL     1      44.167   4.623  12.893  0.00  0.00    +0.000 A 
ATOM     31  O   UNL     1      43.974   3.571  13.487  0.00  0.00    +0.000 OA
ATOM     32  C   UNL     1      45.396   5.391  12.976  0.00  0.00    +0.000 A 
ATOM     33  H   UNL     1      42.346   4.656  11.986  0.00  0.00    +0.000 HD
ENDBRANCH  20  23
ENDBRANCH  18  19
ENDBRANCH   4  18
TORSDOF 8
ENDMDL
MODEL 8
REMARK VINA RESULT:    -6.423      3.557      8.092
REMARK INTER + INTRA:         -10.710
REMARK INTER:                  -8.540
REMARK INTRA:                  -2.169
REMARK UNBOUND:                -1.282
REMARK  Name = 
REMARK  9 active torsions:
REMARK  status: ('A' for Active; 'I' for Inactive)
REMARK    1  A    between atoms: C_1  and  C_2
REMARK    2  A    between atoms: C_2  and  N_3
REMARK    3  A    between atoms: N_3  and  C_4
REMARK    4  A    between atoms: N_3  and  C_11
REMARK    5  A    between atoms: C_4  and  C_5
REMARK    6  A    between atoms: C_11  and  C_12
REMARK    7  A    between atoms: C_15  and  C_16
REMARK    8  A    between atoms: C_16  and  N_17
REMARK    9  A    between atoms: C_18  and  C_20
REMARK                            x       y       z     vdW  Elec       q    Type
REMARK                         _______ _______ _______ _____ _____    ______ ____
ROOT
ATOM      1  C   UNL     1      51.315   7.138  16.848  0.00  0.00    +0.000 A 
ATOM      2  C   UNL     1      50.555   8.034  17.598  0.00  0.00    +0.000 A 
ATOM      3  C   UNL     1      49.503   8.712  16.984  0.00  0.00    +0.000 A 
ATOM      4  C   UNL     1      49.241   8.515  15.626  0.00  0.00    +0.000 A 
ATOM      5  C   UNL     1      50.069   7.625  14.950  0.00  0.00    +0.000 A 
ATOM      6  N   UNL     1      51.087   6.936  15.525  0.00  0.00    +0.000 NA
ENDROOT
BRANCH   1   7
ATOM      7  C   UNL     1      52.406   6.299  17.518  0.00  0.00    +0.000 C 
BRANCH   7   8
ATOM      8  N   UNL     1      52.116   4.830  17.570  0.00  0.00    +0.000 NA
BRANCH   8  10
ATOM      9  C   UNL     1      53.292   3.268  19.208  0.00  0.00    +0.000 C 
ATOM     10  C   UNL     1      53.371   4.129  17.950  0.00  0.00    +0.000 C 
ENDBRANCH   8  10
BRANCH   8  11
ATOM     11  C   UNL     1      51.048   4.539  18.560  0.00  0.00    +0.000 C 
BRANCH  11  12
ATOM     12  C   UNL     1      49.660   4.202  18.037  0.00  0.00    +0.000 A 
ATOM     13  C   UNL     1      48.536   5.016  18.225  0.00  0.00    +0.000 A 
ATOM     14  C   UNL     1      47.276   4.608  17.769  0.00  0.00    +0.000 A 
ATOM     15  C   UNL     1      47.133   3.411  17.072  0.00  0.00    +0.000 A 
ATOM     16  C   UNL     1      48.254   2.635  16.795  0.00  0.00    +0.000 A 
ATOM     17  C   UNL     1      49.507   3.031  17.268  0.00  0.00    +0.000 A 
ENDBRANCH  11  12
ENDBRANCH   8  11
ENDBRANCH   7   8
ENDBRANCH   1   7
BRANCH   4  18
ATOM     18  C   UNL     1      48.099   9.205  14.939  0.00  0.00    +0.000 C 
BRANCH  18  19
ATOM     19  N   UNL     1      47.146   8.267  14.389  0.00  0.00    +0.000 N 
ATOM     20  C   UNL     1      46.983   8.152  13.029  0.00  0.00    +0.000 C 
ATOM     21  O   UNL     1      47.669   8.804  12.243  0.00  0.00    +0.000 OA
ATOM     22  H   UNL     1      46.434   7.894  15.010  0.00  0.00    +0.000 HD
BRANCH  20  23
ATOM     23  C   UNL     1      45.990   7.182  12.545  0.00  0.00    +0.000 A 
ATOM     24  C   UNL     1      44.890   7.634  11.827  0.00  0.00    +0.000 A 
ATOM     25  S   UNL     1      43.846   6.389  11.309  0.00  0.00    +0.000 S 
ATOM     26  C   UNL     1      44.804   5.201  12.063  0.00  0.00    +0.000 A 
ATOM     27  N   UNL     1      44.444   3.890  12.023  0.00  0.00    +0.000 NA
ATOM     28  C   UNL     1      45.239   3.101  12.660  0.00  0.00    +0.000 A 
ATOM     29  N   UNL     1      46.373   3.504  13.324  0.00  0.00    +0.000 N 
ATOM     30  C   UNL     1      46.792   4.812  13.368  0.00  0.00    +0.000 A 
ATOM     31  O   UNL     1      47.827   5.134  13.937  0.00  0.00    +0.000 OA
ATOM     32  C   UNL     1      45.919   5.745  12.679  0.00  0.00    +0.000 A 
ATOM     33  H   UNL     1      46.961   2.830  13.793  0.00  0.00    +0.000 HD
ENDBRANCH  20  23
ENDBRANCH  18  19
ENDBRANCH   4  18
TORSDOF 8
ENDMDL
MODEL 9
REMARK VINA RESULT:    -5.901      4.265      5.760
REMARK INTER + INTRA:          -9.943
REMARK INTER:                  -8.904
REMARK INTRA:                  -1.038
REMARK UNBOUND:                -1.282
REMARK  Name = 
REMARK  9 active torsions:
REMARK  status: ('A' for Active; 'I' for Inactive)
REMARK    1  A    between atoms: C_1  and  C_2
REMARK    2  A    between atoms: C_2  and  N_3
REMARK    3  A    between atoms: N_3  and  C_4
REMARK    4  A    between atoms: N_3  and  C_11
REMARK    5  A    between atoms: C_4  and  C_5
REMARK    6  A    between atoms: C_11  and  C_12
REMARK    7  A    between atoms: C_15  and  C_16
REMARK    8  A    between atoms: C_16  and  N_17
REMARK    9  A    between atoms: C_18  and  C_20
REMARK                            x       y       z     vdW  Elec       q    Type
REMARK                         _______ _______ _______ _____ _____    ______ ____
ROOT
ATOM      1  C   UNL     1      45.981   6.471  12.975  0.00  0.00    +0.000 A 
ATOM      2  C   UNL     1      45.259   7.660  12.888  0.00  0.00    +0.000 A 
ATOM      3  C   UNL     1      45.905   8.816  12.449  0.00  0.00    +0.000 A 
ATOM      4  C   UNL     1      47.264   8.781  12.132  0.00  0.00    +0.000 A 
ATOM      5  C   UNL     1      47.911   7.558  12.275  0.00  0.00    +0.000 A 
ATOM      6  N   UNL     1      47.306   6.413  12.681  0.00  0.00    +0.000 NA
ENDROOT
BRANCH   1   7
ATOM      7  C   UNL     1      45.277   5.165  13.350  0.00  0.00    +0.000 C 
BRANCH   7   8
ATOM      8  N   UNL     1      44.564   4.496  12.216  0.00  0.00    +0.000 NA
BRANCH   8  10
ATOM      9  C   UNL     1      42.272   5.522  11.765  0.00  0.00    +0.000 C 
ATOM     10  C   UNL     1      43.109   4.497  12.526  0.00  0.00    +0.000 C 
ENDBRANCH   8  10
BRANCH   8  11
ATOM     11  C   UNL     1      44.814   5.214  10.940  0.00  0.00    +0.000 C 
BRANCH  11  12
ATOM     12  C   UNL     1      45.210   4.391   9.723  0.00  0.00    +0.000 A 
ATOM     13  C   UNL     1      44.764   3.084   9.485  0.00  0.00    +0.000 A 
ATOM     14  C   UNL     1      45.223   2.365   8.375  0.00  0.00    +0.000 A 
ATOM     15  C   UNL     1      46.089   2.960   7.459  0.00  0.00    +0.000 A 
ATOM     16  C   UNL     1      46.469   4.287   7.630  0.00  0.00    +0.000 A 
ATOM     17  C   UNL     1      46.028   4.997   8.749  0.00  0.00    +0.000 A 
ENDBRANCH  11  12
ENDBRANCH   8  11
ENDBRANCH   7   8
ENDBRANCH   1   7
BRANCH   4  18
ATOM     18  C   UNL     1      47.983   9.997  11.627  0.00  0.00    +0.000 C 
BRANCH  18  19
ATOM     19  N   UNL     1      49.420   9.835  11.660  0.00  0.00    +0.000 N 
ATOM     20  C   UNL     1      50.227  10.578  10.832  0.00  0.00    +0.000 C 
ATOM     21  O   UNL     1      49.761  11.430  10.077  0.00  0.00    +0.000 OA
ATOM     22  H   UNL     1      49.794   9.001  12.104  0.00  0.00    +0.000 HD
BRANCH  20  23
ATOM     23  C   UNL     1      51.677  10.353  10.918  0.00  0.00    +0.000 A 
ATOM     24  C   UNL     1      52.529  11.441  11.065  0.00  0.00    +0.000 A 
ATOM     25  S   UNL     1      54.176  11.018  11.180  0.00  0.00    +0.000 S 
ATOM     26  C   UNL     1      53.817   9.364  10.995  0.00  0.00    +0.000 A 
ATOM     27  N   UNL     1      54.811   8.436  10.975  0.00  0.00    +0.000 NA
ATOM     28  C   UNL     1      54.404   7.225  10.797  0.00  0.00    +0.000 A 
ATOM     29  N   UNL     1      53.088   6.857  10.650  0.00  0.00    +0.000 N 
ATOM     30  C   UNL     1      52.049   7.755  10.692  0.00  0.00    +0.000 A 
ATOM     31  O   UNL     1      50.884   7.391  10.595  0.00  0.00    +0.000 OA
ATOM     32  C   UNL     1      52.457   9.137  10.873  0.00  0.00    +0.000 A 
ATOM     33  H   UNL     1      52.836   5.887  10.527  0.00  0.00    +0.000 HD
ENDBRANCH  20  23
ENDBRANCH  18  19
ENDBRANCH   4  18
TORSDOF 8
ENDMDL
