MODEL 1
REMARK VINA RESULT:    -8.667      0.000      0.000
REMARK INTER + INTRA:         -12.878
REMARK INTER:                 -11.707
REMARK INTRA:                  -1.171
REMARK UNBOUND:                -1.171
REMARK  Name = 
REMARK  7 active torsions:
REMARK  status: ('A' for Active; 'I' for Inactive)
REMARK    1  A    between atoms: C_1  and  O_2
REMARK    2  A    between atoms: O_2  and  C_3
REMARK    3  A    between atoms: C_5  and  C_6
REMARK    4  A    between atoms: C_11  and  N_12
REMARK    5  A    between atoms: N_12  and  C_13
REMARK    6  A    between atoms: C_13  and  C_14
REMARK    7  A    between atoms: C_18  and  C_19
REMARK                            x       y       z     vdW  Elec       q    Type
REMARK                         _______ _______ _______ _____ _____    ______ ____
ROOT
ATOM      1  N   UNL     1      44.049   6.686  12.585  0.00  0.00    +0.000 N 
ATOM      2  H   UNL     1      43.563   6.835  13.459  0.00  0.00    +0.000 HD
ENDROOT
BRANCH   1   8
ATOM      3  C   UNL     1      46.298   5.855  13.205  0.00  0.00    +0.000 A 
ATOM      4  C   UNL     1      47.670   6.115  13.190  0.00  0.00    +0.000 A 
ATOM      5  C   UNL     1      48.164   7.301  12.651  0.00  0.00    +0.000 A 
ATOM      6  C   UNL     1      47.235   8.187  12.137  0.00  0.00    +0.000 A 
ATOM      7  N   UNL     1      45.890   7.970  12.132  0.00  0.00    +0.000 NA
ATOM      8  C   UNL     1      45.418   6.813  12.655  0.00  0.00    +0.000 A 
BRANCH   5   9
ATOM      9  C   UNL     1      49.633   7.519  12.662  0.00  0.00    +0.000 C 
ATOM     10  N   UNL     1      50.315   7.440  13.842  0.00  0.00    +0.000 N 
ATOM     11  O   UNL     1      50.240   7.769  11.626  0.00  0.00    +0.000 OA
ATOM     12  H   UNL     1      49.916   7.268  14.749  0.00  0.00    +0.000 HD
ATOM     13  H   UNL     1      51.314   7.608  13.793  0.00  0.00    +0.000 HD
ENDBRANCH   5   9
BRANCH   3  15
ATOM     14  C   UNL     1      46.413   3.472  13.306  0.00  0.00    +0.000 C 
ATOM     15  O   UNL     1      45.781   4.683  13.695  0.00  0.00    +0.000 OA
ENDBRANCH   3  15
ENDBRANCH   1   8
BRANCH   1  16
ATOM     16  C   UNL     1      43.345   6.228  11.413  0.00  0.00    +0.000 C 
BRANCH  16  17
ATOM     17  C   UNL     1      43.679   4.811  11.042  0.00  0.00    +0.000 A 
ATOM     18  C   UNL     1      43.059   3.750  11.687  0.00  0.00    +0.000 A 
ATOM     19  N   UNL     1      43.220   2.459  11.331  0.00  0.00    +0.000 NA
ATOM     20  C   UNL     1      44.048   2.214  10.286  0.00  0.00    +0.000 A 
ATOM     21  C   UNL     1      44.744   3.184   9.559  0.00  0.00    +0.000 A 
ATOM     22  C   UNL     1      44.541   4.510   9.977  0.00  0.00    +0.000 A 
BRANCH  21  23
ATOM     23  C   UNL     1      45.627   2.835   8.423  0.00  0.00    +0.000 A 
ATOM     24  C   UNL     1      46.171   1.541   8.282  0.00  0.00    +0.000 A 
ATOM     25  C   UNL     1      47.029   1.220   7.224  0.00  0.00    +0.000 A 
ATOM     26  C   UNL     1      47.342   2.185   6.279  0.00  0.00    +0.000 A 
ATOM     27  F   UNL     1      48.163   1.880   5.266  0.00  0.00    +0.000 F 
ATOM     28  C   UNL     1      46.814   3.464   6.373  0.00  0.00    +0.000 A 
ATOM     29  C   UNL     1      45.966   3.787   7.439  0.00  0.00    +0.000 A 
ENDBRANCH  21  23
ENDBRANCH  16  17
ENDBRANCH   1  16
TORSDOF 6
ENDMDL
MODEL 2
REMARK VINA RESULT:    -7.906      1.524      2.384
REMARK INTER + INTRA:         -11.850
REMARK INTER:                 -11.022
REMARK INTRA:                  -0.828
REMARK UNBOUND:                -1.171
REMARK  Name = 
REMARK  7 active torsions:
REMARK  status: ('A' for Active; 'I' for Inactive)
REMARK    1  A    between atoms: C_1  and  O_2
REMARK    2  A    between atoms: O_2  and  C_3
REMARK    3  A    between atoms: C_5  and  C_6
REMARK    4  A    between atoms: C_11  and  N_12
REMARK    5  A    between atoms: N_12  and  C_13
REMARK    6  A    between atoms: C_13  and  C_14
REMARK    7  A    between atoms: C_18  and  C_19
REMARK                            x       y       z     vdW  Elec       q    Type
REMARK                         _______ _______ _______ _____ _____    ______ ____
ROOT
ATOM      1  N   UNL     1      44.512   6.936  12.621  0.00  0.00    +0.000 N 
ATOM      2  H   UNL     1      44.225   6.759  13.574  0.00  0.00    +0.000 HD
ENDROOT
BRANCH   1   8
ATOM      3  C   UNL     1      46.106   8.801  12.285  0.00  0.00    +0.000 A 
ATOM      4  C   UNL     1      47.450   9.167  12.179  0.00  0.00    +0.000 A 
ATOM      5  C   UNL     1      48.457   8.209  12.259  0.00  0.00    +0.000 A 
ATOM      6  C   UNL     1      48.058   6.898  12.449  0.00  0.00    +0.000 A 
ATOM      7  N   UNL     1      46.759   6.500  12.558  0.00  0.00    +0.000 NA
ATOM      8  C   UNL     1      45.786   7.440  12.483  0.00  0.00    +0.000 A 
BRANCH   5   9
ATOM      9  C   UNL     1      49.867   8.660  12.142  0.00  0.00    +0.000 C 
ATOM     10  N   UNL     1      50.876   7.813  12.501  0.00  0.00    +0.000 N 
ATOM     11  O   UNL     1      50.136   9.784  11.729  0.00  0.00    +0.000 OA
ATOM     12  H   UNL     1      50.768   6.886  12.875  0.00  0.00    +0.000 HD
ATOM     13  H   UNL     1      51.818   8.177  12.412  0.00  0.00    +0.000 HD
ENDBRANCH   5   9
BRANCH   3  15
ATOM     14  C   UNL     1      45.379  10.993  11.679  0.00  0.00    +0.000 C 
ATOM     15  O   UNL     1      45.092   9.722  12.246  0.00  0.00    +0.000 OA
ENDBRANCH   3  15
ENDBRANCH   1   8
BRANCH   1  16
ATOM     16  C   UNL     1      43.682   6.538  11.511  0.00  0.00    +0.000 C 
BRANCH  16  17
ATOM     17  C   UNL     1      43.887   5.105  11.108  0.00  0.00    +0.000 A 
ATOM     18  C   UNL     1      43.144   4.094  11.702  0.00  0.00    +0.000 A 
ATOM     19  N   UNL     1      43.188   2.803  11.314  0.00  0.00    +0.000 NA
ATOM     20  C   UNL     1      44.021   2.505  10.287  0.00  0.00    +0.000 A 
ATOM     21  C   UNL     1      44.834   3.420   9.610  0.00  0.00    +0.000 A 
ATOM     22  C   UNL     1      44.749   4.748  10.061  0.00  0.00    +0.000 A 
BRANCH  21  23
ATOM     23  C   UNL     1      45.715   3.015   8.491  0.00  0.00    +0.000 A 
ATOM     24  C   UNL     1      46.155   3.945   7.525  0.00  0.00    +0.000 A 
ATOM     25  C   UNL     1      46.964   3.556   6.452  0.00  0.00    +0.000 A 
ATOM     26  C   UNL     1      47.359   2.232   6.337  0.00  0.00    +0.000 A 
ATOM     27  F   UNL     1      48.132   1.858   5.309  0.00  0.00    +0.000 F 
ATOM     28  C   UNL     1      46.960   1.291   7.274  0.00  0.00    +0.000 A 
ATOM     29  C   UNL     1      46.142   1.680   8.340  0.00  0.00    +0.000 A 
ENDBRANCH  21  23
ENDBRANCH  16  17
ENDBRANCH   1  16
TORSDOF 6
ENDMDL
MODEL 3
REMARK VINA RESULT:    -7.879      3.943      7.167
REMARK INTER + INTRA:         -11.813
REMARK INTER:                 -11.122
REMARK INTRA:                  -0.691
REMARK UNBOUND:                -1.171
REMARK  Name = 
REMARK  7 active torsions:
REMARK  status: ('A' for Active; 'I' for Inactive)
REMARK    1  A    between atoms: C_1  and  O_2
REMARK    2  A    between atoms: O_2  and  C_3
REMARK    3  A    between atoms: C_5  and  C_6
REMARK    4  A    between atoms: C_11  and  N_12
REMARK    5  A    between atoms: N_12  and  C_13
REMARK    6  A    between atoms: C_13  and  C_14
REMARK    7  A    between atoms: C_18  and  C_19
REMARK                            x       y       z     vdW  Elec       q    Type
REMARK                         _______ _______ _______ _____ _____    ______ ____
ROOT
ATOM      1  N   UNL     1      43.868   5.399  10.048  0.00  0.00    +0.000 N 
ATOM      2  H   UNL     1      43.411   5.987   9.365  0.00  0.00    +0.000 HD
ENDROOT
BRANCH   1   8
ATOM      3  C   UNL     1      44.311   2.969   9.872  0.00  0.00    +0.000 A 
ATOM      4  C   UNL     1      45.064   1.974   9.242  0.00  0.00    +0.000 A 
ATOM      5  C   UNL     1      46.030   2.305   8.295  0.00  0.00    +0.000 A 
ATOM      6  C   UNL     1      46.196   3.650   8.016  0.00  0.00    +0.000 A 
ATOM      7  N   UNL     1      45.483   4.649   8.607  0.00  0.00    +0.000 NA
ATOM      8  C   UNL     1      44.542   4.318   9.524  0.00  0.00    +0.000 A 
BRANCH   5   9
ATOM      9  C   UNL     1      46.796   1.203   7.658  0.00  0.00    +0.000 C 
ATOM     10  N   UNL     1      47.821   1.501   6.808  0.00  0.00    +0.000 N 
ATOM     11  O   UNL     1      46.517   0.030   7.886  0.00  0.00    +0.000 OA
ATOM     12  H   UNL     1      48.115   2.423   6.532  0.00  0.00    +0.000 HD
ATOM     13  H   UNL     1      48.302   0.711   6.393  0.00  0.00    +0.000 HD
ENDBRANCH   5   9
BRANCH   3  15
ATOM     14  C   UNL     1      43.729   2.404  12.118  0.00  0.00    +0.000 C 
ATOM     15  O   UNL     1      43.329   2.677  10.782  0.00  0.00    +0.000 OA
ENDBRANCH   3  15
ENDBRANCH   1   8
BRANCH   1  16
ATOM     16  C   UNL     1      43.915   5.776  11.438  0.00  0.00    +0.000 C 
BRANCH  16  17
ATOM     17  C   UNL     1      45.315   5.985  11.943  0.00  0.00    +0.000 A 
ATOM     18  C   UNL     1      46.184   6.837  11.276  0.00  0.00    +0.000 A 
ATOM     19  N   UNL     1      47.411   7.163  11.731  0.00  0.00    +0.000 NA
ATOM     20  C   UNL     1      47.793   6.604  12.906  0.00  0.00    +0.000 A 
ATOM     21  C   UNL     1      47.025   5.722  13.672  0.00  0.00    +0.000 A 
ATOM     22  C   UNL     1      45.759   5.416  13.146  0.00  0.00    +0.000 A 
BRANCH  21  23
ATOM     23  C   UNL     1      47.513   5.159  14.951  0.00  0.00    +0.000 A 
ATOM     24  C   UNL     1      47.169   3.852  15.360  0.00  0.00    +0.000 A 
ATOM     25  C   UNL     1      47.606   3.331  16.583  0.00  0.00    +0.000 A 
ATOM     26  C   UNL     1      48.409   4.102  17.409  0.00  0.00    +0.000 A 
ATOM     27  F   UNL     1      48.827   3.606  18.580  0.00  0.00    +0.000 F 
ATOM     28  C   UNL     1      48.781   5.385  17.035  0.00  0.00    +0.000 A 
ATOM     29  C   UNL     1      48.333   5.909  15.818  0.00  0.00    +0.000 A 
ENDBRANCH  21  23
ENDBRANCH  16  17
ENDBRANCH   1  16
TORSDOF 6
ENDMDL
MODEL 4
REMARK VINA RESULT:    -7.595      2.879      3.543
REMARK INTER + INTRA:         -11.430
REMARK INTER:                 -10.717
REMARK INTRA:                  -0.713
REMARK UNBOUND:                -1.171
REMARK  Name = 
REMARK  7 active torsions:
REMARK  status: ('A' for Active; 'I' for Inactive)
REMARK    1  A    between atoms: C_1  and  O_2
REMARK    2  A    between atoms: O_2  and  C_3
REMARK    3  A    between atoms: C_5  and  C_6
REMARK    4  A    between atoms: C_11  and  N_12
REMARK    5  A    between atoms: N_12  and  C_13
REMARK    6  A    between atoms: C_13  and  C_14
REMARK    7  A    between atoms: C_18  and  C_19
REMARK                            x       y       z     vdW  Elec       q    Type
REMARK                         _______ _______ _______ _____ _____    ______ ____
ROOT
ATOM      1  N   UNL     1      46.455   5.453  13.293  0.00  0.00    +0.000 N 
ATOM      2  H   UNL     1      47.041   5.841  12.566  0.00  0.00    +0.000 HD
ENDROOT
BRANCH   1   8
ATOM      3  C   UNL     1      48.028   6.073  15.101  0.00  0.00    +0.000 A 
ATOM      4  C   UNL     1      48.588   5.697  16.326  0.00  0.00    +0.000 A 
ATOM      5  C   UNL     1      48.241   4.489  16.926  0.00  0.00    +0.000 A 
ATOM      6  C   UNL     1      47.325   3.699  16.255  0.00  0.00    +0.000 A 
ATOM      7  N   UNL     1      46.757   4.029  15.061  0.00  0.00    +0.000 NA
ATOM      8  C   UNL     1      47.097   5.208  14.486  0.00  0.00    +0.000 A 
BRANCH   5   9
ATOM      9  C   UNL     1      48.867   4.147  18.229  0.00  0.00    +0.000 C 
ATOM     10  N   UNL     1      48.310   3.174  19.006  0.00  0.00    +0.000 N 
ATOM     11  O   UNL     1      49.876   4.729  18.613  0.00  0.00    +0.000 OA
ATOM     12  H   UNL     1      47.472   2.656  18.801  0.00  0.00    +0.000 HD
ATOM     13  H   UNL     1      48.771   2.989  19.890  0.00  0.00    +0.000 HD
ENDBRANCH   5   9
BRANCH   3  15
ATOM     14  C   UNL     1      49.652   7.471  14.047  0.00  0.00    +0.000 C 
ATOM     15  O   UNL     1      48.320   7.270  14.501  0.00  0.00    +0.000 OA
ENDBRANCH   3  15
ENDBRANCH   1   8
BRANCH   1  16
ATOM     16  C   UNL     1      45.032   5.322  13.106  0.00  0.00    +0.000 C 
BRANCH  16  17
ATOM     17  C   UNL     1      44.663   4.212  12.164  0.00  0.00    +0.000 A 
ATOM     18  C   UNL     1      43.534   3.438  12.395  0.00  0.00    +0.000 A 
ATOM     19  N   UNL     1      43.075   2.504  11.537  0.00  0.00    +0.000 NA
ATOM     20  C   UNL     1      43.783   2.328  10.394  0.00  0.00    +0.000 A 
ATOM     21  C   UNL     1      44.942   3.026  10.042  0.00  0.00    +0.000 A 
ATOM     22  C   UNL     1      45.374   3.983  10.976  0.00  0.00    +0.000 A 
BRANCH  21  23
ATOM     23  C   UNL     1      45.656   2.779   8.769  0.00  0.00    +0.000 A 
ATOM     24  C   UNL     1      46.113   1.490   8.419  0.00  0.00    +0.000 A 
ATOM     25  C   UNL     1      46.813   1.262   7.229  0.00  0.00    +0.000 A 
ATOM     26  C   UNL     1      47.052   2.318   6.362  0.00  0.00    +0.000 A 
ATOM     27  F   UNL     1      47.723   2.102   5.223  0.00  0.00    +0.000 F 
ATOM     28  C   UNL     1      46.605   3.595   6.663  0.00  0.00    +0.000 A 
ATOM     29  C   UNL     1      45.915   3.824   7.859  0.00  0.00    +0.000 A 
ENDBRANCH  21  23
ENDBRANCH  16  17
ENDBRANCH   1  16
TORSDOF 6
ENDMDL
MODEL 5
REMARK VINA RESULT:    -7.489      3.543      6.627
REMARK INTER + INTRA:         -11.287
REMARK INTER:                 -11.033
REMARK INTRA:                  -0.254
REMARK UNBOUND:                -1.171
REMARK  Name = 
REMARK  7 active torsions:
REMARK  status: ('A' for Active; 'I' for Inactive)
REMARK    1  A    between atoms: C_1  and  O_2
REMARK    2  A    between atoms: O_2  and  C_3
REMARK    3  A    between atoms: C_5  and  C_6
REMARK    4  A    between atoms: C_11  and  N_12
REMARK    5  A    between atoms: N_12  and  C_13
REMARK    6  A    between atoms: C_13  and  C_14
REMARK    7  A    between atoms: C_18  and  C_19
REMARK                            x       y       z     vdW  Elec       q    Type
REMARK                         _______ _______ _______ _____ _____    ______ ____
ROOT
ATOM      1  N   UNL     1      43.871   5.030  10.112  0.00  0.00    +0.000 N 
ATOM      2  H   UNL     1      42.899   4.759  10.152  0.00  0.00    +0.000 HD
ENDROOT
BRANCH   1   8
ATOM      3  C   UNL     1      44.630   2.765   9.461  0.00  0.00    +0.000 A 
ATOM      4  C   UNL     1      45.508   2.024   8.666  0.00  0.00    +0.000 A 
ATOM      5  C   UNL     1      46.427   2.662   7.836  0.00  0.00    +0.000 A 
ATOM      6  C   UNL     1      46.416   4.045   7.840  0.00  0.00    +0.000 A 
ATOM      7  N   UNL     1      45.576   4.803   8.599  0.00  0.00    +0.000 NA
ATOM      8  C   UNL     1      44.683   4.175   9.401  0.00  0.00    +0.000 A 
BRANCH   5   9
ATOM      9  C   UNL     1      47.332   1.820   7.013  0.00  0.00    +0.000 C 
ATOM     10  N   UNL     1      48.429   2.386   6.430  0.00  0.00    +0.000 N 
ATOM     11  O   UNL     1      47.106   0.625   6.851  0.00  0.00    +0.000 OA
ATOM     12  H   UNL     1      48.693   3.355   6.475  0.00  0.00    +0.000 HD
ATOM     13  H   UNL     1      49.006   1.767   5.870  0.00  0.00    +0.000 HD
ENDBRANCH   5   9
BRANCH   3  15
ATOM     14  C   UNL     1      43.702   2.496  11.645  0.00  0.00    +0.000 C 
ATOM     15  O   UNL     1      43.690   2.169  10.262  0.00  0.00    +0.000 OA
ENDBRANCH   3  15
ENDBRANCH   1   8
BRANCH   1  16
ATOM     16  C   UNL     1      44.310   6.298  10.640  0.00  0.00    +0.000 C 
BRANCH  16  17
ATOM     17  C   UNL     1      45.311   6.156  11.751  0.00  0.00    +0.000 A 
ATOM     18  C   UNL     1      45.073   5.288  12.807  0.00  0.00    +0.000 A 
ATOM     19  N   UNL     1      45.971   5.021  13.777  0.00  0.00    +0.000 NA
ATOM     20  C   UNL     1      47.164   5.660  13.694  0.00  0.00    +0.000 A 
ATOM     21  C   UNL     1      47.530   6.568  12.695  0.00  0.00    +0.000 A 
ATOM     22  C   UNL     1      46.553   6.809  11.715  0.00  0.00    +0.000 A 
BRANCH  21  23
ATOM     23  C   UNL     1      48.858   7.220  12.671  0.00  0.00    +0.000 A 
ATOM     24  C   UNL     1      49.564   7.500  13.861  0.00  0.00    +0.000 A 
ATOM     25  C   UNL     1      50.806   8.143  13.839  0.00  0.00    +0.000 A 
ATOM     26  C   UNL     1      51.371   8.502  12.625  0.00  0.00    +0.000 A 
ATOM     27  F   UNL     1      52.559   9.118  12.602  0.00  0.00    +0.000 F 
ATOM     28  C   UNL     1      50.716   8.230  11.433  0.00  0.00    +0.000 A 
ATOM     29  C   UNL     1      49.468   7.597  11.457  0.00  0.00    +0.000 A 
ENDBRANCH  21  23
ENDBRANCH  16  17
ENDBRANCH   1  16
TORSDOF 6
ENDMDL
MODEL 6
REMARK VINA RESULT:    -6.768      1.802      2.465
REMARK INTER + INTRA:         -10.312
REMARK INTER:                  -9.537
REMARK INTRA:                  -0.776
REMARK UNBOUND:                -1.171
REMARK  Name = 
REMARK  7 active torsions:
REMARK  status: ('A' for Active; 'I' for Inactive)
REMARK    1  A    between atoms: C_1  and  O_2
REMARK    2  A    between atoms: O_2  and  C_3
REMARK    3  A    between atoms: C_5  and  C_6
REMARK    4  A    between atoms: C_11  and  N_12
REMARK    5  A    between atoms: N_12  and  C_13
REMARK    6  A    between atoms: C_13  and  C_14
REMARK    7  A    between atoms: C_18  and  C_19
REMARK                            x       y       z     vdW  Elec       q    Type
REMARK                         _______ _______ _______ _____ _____    ______ ____
ROOT
ATOM      1  N   UNL     1      46.568   7.076  13.351  0.00  0.00    +0.000 N 
ATOM      2  H   UNL     1      46.439   6.405  14.095  0.00  0.00    +0.000 HD
ENDROOT
BRANCH   1   8
ATOM      3  C   UNL     1      48.816   7.716  14.168  0.00  0.00    +0.000 A 
ATOM      4  C   UNL     1      50.111   8.097  13.807  0.00  0.00    +0.000 A 
ATOM      5  C   UNL     1      50.464   8.241  12.468  0.00  0.00    +0.000 A 
ATOM      6  C   UNL     1      49.478   7.987  11.532  0.00  0.00    +0.000 A 
ATOM      7  N   UNL     1      48.205   7.613  11.842  0.00  0.00    +0.000 NA
ATOM      8  C   UNL     1      47.871   7.472  13.147  0.00  0.00    +0.000 A 
BRANCH   5   9
ATOM      9  C   UNL     1      51.857   8.645  12.148  0.00  0.00    +0.000 C 
ATOM     10  N   UNL     1      52.869   7.741  12.296  0.00  0.00    +0.000 N 
ATOM     11  O   UNL     1      52.109   9.780  11.756  0.00  0.00    +0.000 OA
ATOM     12  H   UNL     1      52.779   6.798  12.634  0.00  0.00    +0.000 HD
ATOM     13  H   UNL     1      53.801   8.074  12.074  0.00  0.00    +0.000 HD
ENDBRANCH   5   9
BRANCH   3  15
ATOM     14  C   UNL     1      48.855   6.328  16.110  0.00  0.00    +0.000 C 
ATOM     15  O   UNL     1      48.445   7.531  15.474  0.00  0.00    +0.000 OA
ENDBRANCH   3  15
ENDBRANCH   1   8
BRANCH   1  16
ATOM     16  C   UNL     1      45.473   7.450  12.492  0.00  0.00    +0.000 C 
BRANCH  16  17
ATOM     17  C   UNL     1      44.796   6.271  11.853  0.00  0.00    +0.000 A 
ATOM     18  C   UNL     1      43.468   5.982  12.136  0.00  0.00    +0.000 A 
ATOM     19  N   UNL     1      42.762   5.014  11.516  0.00  0.00    +0.000 NA
ATOM     20  C   UNL     1      43.417   4.293  10.573  0.00  0.00    +0.000 A 
ATOM     21  C   UNL     1      44.753   4.468  10.201  0.00  0.00    +0.000 A 
ATOM     22  C   UNL     1      45.438   5.487  10.883  0.00  0.00    +0.000 A 
BRANCH  21  23
ATOM     23  C   UNL     1      45.394   3.640   9.154  0.00  0.00    +0.000 A 
ATOM     24  C   UNL     1      45.383   2.230   9.219  0.00  0.00    +0.000 A 
ATOM     25  C   UNL     1      46.015   1.449   8.245  0.00  0.00    +0.000 A 
ATOM     26  C   UNL     1      46.653   2.067   7.180  0.00  0.00    +0.000 A 
ATOM     27  F   UNL     1      47.259   1.321   6.248  0.00  0.00    +0.000 F 
ATOM     28  C   UNL     1      46.673   3.449   7.073  0.00  0.00    +0.000 A 
ATOM     29  C   UNL     1      46.051   4.229   8.055  0.00  0.00    +0.000 A 
ENDBRANCH  21  23
ENDBRANCH  16  17
ENDBRANCH   1  16
TORSDOF 6
ENDMDL
MODEL 7
REMARK VINA RESULT:    -6.346      3.761      5.358
REMARK INTER + INTRA:          -9.742
REMARK INTER:                  -9.104
REMARK INTRA:                  -0.639
REMARK UNBOUND:                -1.171
REMARK  Name = 
REMARK  7 active torsions:
REMARK  status: ('A' for Active; 'I' for Inactive)
REMARK    1  A    between atoms: C_1  and  O_2
REMARK    2  A    between atoms: O_2  and  C_3
REMARK    3  A    between atoms: C_5  and  C_6
REMARK    4  A    between atoms: C_11  and  N_12
REMARK    5  A    between atoms: N_12  and  C_13
REMARK    6  A    between atoms: C_13  and  C_14
REMARK    7  A    between atoms: C_18  and  C_19
REMARK                            x       y       z     vdW  Elec       q    Type
REMARK                         _______ _______ _______ _____ _____    ______ ____
ROOT
ATOM      1  N   UNL     1      48.269   6.923  15.517  0.00  0.00    +0.000 N 
ATOM      2  H   UNL     1      47.413   7.154  16.002  0.00  0.00    +0.000 HD
ENDROOT
BRANCH   1   8
ATOM      3  C   UNL     1      48.757   4.908  16.870  0.00  0.00    +0.000 A 
ATOM      4  C   UNL     1      49.745   4.167  17.524  0.00  0.00    +0.000 A 
ATOM      5  C   UNL     1      51.068   4.600  17.538  0.00  0.00    +0.000 A 
ATOM      6  C   UNL     1      51.345   5.782  16.875  0.00  0.00    +0.000 A 
ATOM      7  N   UNL     1      50.412   6.533  16.225  0.00  0.00    +0.000 NA
ATOM      8  C   UNL     1      49.128   6.102  16.214  0.00  0.00    +0.000 A 
BRANCH   5   9
ATOM      9  C   UNL     1      52.073   3.767  18.247  0.00  0.00    +0.000 C 
ATOM     10  N   UNL     1      51.952   2.407  18.227  0.00  0.00    +0.000 N 
ATOM     11  O   UNL     1      53.006   4.285  18.852  0.00  0.00    +0.000 OA
ATOM     12  H   UNL     1      51.215   1.882  17.788  0.00  0.00    +0.000 HD
ATOM     13  H   UNL     1      52.659   1.888  18.737  0.00  0.00    +0.000 HD
ENDBRANCH   5   9
BRANCH   3  15
ATOM     14  C   UNL     1      47.133   3.236  17.390  0.00  0.00    +0.000 C 
ATOM     15  O   UNL     1      47.452   4.492  16.807  0.00  0.00    +0.000 OA
ENDBRANCH   3  15
ENDBRANCH   1   8
BRANCH   1  16
ATOM     16  C   UNL     1      48.473   7.318  14.145  0.00  0.00    +0.000 C 
BRANCH  16  17
ATOM     17  C   UNL     1      47.205   7.318  13.340  0.00  0.00    +0.000 A 
ATOM     18  C   UNL     1      46.404   8.451  13.289  0.00  0.00    +0.000 A 
ATOM     19  N   UNL     1      45.317   8.566  12.499  0.00  0.00    +0.000 NA
ATOM     20  C   UNL     1      45.009   7.495  11.726  0.00  0.00    +0.000 A 
ATOM     21  C   UNL     1      45.719   6.291  11.690  0.00  0.00    +0.000 A 
ATOM     22  C   UNL     1      46.838   6.228  12.537  0.00  0.00    +0.000 A 
BRANCH  21  23
ATOM     23  C   UNL     1      45.321   5.167  10.813  0.00  0.00    +0.000 A 
ATOM     24  C   UNL     1      45.630   5.162   9.436  0.00  0.00    +0.000 A 
ATOM     25  C   UNL     1      45.228   4.113   8.601  0.00  0.00    +0.000 A 
ATOM     26  C   UNL     1      44.525   3.044   9.135  0.00  0.00    +0.000 A 
ATOM     27  F   UNL     1      44.139   2.039   8.338  0.00  0.00    +0.000 F 
ATOM     28  C   UNL     1      44.217   3.004  10.486  0.00  0.00    +0.000 A 
ATOM     29  C   UNL     1      44.609   4.060  11.317  0.00  0.00    +0.000 A 
ENDBRANCH  21  23
ENDBRANCH  16  17
ENDBRANCH   1  16
TORSDOF 6
ENDMDL
MODEL 8
REMARK VINA RESULT:    -6.328      5.617      8.772
REMARK INTER + INTRA:          -9.718
REMARK INTER:                  -9.085
REMARK INTRA:                  -0.633
REMARK UNBOUND:                -1.171
REMARK  Name = 
REMARK  7 active torsions:
REMARK  status: ('A' for Active; 'I' for Inactive)
REMARK    1  A    between atoms: C_1  and  O_2
REMARK    2  A    between atoms: O_2  and  C_3
REMARK    3  A    between atoms: C_5  and  C_6
REMARK    4  A    between atoms: C_11  and  N_12
REMARK    5  A    between atoms: N_12  and  C_13
REMARK    6  A    between atoms: C_13  and  C_14
REMARK    7  A    between atoms: C_18  and  C_19
REMARK                            x       y       z     vdW  Elec       q    Type
REMARK                         _______ _______ _______ _____ _____    ______ ____
ROOT
ATOM      1  N   UNL     1      46.900   5.301  14.792  0.00  0.00    +0.000 N 
ATOM      2  H   UNL     1      47.320   6.219  14.804  0.00  0.00    +0.000 HD
ENDROOT
BRANCH   1   8
ATOM      3  C   UNL     1      46.110   5.818  12.503  0.00  0.00    +0.000 A 
ATOM      4  C   UNL     1      45.512   5.313  11.345  0.00  0.00    +0.000 A 
ATOM      5  C   UNL     1      45.113   3.980  11.273  0.00  0.00    +0.000 A 
ATOM      6  C   UNL     1      45.342   3.199  12.391  0.00  0.00    +0.000 A 
ATOM      7  N   UNL     1      45.923   3.652  13.538  0.00  0.00    +0.000 NA
ATOM      8  C   UNL     1      46.311   4.949  13.598  0.00  0.00    +0.000 A 
BRANCH   5   9
ATOM      9  C   UNL     1      44.486   3.502  10.014  0.00  0.00    +0.000 C 
ATOM     10  N   UNL     1      44.431   2.163   9.759  0.00  0.00    +0.000 N 
ATOM     11  O   UNL     1      44.020   4.295   9.203  0.00  0.00    +0.000 OA
ATOM     12  H   UNL     1      44.805   1.431  10.338  0.00  0.00    +0.000 HD
ATOM     13  H   UNL     1      44.002   1.893   8.880  0.00  0.00    +0.000 HD
ENDBRANCH   5   9
BRANCH   3  15
ATOM     14  C   UNL     1      45.575   8.118  12.853  0.00  0.00    +0.000 C 
ATOM     15  O   UNL     1      46.546   7.114  12.595  0.00  0.00    +0.000 OA
ENDBRANCH   3  15
ENDBRANCH   1   8
BRANCH   1  16
ATOM     16  C   UNL     1      47.056   4.398  15.906  0.00  0.00    +0.000 C 
BRANCH  16  17
ATOM     17  C   UNL     1      48.275   4.692  16.733  0.00  0.00    +0.000 A 
ATOM     18  C   UNL     1      48.346   5.849  17.497  0.00  0.00    +0.000 A 
ATOM     19  N   UNL     1      49.353   6.123  18.351  0.00  0.00    +0.000 NA
ATOM     20  C   UNL     1      50.343   5.201  18.442  0.00  0.00    +0.000 A 
ATOM     21  C   UNL     1      50.404   4.004  17.722  0.00  0.00    +0.000 A 
ATOM     22  C   UNL     1      49.330   3.774  16.846  0.00  0.00    +0.000 A 
BRANCH  21  23
ATOM     23  C   UNL     1      51.519   3.044  17.883  0.00  0.00    +0.000 A 
ATOM     24  C   UNL     1      51.428   1.720  17.401  0.00  0.00    +0.000 A 
ATOM     25  C   UNL     1      52.471   0.805  17.579  0.00  0.00    +0.000 A 
ATOM     26  C   UNL     1      53.629   1.204  18.227  0.00  0.00    +0.000 A 
ATOM     27  F   UNL     1      54.628   0.329  18.399  0.00  0.00    +0.000 F 
ATOM     28  C   UNL     1      53.764   2.500  18.701  0.00  0.00    +0.000 A 
ATOM     29  C   UNL     1      52.715   3.411  18.533  0.00  0.00    +0.000 A 
ENDBRANCH  21  23
ENDBRANCH  16  17
ENDBRANCH   1  16
TORSDOF 6
ENDMDL
MODEL 9
REMARK VINA RESULT:    -6.265      2.356      3.368
REMARK INTER + INTRA:          -9.633
REMARK INTER:                  -8.949
REMARK INTRA:                  -0.684
REMARK UNBOUND:                -1.171
REMARK  Name = 
REMARK  7 active torsions:
REMARK  status: ('A' for Active; 'I' for Inactive)
REMARK    1  A    between atoms: C_1  and  O_2
REMARK    2  A    between atoms: O_2  and  C_3
REMARK    3  A    between atoms: C_5  and  C_6
REMARK    4  A    between atoms: C_11  and  N_12
REMARK    5  A    between atoms: N_12  and  C_13
REMARK    6  A    between atoms: C_13  and  C_14
REMARK    7  A    between atoms: C_18  and  C_19
REMARK                            x       y       z     vdW  Elec       q    Type
REMARK                         _______ _______ _______ _____ _____    ______ ____
ROOT
ATOM      1  N   UNL     1      47.216   6.789  12.703  0.00  0.00    +0.000 N 
ATOM      2  H   UNL     1      47.615   6.847  11.777  0.00  0.00    +0.000 HD
ENDROOT
BRANCH   1   8
ATOM      3  C   UNL     1      49.303   7.543  13.802  0.00  0.00    +0.000 A 
ATOM      4  C   UNL     1      50.136   7.410  14.916  0.00  0.00    +0.000 A 
ATOM      5  C   UNL     1      49.826   6.509  15.932  0.00  0.00    +0.000 A 
ATOM      6  C   UNL     1      48.667   5.771  15.780  0.00  0.00    +0.000 A 
ATOM      7  N   UNL     1      47.828   5.872  14.711  0.00  0.00    +0.000 NA
ATOM      8  C   UNL     1      48.135   6.753  13.728  0.00  0.00    +0.000 A 
BRANCH   5   9
ATOM      9  C   UNL     1      50.749   6.415  17.092  0.00  0.00    +0.000 C 
ATOM     10  N   UNL     1      52.050   6.057  16.888  0.00  0.00    +0.000 N 
ATOM     11  O   UNL     1      50.357   6.654  18.229  0.00  0.00    +0.000 OA
ATOM     12  H   UNL     1      52.468   5.814  16.005  0.00  0.00    +0.000 HD
ATOM     13  H   UNL     1      52.633   5.997  17.716  0.00  0.00    +0.000 HD
ENDBRANCH   5   9
BRANCH   3  15
ATOM     14  C   UNL     1      50.834   9.071  12.790  0.00  0.00    +0.000 C 
ATOM     15  O   UNL     1      49.559   8.445  12.802  0.00  0.00    +0.000 OA
ENDBRANCH   3  15
ENDBRANCH   1   8
BRANCH   1  16
ATOM     16  C   UNL     1      45.792   6.891  12.906  0.00  0.00    +0.000 C 
BRANCH  16  17
ATOM     17  C   UNL     1      45.009   5.911  12.080  0.00  0.00    +0.000 A 
ATOM     18  C   UNL     1      43.636   5.794  12.241  0.00  0.00    +0.000 A 
ATOM     19  N   UNL     1      42.851   5.024  11.459  0.00  0.00    +0.000 NA
ATOM     20  C   UNL     1      43.470   4.329  10.473  0.00  0.00    +0.000 A 
ATOM     21  C   UNL     1      44.843   4.344  10.209  0.00  0.00    +0.000 A 
ATOM     22  C   UNL     1      45.609   5.160  11.057  0.00  0.00    +0.000 A 
BRANCH  21  23
ATOM     23  C   UNL     1      45.443   3.559   9.106  0.00  0.00    +0.000 A 
ATOM     24  C   UNL     1      45.483   2.149   9.141  0.00  0.00    +0.000 A 
ATOM     25  C   UNL     1      46.076   1.410   8.112  0.00  0.00    +0.000 A 
ATOM     26  C   UNL     1      46.623   2.069   7.022  0.00  0.00    +0.000 A 
ATOM     27  F   UNL     1      47.191   1.363   6.036  0.00  0.00    +0.000 F 
ATOM     28  C   UNL     1      46.588   3.453   6.942  0.00  0.00    +0.000 A 
ATOM     29  C   UNL     1      46.006   4.192   7.979  0.00  0.00    +0.000 A 
ENDBRANCH  21  23
ENDBRANCH  16  17
ENDBRANCH   1  16
TORSDOF 6
ENDMDL
