MODEL 1
REMARK VINA RESULT:    -7.446      0.000      0.000
REMARK INTER + INTRA:         -10.626
REMARK INTER:                  -9.839
REMARK INTRA:                  -0.786
REMARK UNBOUND:                -0.786
REMARK  Name = 
REMARK  6 active torsions:
REMARK  status: ('A' for Active; 'I' for Inactive)
REMARK    1  A    between atoms: N_1  and  C_2
REMARK    2  A    between atoms: C_2  and  C_3
REMARK    3  A    between atoms: C_6  and  O_7
REMARK    4  A    between atoms: O_7  and  C_8
REMARK    5  A    between atoms: C_8  and  C_9
REMARK    6  A    between atoms: C_9  and  C_12
REMARK                            x       y       z     vdW  Elec       q    Type
REMARK                         _______ _______ _______ _____ _____    ______ ____
ROOT
ATOM      1  O   UNL     1      43.486   3.378   9.992  0.00  0.00    +0.000 OA
ENDROOT
BRANCH   1   5
ATOM      2  C   UNL     1      46.649   2.161   7.640  0.00  0.00    +0.000 A 
ATOM      3  C   UNL     1      46.327   3.514   7.621  0.00  0.00    +0.000 A 
ATOM      4  C   UNL     1      45.261   3.971   8.394  0.00  0.00    +0.000 A 
ATOM      5  C   UNL     1      44.542   3.074   9.181  0.00  0.00    +0.000 A 
ATOM      6  C   UNL     1      44.937   1.744   9.144  0.00  0.00    +0.000 A 
ATOM      7  N   UNL     1      45.970   1.265   8.401  0.00  0.00    +0.000 NA
BRANCH   2   8
ATOM      8  C   UNL     1      47.826   1.646   6.842  0.00  0.00    +0.000 C 
BRANCH   8   9
ATOM      9  N   UNL     1      48.547   2.727   6.164  0.00  0.00    +0.000 NA
ATOM     10  H   UNL     1      49.545   2.544   6.235  0.00  0.00    +0.000 HD
ATOM     11  H   UNL     1      48.386   3.582   6.704  0.00  0.00    +0.000 HD
ENDBRANCH   8   9
ENDBRANCH   2   8
ENDBRANCH   1   5
BRANCH   1  12
ATOM     12  C   UNL     1      43.711   3.227  11.399  0.00  0.00    +0.000 C 
BRANCH  12  13
ATOM     13  C   UNL     1      43.665   4.568  12.149  0.00  0.00    +0.000 C 
ATOM     14  F   UNL     1      42.814   5.408  11.487  0.00  0.00    +0.000 F 
ATOM     15  F   UNL     1      43.037   4.320  13.346  0.00  0.00    +0.000 F 
BRANCH  13  16
ATOM     16  C   UNL     1      45.033   5.177  12.367  0.00  0.00    +0.000 A 
ATOM     17  C   UNL     1      45.815   4.825  13.476  0.00  0.00    +0.000 A 
ATOM     18  C   UNL     1      47.091   5.364  13.643  0.00  0.00    +0.000 A 
ATOM     19  C   UNL     1      47.598   6.265  12.707  0.00  0.00    +0.000 A 
ATOM     20  C   UNL     1      46.826   6.635  11.607  0.00  0.00    +0.000 A 
ATOM     21  C   UNL     1      45.551   6.096  11.439  0.00  0.00    +0.000 A 
ENDBRANCH  13  16
ENDBRANCH  12  13
ENDBRANCH   1  12
TORSDOF 6
ENDMDL
MODEL 2
REMARK VINA RESULT:    -7.249      2.846      6.080
REMARK INTER + INTRA:         -10.366
REMARK INTER:                  -9.936
REMARK INTRA:                  -0.430
REMARK UNBOUND:                -0.786
REMARK  Name = 
REMARK  6 active torsions:
REMARK  status: ('A' for Active; 'I' for Inactive)
REMARK    1  A    between atoms: N_1  and  C_2
REMARK    2  A    between atoms: C_2  and  C_3
REMARK    3  A    between atoms: C_6  and  O_7
REMARK    4  A    between atoms: O_7  and  C_8
REMARK    5  A    between atoms: C_8  and  C_9
REMARK    6  A    between atoms: C_9  and  C_12
REMARK                            x       y       z     vdW  Elec       q    Type
REMARK                         _______ _______ _______ _____ _____    ______ ____
ROOT
ATOM      1  O   UNL     1      44.922   5.524  10.707  0.00  0.00    +0.000 OA
ENDROOT
BRANCH   1   5
ATOM      2  C   UNL     1      46.781   4.737  14.305  0.00  0.00    +0.000 A 
ATOM      3  C   UNL     1      47.204   5.861  13.603  0.00  0.00    +0.000 A 
ATOM      4  C   UNL     1      46.611   6.164  12.379  0.00  0.00    +0.000 A 
ATOM      5  C   UNL     1      45.598   5.347  11.881  0.00  0.00    +0.000 A 
ATOM      6  C   UNL     1      45.233   4.251  12.651  0.00  0.00    +0.000 A 
ATOM      7  N   UNL     1      45.792   3.927  13.847  0.00  0.00    +0.000 NA
BRANCH   2   8
ATOM      8  C   UNL     1      47.380   4.410  15.655  0.00  0.00    +0.000 C 
BRANCH   8   9
ATOM      9  N   UNL     1      47.847   3.022  15.728  0.00  0.00    +0.000 NA
ATOM     10  H   UNL     1      47.534   2.533  14.894  0.00  0.00    +0.000 HD
ATOM     11  H   UNL     1      47.353   2.579  16.508  0.00  0.00    +0.000 HD
ENDBRANCH   8   9
ENDBRANCH   2   8
ENDBRANCH   1   5
BRANCH   1  12
ATOM     12  C   UNL     1      45.574   5.038   9.527  0.00  0.00    +0.000 C 
BRANCH  12  13
ATOM     13  C   UNL     1      44.836   3.846   8.897  0.00  0.00    +0.000 C 
ATOM     14  F   UNL     1      44.202   3.152   9.889  0.00  0.00    +0.000 F 
ATOM     15  F   UNL     1      43.817   4.376   8.145  0.00  0.00    +0.000 F 
BRANCH  13  16
ATOM     16  C   UNL     1      45.735   2.966   8.055  0.00  0.00    +0.000 A 
ATOM     17  C   UNL     1      46.397   3.475   6.928  0.00  0.00    +0.000 A 
ATOM     18  C   UNL     1      47.254   2.663   6.184  0.00  0.00    +0.000 A 
ATOM     19  C   UNL     1      47.455   1.333   6.553  0.00  0.00    +0.000 A 
ATOM     20  C   UNL     1      46.792   0.811   7.663  0.00  0.00    +0.000 A 
ATOM     21  C   UNL     1      45.936   1.621   8.407  0.00  0.00    +0.000 A 
ENDBRANCH  13  16
ENDBRANCH  12  13
ENDBRANCH   1  12
TORSDOF 6
ENDMDL
MODEL 3
REMARK VINA RESULT:    -6.934      2.909      5.716
REMARK INTER + INTRA:          -9.950
REMARK INTER:                  -9.473
REMARK INTRA:                  -0.477
REMARK UNBOUND:                -0.786
REMARK  Name = 
REMARK  6 active torsions:
REMARK  status: ('A' for Active; 'I' for Inactive)
REMARK    1  A    between atoms: N_1  and  C_2
REMARK    2  A    between atoms: C_2  and  C_3
REMARK    3  A    between atoms: C_6  and  O_7
REMARK    4  A    between atoms: O_7  and  C_8
REMARK    5  A    between atoms: C_8  and  C_9
REMARK    6  A    between atoms: C_9  and  C_12
REMARK                            x       y       z     vdW  Elec       q    Type
REMARK                         _______ _______ _______ _____ _____    ______ ____
ROOT
ATOM      1  O   UNL     1      43.886   4.394  11.077  0.00  0.00    +0.000 OA
ENDROOT
BRANCH   1   5
ATOM      2  C   UNL     1      46.993   6.367  12.940  0.00  0.00    +0.000 A 
ATOM      3  C   UNL     1      46.788   6.635  11.590  0.00  0.00    +0.000 A 
ATOM      4  C   UNL     1      45.755   5.987  10.916  0.00  0.00    +0.000 A 
ATOM      5  C   UNL     1      44.937   5.091  11.601  0.00  0.00    +0.000 A 
ATOM      6  C   UNL     1      45.209   4.890  12.948  0.00  0.00    +0.000 A 
ATOM      7  N   UNL     1      46.208   5.504  13.635  0.00  0.00    +0.000 NA
BRANCH   2   8
ATOM      8  C   UNL     1      48.082   7.088  13.704  0.00  0.00    +0.000 C 
BRANCH   8   9
ATOM      9  N   UNL     1      49.421   6.726  13.229  0.00  0.00    +0.000 NA
ATOM     10  H   UNL     1      50.026   6.601  14.036  0.00  0.00    +0.000 HD
ATOM     11  H   UNL     1      49.792   7.538  12.729  0.00  0.00    +0.000 HD
ENDBRANCH   8   9
ENDBRANCH   2   8
ENDBRANCH   1   5
BRANCH   1  12
ATOM     12  C   UNL     1      44.040   3.948   9.724  0.00  0.00    +0.000 C 
BRANCH  12  13
ATOM     13  C   UNL     1      44.772   2.600   9.629  0.00  0.00    +0.000 C 
ATOM     14  F   UNL     1      45.455   2.392  10.794  0.00  0.00    +0.000 F 
ATOM     15  F   UNL     1      43.798   1.631   9.626  0.00  0.00    +0.000 F 
BRANCH  13  16
ATOM     16  C   UNL     1      45.657   2.487   8.407  0.00  0.00    +0.000 A 
ATOM     17  C   UNL     1      45.853   3.579   7.550  0.00  0.00    +0.000 A 
ATOM     18  C   UNL     1      46.704   3.472   6.449  0.00  0.00    +0.000 A 
ATOM     19  C   UNL     1      47.364   2.272   6.189  0.00  0.00    +0.000 A 
ATOM     20  C   UNL     1      47.168   1.174   7.024  0.00  0.00    +0.000 A 
ATOM     21  C   UNL     1      46.319   1.280   8.125  0.00  0.00    +0.000 A 
ENDBRANCH  13  16
ENDBRANCH  12  13
ENDBRANCH   1  12
TORSDOF 6
ENDMDL
MODEL 4
REMARK VINA RESULT:    -6.691      2.783      5.277
REMARK INTER + INTRA:          -9.628
REMARK INTER:                  -8.835
REMARK INTRA:                  -0.793
REMARK UNBOUND:                -0.786
REMARK  Name = 
REMARK  6 active torsions:
REMARK  status: ('A' for Active; 'I' for Inactive)
REMARK    1  A    between atoms: N_1  and  C_2
REMARK    2  A    between atoms: C_2  and  C_3
REMARK    3  A    between atoms: C_6  and  O_7
REMARK    4  A    between atoms: O_7  and  C_8
REMARK    5  A    between atoms: C_8  and  C_9
REMARK    6  A    between atoms: C_9  and  C_12
REMARK                            x       y       z     vdW  Elec       q    Type
REMARK                         _______ _______ _______ _____ _____    ______ ____
ROOT
ATOM      1  O   UNL     1      44.839   4.664  12.837  0.00  0.00    +0.000 OA
ENDROOT
BRANCH   1   5
ATOM      2  C   UNL     1      48.351   6.828  12.792  0.00  0.00    +0.000 A 
ATOM      3  C   UNL     1      47.370   7.190  11.874  0.00  0.00    +0.000 A 
ATOM      4  C   UNL     1      46.169   6.482  11.847  0.00  0.00    +0.000 A 
ATOM      5  C   UNL     1      45.963   5.435  12.742  0.00  0.00    +0.000 A 
ATOM      6  C   UNL     1      46.993   5.148  13.628  0.00  0.00    +0.000 A 
ATOM      7  N   UNL     1      48.175   5.816  13.680  0.00  0.00    +0.000 NA
BRANCH   2   8
ATOM      8  C   UNL     1      49.647   7.606  12.870  0.00  0.00    +0.000 C 
BRANCH   8   9
ATOM      9  N   UNL     1      50.592   7.207  11.823  0.00  0.00    +0.000 NA
ATOM     10  H   UNL     1      50.390   7.747  10.985  0.00  0.00    +0.000 HD
ATOM     11  H   UNL     1      50.381   6.235  11.581  0.00  0.00    +0.000 HD
ENDBRANCH   8   9
ENDBRANCH   2   8
ENDBRANCH   1   5
BRANCH   1  12
ATOM     12  C   UNL     1      44.915   3.366  12.234  0.00  0.00    +0.000 C 
BRANCH  12  13
ATOM     13  C   UNL     1      44.083   3.266  10.945  0.00  0.00    +0.000 C 
ATOM     14  F   UNL     1      43.238   2.197  11.055  0.00  0.00    +0.000 F 
ATOM     15  F   UNL     1      43.252   4.359  10.937  0.00  0.00    +0.000 F 
BRANCH  13  16
ATOM     16  C   UNL     1      44.929   3.214   9.692  0.00  0.00    +0.000 A 
ATOM     17  C   UNL     1      45.322   1.989   9.134  0.00  0.00    +0.000 A 
ATOM     18  C   UNL     1      46.069   1.955   7.955  0.00  0.00    +0.000 A 
ATOM     19  C   UNL     1      46.435   3.143   7.324  0.00  0.00    +0.000 A 
ATOM     20  C   UNL     1      46.063   4.368   7.876  0.00  0.00    +0.000 A 
ATOM     21  C   UNL     1      45.317   4.403   9.053  0.00  0.00    +0.000 A 
ENDBRANCH  13  16
ENDBRANCH  12  13
ENDBRANCH   1  12
TORSDOF 6
ENDMDL
MODEL 5
REMARK VINA RESULT:    -6.403      3.084      6.035
REMARK INTER + INTRA:          -9.248
REMARK INTER:                  -8.762
REMARK INTRA:                  -0.486
REMARK UNBOUND:                -0.786
REMARK  Name = 
REMARK  6 active torsions:
REMARK  status: ('A' for Active; 'I' for Inactive)
REMARK    1  A    between atoms: N_1  and  C_2
REMARK    2  A    between atoms: C_2  and  C_3
REMARK    3  A    between atoms: C_6  and  O_7
REMARK    4  A    between atoms: O_7  and  C_8
REMARK    5  A    between atoms: C_8  and  C_9
REMARK    6  A    between atoms: C_9  and  C_12
REMARK                            x       y       z     vdW  Elec       q    Type
REMARK                         _______ _______ _______ _____ _____    ______ ____
ROOT
ATOM      1  O   UNL     1      46.340   5.210  11.688  0.00  0.00    +0.000 OA
ENDROOT
BRANCH   1   5
ATOM      2  C   UNL     1      47.525   4.097  15.480  0.00  0.00    +0.000 A 
ATOM      3  C   UNL     1      47.521   5.458  15.189  0.00  0.00    +0.000 A 
ATOM      4  C   UNL     1      47.136   5.881  13.918  0.00  0.00    +0.000 A 
ATOM      5  C   UNL     1      46.750   4.943  12.964  0.00  0.00    +0.000 A 
ATOM      6  C   UNL     1      46.776   3.608  13.344  0.00  0.00    +0.000 A 
ATOM      7  N   UNL     1      47.147   3.161  14.572  0.00  0.00    +0.000 NA
BRANCH   2   8
ATOM      8  C   UNL     1      47.900   3.614  16.864  0.00  0.00    +0.000 C 
BRANCH   8   9
ATOM      9  N   UNL     1      46.767   2.991  17.555  0.00  0.00    +0.000 NA
ATOM     10  H   UNL     1      46.914   1.985  17.572  0.00  0.00    +0.000 HD
ATOM     11  H   UNL     1      45.940   3.138  16.972  0.00  0.00    +0.000 HD
ENDBRANCH   8   9
ENDBRANCH   2   8
ENDBRANCH   1   5
BRANCH   1  12
ATOM     12  C   UNL     1      44.984   5.650  11.543  0.00  0.00    +0.000 C 
BRANCH  12  13
ATOM     13  C   UNL     1      44.105   4.618  10.818  0.00  0.00    +0.000 C 
ATOM     14  F   UNL     1      43.574   3.769  11.748  0.00  0.00    +0.000 F 
ATOM     15  F   UNL     1      43.024   5.308  10.327  0.00  0.00    +0.000 F 
BRANCH  13  16
ATOM     16  C   UNL     1      44.834   3.887   9.711  0.00  0.00    +0.000 A 
ATOM     17  C   UNL     1      45.456   4.587   8.667  0.00  0.00    +0.000 A 
ATOM     18  C   UNL     1      46.158   3.902   7.675  0.00  0.00    +0.000 A 
ATOM     19  C   UNL     1      46.242   2.511   7.711  0.00  0.00    +0.000 A 
ATOM     20  C   UNL     1      45.617   1.801   8.735  0.00  0.00    +0.000 A 
ATOM     21  C   UNL     1      44.916   2.485   9.728  0.00  0.00    +0.000 A 
ENDBRANCH  13  16
ENDBRANCH  12  13
ENDBRANCH   1  12
TORSDOF 6
ENDMDL
MODEL 6
REMARK VINA RESULT:    -6.365      3.432      6.304
REMARK INTER + INTRA:          -9.197
REMARK INTER:                  -8.787
REMARK INTRA:                  -0.410
REMARK UNBOUND:                -0.786
REMARK  Name = 
REMARK  6 active torsions:
REMARK  status: ('A' for Active; 'I' for Inactive)
REMARK    1  A    between atoms: N_1  and  C_2
REMARK    2  A    between atoms: C_2  and  C_3
REMARK    3  A    between atoms: C_6  and  O_7
REMARK    4  A    between atoms: O_7  and  C_8
REMARK    5  A    between atoms: C_8  and  C_9
REMARK    6  A    between atoms: C_9  and  C_12
REMARK                            x       y       z     vdW  Elec       q    Type
REMARK                         _______ _______ _______ _____ _____    ______ ____
ROOT
ATOM      1  O   UNL     1      44.975   5.072  11.070  0.00  0.00    +0.000 OA
ENDROOT
BRANCH   1   5
ATOM      2  C   UNL     1      47.372   7.333  13.552  0.00  0.00    +0.000 A 
ATOM      3  C   UNL     1      47.402   5.953  13.725  0.00  0.00    +0.000 A 
ATOM      4  C   UNL     1      46.603   5.148  12.914  0.00  0.00    +0.000 A 
ATOM      5  C   UNL     1      45.798   5.731  11.939  0.00  0.00    +0.000 A 
ATOM      6  C   UNL     1      45.837   7.115  11.832  0.00  0.00    +0.000 A 
ATOM      7  N   UNL     1      46.602   7.929  12.606  0.00  0.00    +0.000 NA
BRANCH   2   8
ATOM      8  C   UNL     1      48.260   8.226  14.392  0.00  0.00    +0.000 C 
BRANCH   8   9
ATOM      9  N   UNL     1      47.483   9.125  15.249  0.00  0.00    +0.000 NA
ATOM     10  H   UNL     1      48.029   9.967  15.412  0.00  0.00    +0.000 HD
ATOM     11  H   UNL     1      47.398   8.672  16.163  0.00  0.00    +0.000 HD
ENDBRANCH   8   9
ENDBRANCH   2   8
ENDBRANCH   1   5
BRANCH   1  12
ATOM     12  C   UNL     1      45.303   3.701  10.812  0.00  0.00    +0.000 C 
BRANCH  12  13
ATOM     13  C   UNL     1      44.620   3.160   9.546  0.00  0.00    +0.000 C 
ATOM     14  F   UNL     1      43.798   2.128   9.902  0.00  0.00    +0.000 F 
ATOM     15  F   UNL     1      43.764   4.146   9.119  0.00  0.00    +0.000 F 
BRANCH  13  16
ATOM     16  C   UNL     1      45.598   2.777   8.458  0.00  0.00    +0.000 A 
ATOM     17  C   UNL     1      46.110   1.475   8.369  0.00  0.00    +0.000 A 
ATOM     18  C   UNL     1      46.981   1.125   7.336  0.00  0.00    +0.000 A 
ATOM     19  C   UNL     1      47.355   2.074   6.384  0.00  0.00    +0.000 A 
ATOM     20  C   UNL     1      46.865   3.376   6.469  0.00  0.00    +0.000 A 
ATOM     21  C   UNL     1      45.994   3.726   7.500  0.00  0.00    +0.000 A 
ENDBRANCH  13  16
ENDBRANCH  12  13
ENDBRANCH   1  12
TORSDOF 6
ENDMDL
MODEL 7
REMARK VINA RESULT:    -6.102      3.313      5.824
REMARK INTER + INTRA:          -8.850
REMARK INTER:                  -8.246
REMARK INTRA:                  -0.605
REMARK UNBOUND:                -0.786
REMARK  Name = 
REMARK  6 active torsions:
REMARK  status: ('A' for Active; 'I' for Inactive)
REMARK    1  A    between atoms: N_1  and  C_2
REMARK    2  A    between atoms: C_2  and  C_3
REMARK    3  A    between atoms: C_6  and  O_7
REMARK    4  A    between atoms: O_7  and  C_8
REMARK    5  A    between atoms: C_8  and  C_9
REMARK    6  A    between atoms: C_9  and  C_12
REMARK                            x       y       z     vdW  Elec       q    Type
REMARK                         _______ _______ _______ _____ _____    ______ ____
ROOT
ATOM      1  O   UNL     1      45.432   3.881  12.850  0.00  0.00    +0.000 OA
ENDROOT
BRANCH   1   5
ATOM      2  C   UNL     1      48.325   6.263  14.575  0.00  0.00    +0.000 A 
ATOM      3  C   UNL     1      47.789   6.690  13.364  0.00  0.00    +0.000 A 
ATOM      4  C   UNL     1      46.814   5.915  12.740  0.00  0.00    +0.000 A 
ATOM      5  C   UNL     1      46.382   4.733  13.338  0.00  0.00    +0.000 A 
ATOM      6  C   UNL     1      46.967   4.388  14.549  0.00  0.00    +0.000 A 
ATOM      7  N   UNL     1      47.920   5.119  15.184  0.00  0.00    +0.000 NA
BRANCH   2   8
ATOM      8  C   UNL     1      49.356   7.107  15.293  0.00  0.00    +0.000 C 
BRANCH   8   9
ATOM      9  N   UNL     1      50.247   6.296  16.128  0.00  0.00    +0.000 NA
ATOM     10  H   UNL     1      50.714   6.909  16.790  0.00  0.00    +0.000 HD
ATOM     11  H   UNL     1      50.985   5.935  15.518  0.00  0.00    +0.000 HD
ENDBRANCH   8   9
ENDBRANCH   2   8
ENDBRANCH   1   5
BRANCH   1  12
ATOM     12  C   UNL     1      44.083   4.367  12.869  0.00  0.00    +0.000 C 
BRANCH  12  13
ATOM     13  C   UNL     1      43.620   4.868  11.491  0.00  0.00    +0.000 C 
ATOM     14  F   UNL     1      42.257   4.788  11.435  0.00  0.00    +0.000 F 
ATOM     15  F   UNL     1      43.885   6.215  11.461  0.00  0.00    +0.000 F 
BRANCH  13  16
ATOM     16  C   UNL     1      44.293   4.153  10.340  0.00  0.00    +0.000 A 
ATOM     17  C   UNL     1      45.124   4.843   9.446  0.00  0.00    +0.000 A 
ATOM     18  C   UNL     1      45.770   4.163   8.412  0.00  0.00    +0.000 A 
ATOM     19  C   UNL     1      45.588   2.790   8.256  0.00  0.00    +0.000 A 
ATOM     20  C   UNL     1      44.753   2.094   9.129  0.00  0.00    +0.000 A 
ATOM     21  C   UNL     1      44.108   2.772  10.163  0.00  0.00    +0.000 A 
ENDBRANCH  13  16
ENDBRANCH  12  13
ENDBRANCH   1  12
TORSDOF 6
ENDMDL
MODEL 8
REMARK VINA RESULT:    -5.645      4.756      6.615
REMARK INTER + INTRA:          -8.246
REMARK INTER:                  -7.781
REMARK INTRA:                  -0.466
REMARK UNBOUND:                -0.786
REMARK  Name = 
REMARK  6 active torsions:
REMARK  status: ('A' for Active; 'I' for Inactive)
REMARK    1  A    between atoms: N_1  and  C_2
REMARK    2  A    between atoms: C_2  and  C_3
REMARK    3  A    between atoms: C_6  and  O_7
REMARK    4  A    between atoms: O_7  and  C_8
REMARK    5  A    between atoms: C_8  and  C_9
REMARK    6  A    between atoms: C_9  and  C_12
REMARK                            x       y       z     vdW  Elec       q    Type
REMARK                         _______ _______ _______ _____ _____    ______ ____
ROOT
ATOM      1  O   UNL     1      47.315   3.710  14.661  0.00  0.00    +0.000 OA
ENDROOT
BRANCH   1   5
ATOM      2  C   UNL     1      44.504   5.140  12.003  0.00  0.00    +0.000 A 
ATOM      3  C   UNL     1      44.763   3.774  11.979  0.00  0.00    +0.000 A 
ATOM      4  C   UNL     1      45.711   3.245  12.854  0.00  0.00    +0.000 A 
ATOM      5  C   UNL     1      46.375   4.086  13.745  0.00  0.00    +0.000 A 
ATOM      6  C   UNL     1      46.048   5.435  13.704  0.00  0.00    +0.000 A 
ATOM      7  N   UNL     1      45.131   5.982  12.864  0.00  0.00    +0.000 NA
BRANCH   2   8
ATOM      8  C   UNL     1      43.451   5.733  11.091  0.00  0.00    +0.000 C 
BRANCH   8   9
ATOM      9  N   UNL     1      42.152   5.858  11.760  0.00  0.00    +0.000 NA
ATOM     10  H   UNL     1      42.057   5.096  12.424  0.00  0.00    +0.000 HD
ATOM     11  H   UNL     1      41.432   5.697  11.051  0.00  0.00    +0.000 HD
ENDBRANCH   8   9
ENDBRANCH   2   8
ENDBRANCH   1   5
BRANCH   1  12
ATOM     12  C   UNL     1      47.538   4.623  15.744  0.00  0.00    +0.000 C 
BRANCH  12  13
ATOM     13  C   UNL     1      47.721   3.906  17.090  0.00  0.00    +0.000 C 
ATOM     14  F   UNL     1      47.250   4.717  18.084  0.00  0.00    +0.000 F 
ATOM     15  F   UNL     1      46.856   2.839  17.081  0.00  0.00    +0.000 F 
BRANCH  13  16
ATOM     16  C   UNL     1      49.144   3.452  17.335  0.00  0.00    +0.000 A 
ATOM     17  C   UNL     1      49.557   2.153  17.004  0.00  0.00    +0.000 A 
ATOM     18  C   UNL     1      50.882   1.761  17.199  0.00  0.00    +0.000 A 
ATOM     19  C   UNL     1      51.807   2.659  17.731  0.00  0.00    +0.000 A 
ATOM     20  C   UNL     1      51.407   3.948  18.077  0.00  0.00    +0.000 A 
ATOM     21  C   UNL     1      50.083   4.341  17.883  0.00  0.00    +0.000 A 
ENDBRANCH  13  16
ENDBRANCH  12  13
ENDBRANCH   1  12
TORSDOF 6
ENDMDL
MODEL 9
REMARK VINA RESULT:    -4.941      4.124      5.990
REMARK INTER + INTRA:          -7.316
REMARK INTER:                  -6.867
REMARK INTRA:                  -0.449
REMARK UNBOUND:                -0.786
REMARK  Name = 
REMARK  6 active torsions:
REMARK  status: ('A' for Active; 'I' for Inactive)
REMARK    1  A    between atoms: N_1  and  C_2
REMARK    2  A    between atoms: C_2  and  C_3
REMARK    3  A    between atoms: C_6  and  O_7
REMARK    4  A    between atoms: O_7  and  C_8
REMARK    5  A    between atoms: C_8  and  C_9
REMARK    6  A    between atoms: C_9  and  C_12
REMARK                            x       y       z     vdW  Elec       q    Type
REMARK                         _______ _______ _______ _____ _____    ______ ____
ROOT
ATOM      1  O   UNL     1      47.217   6.800  13.655  0.00  0.00    +0.000 OA
ENDROOT
BRANCH   1   5
ATOM      2  C   UNL     1      44.765   4.158  11.649  0.00  0.00    +0.000 A 
ATOM      3  C   UNL     1      45.233   5.256  10.936  0.00  0.00    +0.000 A 
ATOM      4  C   UNL     1      46.059   6.180  11.573  0.00  0.00    +0.000 A 
ATOM      5  C   UNL     1      46.412   5.988  12.907  0.00  0.00    +0.000 A 
ATOM      6  C   UNL     1      45.905   4.860  13.539  0.00  0.00    +0.000 A 
ATOM      7  N   UNL     1      45.097   3.941  12.948  0.00  0.00    +0.000 NA
BRANCH   2   8
ATOM      8  C   UNL     1      43.900   3.119  10.969  0.00  0.00    +0.000 C 
BRANCH   8   9
ATOM      9  N   UNL     1      43.348   2.151  11.922  0.00  0.00    +0.000 NA
ATOM     10  H   UNL     1      43.793   1.252  11.762  0.00  0.00    +0.000 HD
ATOM     11  H   UNL     1      42.363   2.018  11.679  0.00  0.00    +0.000 HD
ENDBRANCH   8   9
ENDBRANCH   2   8
ENDBRANCH   1   5
BRANCH   1  12
ATOM     12  C   UNL     1      48.488   6.254  14.028  0.00  0.00    +0.000 C 
BRANCH  12  13
ATOM     13  C   UNL     1      48.895   6.636  15.460  0.00  0.00    +0.000 C 
ATOM     14  F   UNL     1      50.160   7.153  15.430  0.00  0.00    +0.000 F 
ATOM     15  F   UNL     1      48.100   7.697  15.817  0.00  0.00    +0.000 F 
BRANCH  13  16
ATOM     16  C   UNL     1      48.756   5.495  16.444  0.00  0.00    +0.000 A 
ATOM     17  C   UNL     1      47.584   4.728  16.503  0.00  0.00    +0.000 A 
ATOM     18  C   UNL     1      47.485   3.653  17.388  0.00  0.00    +0.000 A 
ATOM     19  C   UNL     1      48.553   3.336  18.227  0.00  0.00    +0.000 A 
ATOM     20  C   UNL     1      49.719   4.099  18.188  0.00  0.00    +0.000 A 
ATOM     21  C   UNL     1      49.819   5.172  17.304  0.00  0.00    +0.000 A 
ENDBRANCH  13  16
ENDBRANCH  12  13
ENDBRANCH   1  12
TORSDOF 6
ENDMDL
