MODEL 1
REMARK VINA RESULT:    -8.577      0.000      0.000
REMARK INTER + INTRA:         -12.614
REMARK INTER:                 -11.585
REMARK INTRA:                  -1.029
REMARK UNBOUND:                -1.029
REMARK  Name = 
REMARK  6 active torsions:
REMARK  status: ('A' for Active; 'I' for Inactive)
REMARK    1  A    between atoms: C_2  and  C_4
REMARK    2  A    between atoms: N_8  and  C_9
REMARK    3  A    between atoms: C_9  and  C_10
REMARK    4  A    between atoms: C_10  and  C_13
REMARK    5  A    between atoms: C_15  and  S_16
REMARK    6  A    between atoms: S_16  and  C_17
REMARK                            x       y       z     vdW  Elec       q    Type
REMARK                         _______ _______ _______ _____ _____    ______ ____
ROOT
ATOM      1  C   UNL     1      43.223   4.379  11.189  0.00  0.00    +0.000 C 
ENDROOT
BRANCH   1   6
ATOM      2  C   UNL     1      46.473   2.534   7.685  0.00  0.00    +0.000 A 
ATOM      3  C   UNL     1      45.584   1.869   8.514  0.00  0.00    +0.000 A 
ATOM      4  C   UNL     1      44.690   2.616   9.290  0.00  0.00    +0.000 A 
ATOM      5  C   UNL     1      44.696   4.005   9.224  0.00  0.00    +0.000 A 
ATOM      6  N   UNL     1      43.752   4.788   9.871  0.00  0.00    +0.000 N 
ATOM      7  N   UNL     1      45.582   4.658   8.453  0.00  0.00    +0.000 NA
ATOM      8  C   UNL     1      46.462   3.920   7.706  0.00  0.00    +0.000 A 
ATOM      9  H   UNL     1      43.989   5.772   9.762  0.00  0.00    +0.000 HD
BRANCH   2  11
ATOM     10  N   UNL     1      48.513   2.540   6.365  0.00  0.00    +0.000 N 
ATOM     11  C   UNL     1      47.436   1.825   6.815  0.00  0.00    +0.000 C 
ATOM     12  O   UNL     1      47.297   0.641   6.536  0.00  0.00    +0.000 OA
ATOM     13  H   UNL     1      49.218   2.015   5.863  0.00  0.00    +0.000 HD
ATOM     14  H   UNL     1      48.793   3.416   6.780  0.00  0.00    +0.000 HD
ENDBRANCH   2  11
ENDBRANCH   1   6
BRANCH   1  15
ATOM     15  C   UNL     1      44.238   4.522  12.367  0.00  0.00    +0.000 C 
ATOM     16  F   UNL     1      43.526   4.504  13.538  0.00  0.00    +0.000 F 
ATOM     17  F   UNL     1      45.021   3.401  12.410  0.00  0.00    +0.000 F 
BRANCH  15  18
ATOM     18  C   UNL     1      45.086   5.799  12.256  0.00  0.00    +0.000 A 
ATOM     19  C   UNL     1      46.465   5.763  12.529  0.00  0.00    +0.000 A 
ATOM     20  C   UNL     1      47.203   6.956  12.516  0.00  0.00    +0.000 A 
ATOM     21  C   UNL     1      46.556   8.128  12.132  0.00  0.00    +0.000 A 
ATOM     22  C   UNL     1      45.204   8.081  11.840  0.00  0.00    +0.000 A 
ATOM     23  N   UNL     1      44.460   6.959  11.915  0.00  0.00    +0.000 NA
BRANCH  20  24
ATOM     24  S   UNL     1      48.973   7.028  12.802  0.00  0.00    +0.000 S 
BRANCH  24  25
ATOM     25  C   UNL     1      49.072   7.411  14.594  0.00  0.00    +0.000 C 
ATOM     26  C   UNL     1      50.445   7.237  15.250  0.00  0.00    +0.000 C 
ATOM     27  O   UNL     1      49.941   6.253  16.183  0.00  0.00    +0.000 OA
ATOM     28  C   UNL     1      48.665   6.228  15.497  0.00  0.00    +0.000 C 
ENDBRANCH  24  25
ENDBRANCH  20  24
ENDBRANCH  15  18
ENDBRANCH   1  15
TORSDOF 6
ENDMDL
MODEL 2
REMARK VINA RESULT:    -8.476      1.808      2.215
REMARK INTER + INTRA:         -12.478
REMARK INTER:                 -11.838
REMARK INTRA:                  -0.641
REMARK UNBOUND:                -1.029
REMARK  Name = 
REMARK  6 active torsions:
REMARK  status: ('A' for Active; 'I' for Inactive)
REMARK    1  A    between atoms: C_2  and  C_4
REMARK    2  A    between atoms: N_8  and  C_9
REMARK    3  A    between atoms: C_9  and  C_10
REMARK    4  A    between atoms: C_10  and  C_13
REMARK    5  A    between atoms: C_15  and  S_16
REMARK    6  A    between atoms: S_16  and  C_17
REMARK                            x       y       z     vdW  Elec       q    Type
REMARK                         _______ _______ _______ _____ _____    ______ ____
ROOT
ATOM      1  C   UNL     1      43.318   4.460  11.207  0.00  0.00    +0.000 C 
ENDROOT
BRANCH   1   6
ATOM      2  C   UNL     1      46.465   2.491   7.677  0.00  0.00    +0.000 A 
ATOM      3  C   UNL     1      45.668   1.854   8.614  0.00  0.00    +0.000 A 
ATOM      4  C   UNL     1      44.776   2.618   9.377  0.00  0.00    +0.000 A 
ATOM      5  C   UNL     1      44.695   3.993   9.193  0.00  0.00    +0.000 A 
ATOM      6  N   UNL     1      43.744   4.779   9.828  0.00  0.00    +0.000 N 
ATOM      7  N   UNL     1      45.494   4.623   8.315  0.00  0.00    +0.000 NA
ATOM      8  C   UNL     1      46.373   3.871   7.580  0.00  0.00    +0.000 A 
ATOM      9  H   UNL     1      43.915   5.760   9.621  0.00  0.00    +0.000 HD
BRANCH   2  11
ATOM     10  N   UNL     1      48.535   2.438   6.404  0.00  0.00    +0.000 N 
ATOM     11  C   UNL     1      47.418   1.761   6.812  0.00  0.00    +0.000 C 
ATOM     12  O   UNL     1      47.235   0.591   6.502  0.00  0.00    +0.000 OA
ATOM     13  H   UNL     1      49.229   1.896   5.907  0.00  0.00    +0.000 HD
ATOM     14  H   UNL     1      48.842   3.292   6.847  0.00  0.00    +0.000 HD
ENDBRANCH   2  11
ENDBRANCH   1   6
BRANCH   1  15
ATOM     15  C   UNL     1      43.515   5.622  12.230  0.00  0.00    +0.000 C 
ATOM     16  F   UNL     1      43.153   6.792  11.612  0.00  0.00    +0.000 F 
ATOM     17  F   UNL     1      42.614   5.467  13.249  0.00  0.00    +0.000 F 
BRANCH  15  18
ATOM     18  C   UNL     1      44.956   5.699  12.757  0.00  0.00    +0.000 A 
ATOM     19  C   UNL     1      45.447   4.711  13.630  0.00  0.00    +0.000 A 
ATOM     20  C   UNL     1      46.732   4.849  14.176  0.00  0.00    +0.000 A 
ATOM     21  C   UNL     1      47.518   5.918  13.752  0.00  0.00    +0.000 A 
ATOM     22  C   UNL     1      46.981   6.830  12.860  0.00  0.00    +0.000 A 
ATOM     23  N   UNL     1      45.725   6.756  12.378  0.00  0.00    +0.000 NA
BRANCH  20  24
ATOM     24  S   UNL     1      47.482   3.633  15.262  0.00  0.00    +0.000 S 
BRANCH  24  25
ATOM     25  C   UNL     1      48.137   4.668  16.628  0.00  0.00    +0.000 C 
ATOM     26  C   UNL     1      49.079   3.972  17.614  0.00  0.00    +0.000 C 
ATOM     27  O   UNL     1      48.207   4.247  18.735  0.00  0.00    +0.000 OA
ATOM     28  C   UNL     1      47.186   4.754  17.841  0.00  0.00    +0.000 C 
ENDBRANCH  24  25
ENDBRANCH  20  24
ENDBRANCH  15  18
ENDBRANCH   1  15
TORSDOF 6
ENDMDL
MODEL 3
REMARK VINA RESULT:    -8.459      1.895      2.411
REMARK INTER + INTRA:         -12.455
REMARK INTER:                 -11.720
REMARK INTRA:                  -0.735
REMARK UNBOUND:                -1.029
REMARK  Name = 
REMARK  6 active torsions:
REMARK  status: ('A' for Active; 'I' for Inactive)
REMARK    1  A    between atoms: C_2  and  C_4
REMARK    2  A    between atoms: N_8  and  C_9
REMARK    3  A    between atoms: C_9  and  C_10
REMARK    4  A    between atoms: C_10  and  C_13
REMARK    5  A    between atoms: C_15  and  S_16
REMARK    6  A    between atoms: S_16  and  C_17
REMARK                            x       y       z     vdW  Elec       q    Type
REMARK                         _______ _______ _______ _____ _____    ______ ____
ROOT
ATOM      1  C   UNL     1      43.208   4.386  11.166  0.00  0.00    +0.000 C 
ENDROOT
BRANCH   1   6
ATOM      2  C   UNL     1      46.476   2.518   7.691  0.00  0.00    +0.000 A 
ATOM      3  C   UNL     1      45.669   1.856   8.601  0.00  0.00    +0.000 A 
ATOM      4  C   UNL     1      44.745   2.593   9.352  0.00  0.00    +0.000 A 
ATOM      5  C   UNL     1      44.641   3.969   9.180  0.00  0.00    +0.000 A 
ATOM      6  N   UNL     1      43.660   4.728   9.801  0.00  0.00    +0.000 N 
ATOM      7  N   UNL     1      45.448   4.624   8.328  0.00  0.00    +0.000 NA
ATOM      8  C   UNL     1      46.358   3.897   7.606  0.00  0.00    +0.000 A 
ATOM      9  H   UNL     1      43.816   5.715   9.609  0.00  0.00    +0.000 HD
BRANCH   2  11
ATOM     10  N   UNL     1      48.524   2.550   6.383  0.00  0.00    +0.000 N 
ATOM     11  C   UNL     1      47.463   1.817   6.841  0.00  0.00    +0.000 C 
ATOM     12  O   UNL     1      47.356   0.625   6.585  0.00  0.00    +0.000 OA
ATOM     13  H   UNL     1      49.246   2.034   5.897  0.00  0.00    +0.000 HD
ATOM     14  H   UNL     1      48.779   3.441   6.783  0.00  0.00    +0.000 HD
ENDBRANCH   2  11
ENDBRANCH   1   6
BRANCH   1  15
ATOM     15  C   UNL     1      43.353   5.542  12.205  0.00  0.00    +0.000 C 
ATOM     16  F   UNL     1      42.961   6.706  11.595  0.00  0.00    +0.000 F 
ATOM     17  F   UNL     1      42.445   5.345  13.210  0.00  0.00    +0.000 F 
BRANCH  15  18
ATOM     18  C   UNL     1      44.784   5.660  12.752  0.00  0.00    +0.000 A 
ATOM     19  C   UNL     1      45.443   6.903  12.758  0.00  0.00    +0.000 A 
ATOM     20  C   UNL     1      46.781   6.973  13.172  0.00  0.00    +0.000 A 
ATOM     21  C   UNL     1      47.383   5.815  13.658  0.00  0.00    +0.000 A 
ATOM     22  C   UNL     1      46.660   4.635  13.658  0.00  0.00    +0.000 A 
ATOM     23  N   UNL     1      45.397   4.530  13.200  0.00  0.00    +0.000 NA
BRANCH  20  24
ATOM     24  S   UNL     1      47.709   8.507  13.266  0.00  0.00    +0.000 S 
BRANCH  24  25
ATOM     25  C   UNL     1      48.687   8.478  11.713  0.00  0.00    +0.000 C 
ATOM     26  C   UNL     1      50.034   7.754  11.774  0.00  0.00    +0.000 C 
ATOM     27  O   UNL     1      50.761   8.950  11.408  0.00  0.00    +0.000 OA
ATOM     28  C   UNL     1      49.551   9.740  11.511  0.00  0.00    +0.000 C 
ENDBRANCH  24  25
ENDBRANCH  20  24
ENDBRANCH  15  18
ENDBRANCH   1  15
TORSDOF 6
ENDMDL
MODEL 4
REMARK VINA RESULT:    -7.249      3.501      8.215
REMARK INTER + INTRA:         -10.821
REMARK INTER:                 -10.112
REMARK INTRA:                  -0.709
REMARK UNBOUND:                -1.029
REMARK  Name = 
REMARK  6 active torsions:
REMARK  status: ('A' for Active; 'I' for Inactive)
REMARK    1  A    between atoms: C_2  and  C_4
REMARK    2  A    between atoms: N_8  and  C_9
REMARK    3  A    between atoms: C_9  and  C_10
REMARK    4  A    between atoms: C_10  and  C_13
REMARK    5  A    between atoms: C_15  and  S_16
REMARK    6  A    between atoms: S_16  and  C_17
REMARK                            x       y       z     vdW  Elec       q    Type
REMARK                         _______ _______ _______ _____ _____    ______ ____
ROOT
ATOM      1  C   UNL     1      47.039   5.532  13.217  0.00  0.00    +0.000 C 
ENDROOT
BRANCH   1   6
ATOM      2  C   UNL     1      48.562   4.434  17.983  0.00  0.00    +0.000 A 
ATOM      3  C   UNL     1      48.835   5.538  17.193  0.00  0.00    +0.000 A 
ATOM      4  C   UNL     1      48.174   5.675  15.966  0.00  0.00    +0.000 A 
ATOM      5  C   UNL     1      47.257   4.716  15.552  0.00  0.00    +0.000 A 
ATOM      6  N   UNL     1      46.482   4.865  14.411  0.00  0.00    +0.000 N 
ATOM      7  N   UNL     1      47.016   3.622  16.294  0.00  0.00    +0.000 NA
ATOM      8  C   UNL     1      47.676   3.488  17.488  0.00  0.00    +0.000 A 
ATOM      9  H   UNL     1      45.944   4.016  14.248  0.00  0.00    +0.000 HD
BRANCH   2  11
ATOM     10  N   UNL     1      48.459   3.561  20.248  0.00  0.00    +0.000 N 
ATOM     11  C   UNL     1      49.196   4.219  19.302  0.00  0.00    +0.000 C 
ATOM     12  O   UNL     1      50.342   4.584  19.529  0.00  0.00    +0.000 OA
ATOM     13  H   UNL     1      48.942   3.325  21.105  0.00  0.00    +0.000 HD
ATOM     14  H   UNL     1      47.635   3.025  20.017  0.00  0.00    +0.000 HD
ENDBRANCH   2  11
ENDBRANCH   1   6
BRANCH   1  15
ATOM     15  C   UNL     1      45.969   6.044  12.202  0.00  0.00    +0.000 C 
ATOM     16  F   UNL     1      45.024   6.744  12.907  0.00  0.00    +0.000 F 
ATOM     17  F   UNL     1      46.552   6.968  11.377  0.00  0.00    +0.000 F 
BRANCH  15  18
ATOM     18  C   UNL     1      45.326   4.899  11.403  0.00  0.00    +0.000 A 
ATOM     19  C   UNL     1      45.615   4.737  10.036  0.00  0.00    +0.000 A 
ATOM     20  C   UNL     1      44.946   3.746   9.302  0.00  0.00    +0.000 A 
ATOM     21  C   UNL     1      44.086   2.888   9.983  0.00  0.00    +0.000 A 
ATOM     22  C   UNL     1      43.880   3.084  11.338  0.00  0.00    +0.000 A 
ATOM     23  N   UNL     1      44.458   4.073  12.048  0.00  0.00    +0.000 NA
BRANCH  20  24
ATOM     24  S   UNL     1      45.264   3.416   7.567  0.00  0.00    +0.000 S 
BRANCH  24  25
ATOM     25  C   UNL     1      46.939   2.667   7.604  0.00  0.00    +0.000 C 
ATOM     26  C   UNL     1      47.659   2.551   6.258  0.00  0.00    +0.000 C 
ATOM     27  O   UNL     1      47.757   1.112   6.366  0.00  0.00    +0.000 OA
ATOM     28  C   UNL     1      46.922   1.125   7.550  0.00  0.00    +0.000 C 
ENDBRANCH  24  25
ENDBRANCH  20  24
ENDBRANCH  15  18
ENDBRANCH   1  15
TORSDOF 6
ENDMDL
MODEL 5
REMARK VINA RESULT:    -6.458      1.928      2.508
REMARK INTER + INTRA:          -9.752
REMARK INTER:                  -9.077
REMARK INTRA:                  -0.676
REMARK UNBOUND:                -1.029
REMARK  Name = 
REMARK  6 active torsions:
REMARK  status: ('A' for Active; 'I' for Inactive)
REMARK    1  A    between atoms: C_2  and  C_4
REMARK    2  A    between atoms: N_8  and  C_9
REMARK    3  A    between atoms: C_9  and  C_10
REMARK    4  A    between atoms: C_10  and  C_13
REMARK    5  A    between atoms: C_15  and  S_16
REMARK    6  A    between atoms: S_16  and  C_17
REMARK                            x       y       z     vdW  Elec       q    Type
REMARK                         _______ _______ _______ _____ _____    ______ ____
ROOT
ATOM      1  C   UNL     1      44.440   5.442  11.164  0.00  0.00    +0.000 C 
ENDROOT
BRANCH   1   6
ATOM      2  C   UNL     1      46.595   2.379   7.669  0.00  0.00    +0.000 A 
ATOM      3  C   UNL     1      45.934   2.062   8.844  0.00  0.00    +0.000 A 
ATOM      4  C   UNL     1      45.299   3.083   9.562  0.00  0.00    +0.000 A 
ATOM      5  C   UNL     1      45.333   4.393   9.097  0.00  0.00    +0.000 A 
ATOM      6  N   UNL     1      44.617   5.419   9.697  0.00  0.00    +0.000 N 
ATOM      7  N   UNL     1      46.006   4.714   7.979  0.00  0.00    +0.000 NA
ATOM      8  C   UNL     1      46.635   3.712   7.289  0.00  0.00    +0.000 A 
ATOM      9  H   UNL     1      44.849   6.305   9.254  0.00  0.00    +0.000 HD
BRANCH   2  11
ATOM     10  N   UNL     1      48.295   1.793   6.034  0.00  0.00    +0.000 N 
ATOM     11  C   UNL     1      47.273   1.362   6.835  0.00  0.00    +0.000 C 
ATOM     12  O   UNL     1      46.959   0.180   6.885  0.00  0.00    +0.000 OA
ATOM     13  H   UNL     1      48.820   1.073   5.554  0.00  0.00    +0.000 HD
ATOM     14  H   UNL     1      48.745   2.688   6.164  0.00  0.00    +0.000 HD
ENDBRANCH   2  11
ENDBRANCH   1   6
BRANCH   1  15
ATOM     15  C   UNL     1      45.328   6.489  11.907  0.00  0.00    +0.000 C 
ATOM     16  F   UNL     1      46.170   7.055  10.984  0.00  0.00    +0.000 F 
ATOM     17  F   UNL     1      44.531   7.514  12.337  0.00  0.00    +0.000 F 
BRANCH  15  18
ATOM     18  C   UNL     1      46.120   5.864  13.067  0.00  0.00    +0.000 A 
ATOM     19  C   UNL     1      47.158   6.583  13.687  0.00  0.00    +0.000 A 
ATOM     20  C   UNL     1      47.932   5.962  14.678  0.00  0.00    +0.000 A 
ATOM     21  C   UNL     1      47.578   4.677  15.083  0.00  0.00    +0.000 A 
ATOM     22  C   UNL     1      46.519   4.045  14.454  0.00  0.00    +0.000 A 
ATOM     23  N   UNL     1      45.807   4.597  13.451  0.00  0.00    +0.000 NA
BRANCH  20  24
ATOM     24  S   UNL     1      49.250   6.792  15.570  0.00  0.00    +0.000 S 
BRANCH  24  25
ATOM     25  C   UNL     1      49.589   8.254  14.513  0.00  0.00    +0.000 C 
ATOM     26  C   UNL     1      50.892   9.006  14.795  0.00  0.00    +0.000 C 
ATOM     27  O   UNL     1      50.188  10.235  15.091  0.00  0.00    +0.000 OA
ATOM     28  C   UNL     1      48.916   9.546  15.022  0.00  0.00    +0.000 C 
ENDBRANCH  24  25
ENDBRANCH  20  24
ENDBRANCH  15  18
ENDBRANCH   1  15
TORSDOF 6
ENDMDL
MODEL 6
REMARK VINA RESULT:    -6.293      4.514      6.456
REMARK INTER + INTRA:          -9.530
REMARK INTER:                  -9.084
REMARK INTRA:                  -0.446
REMARK UNBOUND:                -1.029
REMARK  Name = 
REMARK  6 active torsions:
REMARK  status: ('A' for Active; 'I' for Inactive)
REMARK    1  A    between atoms: C_2  and  C_4
REMARK    2  A    between atoms: N_8  and  C_9
REMARK    3  A    between atoms: C_9  and  C_10
REMARK    4  A    between atoms: C_10  and  C_13
REMARK    5  A    between atoms: C_15  and  S_16
REMARK    6  A    between atoms: S_16  and  C_17
REMARK                            x       y       z     vdW  Elec       q    Type
REMARK                         _______ _______ _______ _____ _____    ______ ____
ROOT
ATOM      1  C   UNL     1      47.519   3.852  15.818  0.00  0.00    +0.000 C 
ENDROOT
BRANCH   1   6
ATOM      2  C   UNL     1      44.497   4.724  11.774  0.00  0.00    +0.000 A 
ATOM      3  C   UNL     1      45.045   5.613  12.685  0.00  0.00    +0.000 A 
ATOM      4  C   UNL     1      45.968   5.138  13.625  0.00  0.00    +0.000 A 
ATOM      5  C   UNL     1      46.326   3.795  13.640  0.00  0.00    +0.000 A 
ATOM      6  N   UNL     1      47.326   3.296  14.462  0.00  0.00    +0.000 N 
ATOM      7  N   UNL     1      45.769   2.920  12.786  0.00  0.00    +0.000 NA
ATOM      8  C   UNL     1      44.858   3.389  11.876  0.00  0.00    +0.000 A 
ATOM      9  H   UNL     1      47.368   2.283  14.377  0.00  0.00    +0.000 HD
BRANCH   2  11
ATOM     10  N   UNL     1      43.744   4.672   9.464  0.00  0.00    +0.000 N 
ATOM     11  C   UNL     1      43.534   5.142  10.732  0.00  0.00    +0.000 C 
ATOM     12  O   UNL     1      42.570   5.848  10.997  0.00  0.00    +0.000 OA
ATOM     13  H   UNL     1      43.020   4.875   8.788  0.00  0.00    +0.000 HD
ATOM     14  H   UNL     1      44.357   3.894   9.270  0.00  0.00    +0.000 HD
ENDBRANCH   2  11
ENDBRANCH   1   6
BRANCH   1  15
ATOM     15  C   UNL     1      48.179   2.868  16.834  0.00  0.00    +0.000 C 
ATOM     16  F   UNL     1      47.188   2.370  17.640  0.00  0.00    +0.000 F 
ATOM     17  F   UNL     1      48.657   1.784  16.149  0.00  0.00    +0.000 F 
BRANCH  15  18
ATOM     18  C   UNL     1      49.282   3.541  17.667  0.00  0.00    +0.000 A 
ATOM     19  C   UNL     1      48.950   4.300  18.803  0.00  0.00    +0.000 A 
ATOM     20  C   UNL     1      49.960   4.985  19.495  0.00  0.00    +0.000 A 
ATOM     21  C   UNL     1      51.279   4.807  19.084  0.00  0.00    +0.000 A 
ATOM     22  C   UNL     1      51.534   4.013  17.979  0.00  0.00    +0.000 A 
ATOM     23  N   UNL     1      50.572   3.402  17.257  0.00  0.00    +0.000 NA
BRANCH  20  24
ATOM     24  S   UNL     1      49.666   5.946  20.982  0.00  0.00    +0.000 S 
BRANCH  24  25
ATOM     25  C   UNL     1      49.006   7.523  20.315  0.00  0.00    +0.000 C 
ATOM     26  C   UNL     1      47.732   7.423  19.472  0.00  0.00    +0.000 C 
ATOM     27  O   UNL     1      48.383   7.993  18.312  0.00  0.00    +0.000 OA
ATOM     28  C   UNL     1      49.665   7.948  18.986  0.00  0.00    +0.000 C 
ENDBRANCH  24  25
ENDBRANCH  20  24
ENDBRANCH  15  18
ENDBRANCH   1  15
TORSDOF 6
ENDMDL
MODEL 7
REMARK VINA RESULT:    -6.191      4.443      6.444
REMARK INTER + INTRA:          -9.392
REMARK INTER:                  -8.903
REMARK INTRA:                  -0.489
REMARK UNBOUND:                -1.029
REMARK  Name = 
REMARK  6 active torsions:
REMARK  status: ('A' for Active; 'I' for Inactive)
REMARK    1  A    between atoms: C_2  and  C_4
REMARK    2  A    between atoms: N_8  and  C_9
REMARK    3  A    between atoms: C_9  and  C_10
REMARK    4  A    between atoms: C_10  and  C_13
REMARK    5  A    between atoms: C_15  and  S_16
REMARK    6  A    between atoms: S_16  and  C_17
REMARK                            x       y       z     vdW  Elec       q    Type
REMARK                         _______ _______ _______ _____ _____    ______ ____
ROOT
ATOM      1  C   UNL     1      47.566   3.896  15.881  0.00  0.00    +0.000 C 
ENDROOT
BRANCH   1   6
ATOM      2  C   UNL     1      44.618   4.741  11.777  0.00  0.00    +0.000 A 
ATOM      3  C   UNL     1      45.177   5.638  12.672  0.00  0.00    +0.000 A 
ATOM      4  C   UNL     1      46.075   5.165  13.636  0.00  0.00    +0.000 A 
ATOM      5  C   UNL     1      46.400   3.814  13.689  0.00  0.00    +0.000 A 
ATOM      6  N   UNL     1      47.376   3.312  14.537  0.00  0.00    +0.000 N 
ATOM      7  N   UNL     1      45.832   2.932  12.850  0.00  0.00    +0.000 NA
ATOM      8  C   UNL     1      44.944   3.400  11.917  0.00  0.00    +0.000 A 
ATOM      9  H   UNL     1      47.394   2.296  14.477  0.00  0.00    +0.000 HD
BRANCH   2  11
ATOM     10  N   UNL     1      43.966   4.754   9.436  0.00  0.00    +0.000 N 
ATOM     11  C   UNL     1      43.679   5.156  10.712  0.00  0.00    +0.000 C 
ATOM     12  O   UNL     1      42.670   5.801  10.964  0.00  0.00    +0.000 OA
ATOM     13  H   UNL     1      43.261   4.950   8.737  0.00  0.00    +0.000 HD
ATOM     14  H   UNL     1      44.625   4.016   9.236  0.00  0.00    +0.000 HD
ENDBRANCH   2  11
ENDBRANCH   1   6
BRANCH   1  15
ATOM     15  C   UNL     1      48.181   2.920  16.932  0.00  0.00    +0.000 C 
ATOM     16  F   UNL     1      47.151   2.394  17.669  0.00  0.00    +0.000 F 
ATOM     17  F   UNL     1      48.726   1.852  16.272  0.00  0.00    +0.000 F 
BRANCH  15  18
ATOM     18  C   UNL     1      49.213   3.611  17.837  0.00  0.00    +0.000 A 
ATOM     19  C   UNL     1      50.587   3.509  17.556  0.00  0.00    +0.000 A 
ATOM     20  C   UNL     1      51.517   4.065  18.446  0.00  0.00    +0.000 A 
ATOM     21  C   UNL     1      51.038   4.789  19.535  0.00  0.00    +0.000 A 
ATOM     22  C   UNL     1      49.670   4.879  19.728  0.00  0.00    +0.000 A 
ATOM     23  N   UNL     1      48.760   4.294  18.924  0.00  0.00    +0.000 NA
BRANCH  20  24
ATOM     24  S   UNL     1      53.291   4.039  18.170  0.00  0.00    +0.000 S 
BRANCH  24  25
ATOM     25  C   UNL     1      53.627   5.741  17.572  0.00  0.00    +0.000 C 
ATOM     26  C   UNL     1      52.633   6.312  16.558  0.00  0.00    +0.000 C 
ATOM     27  O   UNL     1      53.663   6.489  15.558  0.00  0.00    +0.000 OA
ATOM     28  C   UNL     1      54.620   5.790  16.392  0.00  0.00    +0.000 C 
ENDBRANCH  24  25
ENDBRANCH  20  24
ENDBRANCH  15  18
ENDBRANCH   1  15
TORSDOF 6
ENDMDL
MODEL 8
REMARK VINA RESULT:    -6.150      3.443      5.321
REMARK INTER + INTRA:          -9.336
REMARK INTER:                  -8.610
REMARK INTRA:                  -0.726
REMARK UNBOUND:                -1.029
REMARK  Name = 
REMARK  6 active torsions:
REMARK  status: ('A' for Active; 'I' for Inactive)
REMARK    1  A    between atoms: C_2  and  C_4
REMARK    2  A    between atoms: N_8  and  C_9
REMARK    3  A    between atoms: C_9  and  C_10
REMARK    4  A    between atoms: C_10  and  C_13
REMARK    5  A    between atoms: C_15  and  S_16
REMARK    6  A    between atoms: S_16  and  C_17
REMARK                            x       y       z     vdW  Elec       q    Type
REMARK                         _______ _______ _______ _____ _____    ______ ____
ROOT
ATOM      1  C   UNL     1      47.405   7.949  13.345  0.00  0.00    +0.000 C 
ENDROOT
BRANCH   1   6
ATOM      2  C   UNL     1      44.686   4.090  11.356  0.00  0.00    +0.000 A 
ATOM      3  C   UNL     1      44.945   4.408  12.679  0.00  0.00    +0.000 A 
ATOM      4  C   UNL     1      45.600   5.611  12.973  0.00  0.00    +0.000 A 
ATOM      5  C   UNL     1      45.981   6.470  11.948  0.00  0.00    +0.000 A 
ATOM      6  N   UNL     1      46.515   7.728  12.186  0.00  0.00    +0.000 N 
ATOM      7  N   UNL     1      45.770   6.149  10.661  0.00  0.00    +0.000 NA
ATOM      8  C   UNL     1      45.139   4.965  10.381  0.00  0.00    +0.000 A 
ATOM      9  H   UNL     1      46.802   8.151  11.306  0.00  0.00    +0.000 HD
BRANCH   2  11
ATOM     10  N   UNL     1      44.497   2.154   9.899  0.00  0.00    +0.000 N 
ATOM     11  C   UNL     1      43.981   2.853  10.957  0.00  0.00    +0.000 C 
ATOM     12  O   UNL     1      42.997   2.451  11.565  0.00  0.00    +0.000 OA
ATOM     13  H   UNL     1      44.072   1.257   9.707  0.00  0.00    +0.000 HD
ATOM     14  H   UNL     1      45.434   2.308   9.555  0.00  0.00    +0.000 HD
ENDBRANCH   2  11
ENDBRANCH   1   6
BRANCH   1  15
ATOM     15  C   UNL     1      48.926   7.770  13.038  0.00  0.00    +0.000 C 
ATOM     16  F   UNL     1      49.048   6.793  12.083  0.00  0.00    +0.000 F 
ATOM     17  F   UNL     1      49.391   8.910  12.442  0.00  0.00    +0.000 F 
BRANCH  15  18
ATOM     18  C   UNL     1      49.737   7.418  14.295  0.00  0.00    +0.000 A 
ATOM     19  C   UNL     1      49.153   6.665  15.330  0.00  0.00    +0.000 A 
ATOM     20  C   UNL     1      49.877   6.436  16.510  0.00  0.00    +0.000 A 
ATOM     21  C   UNL     1      51.195   6.883  16.573  0.00  0.00    +0.000 A 
ATOM     22  C   UNL     1      51.715   7.585  15.499  0.00  0.00    +0.000 A 
ATOM     23  N   UNL     1      51.015   7.877  14.385  0.00  0.00    +0.000 NA
BRANCH  20  24
ATOM     24  S   UNL     1      49.256   5.453  17.877  0.00  0.00    +0.000 S 
BRANCH  24  25
ATOM     25  C   UNL     1      48.507   4.011  17.024  0.00  0.00    +0.000 C 
ATOM     26  C   UNL     1      47.034   4.147  16.629  0.00  0.00    +0.000 C 
ATOM     27  O   UNL     1      46.651   3.007  17.433  0.00  0.00    +0.000 OA
ATOM     28  C   UNL     1      47.986   2.930  17.993  0.00  0.00    +0.000 C 
ENDBRANCH  24  25
ENDBRANCH  20  24
ENDBRANCH  15  18
ENDBRANCH   1  15
TORSDOF 6
ENDMDL
MODEL 9
REMARK VINA RESULT:    -6.135      5.070      6.846
REMARK INTER + INTRA:          -9.315
REMARK INTER:                  -9.150
REMARK INTRA:                  -0.165
REMARK UNBOUND:                -1.029
REMARK  Name = 
REMARK  6 active torsions:
REMARK  status: ('A' for Active; 'I' for Inactive)
REMARK    1  A    between atoms: C_2  and  C_4
REMARK    2  A    between atoms: N_8  and  C_9
REMARK    3  A    between atoms: C_9  and  C_10
REMARK    4  A    between atoms: C_10  and  C_13
REMARK    5  A    between atoms: C_15  and  S_16
REMARK    6  A    between atoms: S_16  and  C_17
REMARK                            x       y       z     vdW  Elec       q    Type
REMARK                         _______ _______ _______ _____ _____    ______ ____
ROOT
ATOM      1  C   UNL     1      47.534   3.881  15.883  0.00  0.00    +0.000 C 
ENDROOT
BRANCH   1   6
ATOM      2  C   UNL     1      44.616   4.756  11.766  0.00  0.00    +0.000 A 
ATOM      3  C   UNL     1      45.195   5.648  12.652  0.00  0.00    +0.000 A 
ATOM      4  C   UNL     1      46.080   5.162  13.623  0.00  0.00    +0.000 A 
ATOM      5  C   UNL     1      46.370   3.805  13.691  0.00  0.00    +0.000 A 
ATOM      6  N   UNL     1      47.332   3.287  14.545  0.00  0.00    +0.000 N 
ATOM      7  N   UNL     1      45.781   2.928  12.860  0.00  0.00    +0.000 NA
ATOM      8  C   UNL     1      44.907   3.409  11.920  0.00  0.00    +0.000 A 
ATOM      9  H   UNL     1      47.324   2.270  14.497  0.00  0.00    +0.000 HD
BRANCH   2  11
ATOM     10  N   UNL     1      43.965   4.757   9.424  0.00  0.00    +0.000 N 
ATOM     11  C   UNL     1      43.689   5.183  10.695  0.00  0.00    +0.000 C 
ATOM     12  O   UNL     1      42.698   5.860  10.938  0.00  0.00    +0.000 OA
ATOM     13  H   UNL     1      43.265   4.963   8.723  0.00  0.00    +0.000 HD
ATOM     14  H   UNL     1      44.603   3.998   9.234  0.00  0.00    +0.000 HD
ENDBRANCH   2  11
ENDBRANCH   1   6
BRANCH   1  15
ATOM     15  C   UNL     1      48.158   2.911  16.936  0.00  0.00    +0.000 C 
ATOM     16  F   UNL     1      47.138   2.418  17.708  0.00  0.00    +0.000 F 
ATOM     17  F   UNL     1      48.666   1.821  16.282  0.00  0.00    +0.000 F 
BRANCH  15  18
ATOM     18  C   UNL     1      49.226   3.597  17.802  0.00  0.00    +0.000 A 
ATOM     19  C   UNL     1      50.593   3.396  17.539  0.00  0.00    +0.000 A 
ATOM     20  C   UNL     1      51.551   3.953  18.398  0.00  0.00    +0.000 A 
ATOM     21  C   UNL     1      51.111   4.775  19.434  0.00  0.00    +0.000 A 
ATOM     22  C   UNL     1      49.750   4.958  19.609  0.00  0.00    +0.000 A 
ATOM     23  N   UNL     1      48.810   4.376  18.838  0.00  0.00    +0.000 NA
BRANCH  20  24
ATOM     24  S   UNL     1      53.320   3.804  18.138  0.00  0.00    +0.000 S 
BRANCH  24  25
ATOM     25  C   UNL     1      53.642   2.051  18.580  0.00  0.00    +0.000 C 
ATOM     26  C   UNL     1      54.805   1.372  17.853  0.00  0.00    +0.000 C 
ATOM     27  O   UNL     1      53.939   0.360  17.287  0.00  0.00    +0.000 OA
ATOM     28  C   UNL     1      52.770   1.052  17.791  0.00  0.00    +0.000 C 
ENDBRANCH  24  25
ENDBRANCH  20  24
ENDBRANCH  15  18
ENDBRANCH   1  15
TORSDOF 6
ENDMDL
