MODEL 1
REMARK VINA RESULT:    -7.176      0.000      0.000
REMARK INTER + INTRA:         -10.883
REMARK INTER:                  -9.903
REMARK INTRA:                  -0.980
REMARK UNBOUND:                -0.980
REMARK  Name = 
REMARK  10 active torsions:
REMARK  status: ('A' for Active; 'I' for Inactive)
REMARK    1  A    between atoms: C_1  and  N_2
REMARK    2  A    between atoms: N_5  and  C_6
REMARK    3  A    between atoms: C_10  and  C_11
REMARK    4  A    between atoms: C_11  and  C_12
REMARK    5  A    between atoms: C_11  and  C_13
REMARK    6  A    between atoms: C_11  and  C_14
REMARK    7  A    between atoms: C_14  and  N_15
REMARK    8  A    between atoms: N_15  and  C_16
REMARK    9  A    between atoms: C_19  and  S_20
REMARK   10  A    between atoms: S_20  and  N_21
REMARK                            x       y       z     vdW  Elec       q    Type
REMARK                         _______ _______ _______ _____ _____    ______ ____
ROOT
ATOM      1  C   UNL     1      46.344   7.898  12.121  0.00  0.00    +0.000 C 
ATOM      2  C   UNL     1      47.690   7.674  11.390  0.00  0.00    +0.000 C 
ATOM      3  C   UNL     1      45.671   9.160  11.533  0.00  0.00    +0.000 C 
ENDROOT
BRANCH   1   8
ATOM      4  C   UNL     1      44.812   4.720  10.497  0.00  0.00    +0.000 A 
ATOM      5  C   UNL     1      43.989   4.289  11.541  0.00  0.00    +0.000 A 
ATOM      6  C   UNL     1      43.855   5.028  12.719  0.00  0.00    +0.000 A 
ATOM      7  C   UNL     1      44.589   6.199  12.898  0.00  0.00    +0.000 A 
ATOM      8  C   UNL     1      45.436   6.674  11.886  0.00  0.00    +0.000 A 
ATOM      9  C   UNL     1      45.463   5.948  10.680  0.00  0.00    +0.000 A 
BRANCH   4  14
ATOM     10  C   UNL     1      47.330   1.295   6.930  0.00  0.00    +0.000 C 
ATOM     11  N   UNL     1      46.268   2.164   7.424  0.00  0.00    +0.000 NA
ATOM     12  C   UNL     1      45.731   1.669   8.709  0.00  0.00    +0.000 C 
ATOM     13  C   UNL     1      44.599   2.563   9.273  0.00  0.00    +0.000 C 
ATOM     14  N   UNL     1      45.054   3.957   9.374  0.00  0.00    +0.000 N 
ATOM     15  C   UNL     1      45.652   4.495   8.140  0.00  0.00    +0.000 C 
ATOM     16  C   UNL     1      46.759   3.549   7.616  0.00  0.00    +0.000 C 
ENDBRANCH   4  14
ENDBRANCH   1   8
BRANCH   1  17
ATOM     17  C   UNL     1      46.704   8.177  13.620  0.00  0.00    +0.000 C 
BRANCH  17  18
ATOM     18  N   UNL     1      48.078   7.801  13.994  0.00  0.00    +0.000 N 
ATOM     19  H   UNL     1      48.703   8.587  14.170  0.00  0.00    +0.000 HD
BRANCH  18  20
ATOM     20  C   UNL     1      48.291   6.709  14.840  0.00  0.00    +0.000 A 
ATOM     21  C   UNL     1      49.021   6.797  16.033  0.00  0.00    +0.000 A 
ATOM     22  C   UNL     1      49.083   5.723  16.918  0.00  0.00    +0.000 A 
ATOM     23  C   UNL     1      48.388   4.578  16.580  0.00  0.00    +0.000 A 
ATOM     24  N   UNL     1      47.666   4.406  15.439  0.00  0.00    +0.000 NA
ATOM     25  C   UNL     1      47.635   5.487  14.614  0.00  0.00    +0.000 A 
BRANCH  23  26
ATOM     26  S   UNL     1      48.334   3.217  17.741  0.00  0.00    +0.000 S 
ATOM     27  O   UNL     1      49.078   2.117  17.160  0.00  0.00    +0.000 OA
ATOM     28  O   UNL     1      48.624   3.751  19.054  0.00  0.00    +0.000 OA
BRANCH  26  29
ATOM     29  N   UNL     1      46.704   2.770  17.739  0.00  0.00    +0.000 NA
ATOM     30  H   UNL     1      46.549   2.028  18.420  0.00  0.00    +0.000 HD
ATOM     31  H   UNL     1      46.434   2.483  16.797  0.00  0.00    +0.000 HD
ENDBRANCH  26  29
ENDBRANCH  23  26
ENDBRANCH  18  20
ENDBRANCH  17  18
ENDBRANCH   1  17
TORSDOF 7
ENDMDL
MODEL 2
REMARK VINA RESULT:    -6.859      2.417      3.504
REMARK INTER + INTRA:         -10.446
REMARK INTER:                  -9.344
REMARK INTRA:                  -1.102
REMARK UNBOUND:                -0.980
REMARK  Name = 
REMARK  10 active torsions:
REMARK  status: ('A' for Active; 'I' for Inactive)
REMARK    1  A    between atoms: C_1  and  N_2
REMARK    2  A    between atoms: N_5  and  C_6
REMARK    3  A    between atoms: C_10  and  C_11
REMARK    4  A    between atoms: C_11  and  C_12
REMARK    5  A    between atoms: C_11  and  C_13
REMARK    6  A    between atoms: C_11  and  C_14
REMARK    7  A    between atoms: C_14  and  N_15
REMARK    8  A    between atoms: N_15  and  C_16
REMARK    9  A    between atoms: C_19  and  S_20
REMARK   10  A    between atoms: S_20  and  N_21
REMARK                            x       y       z     vdW  Elec       q    Type
REMARK                         _______ _______ _______ _____ _____    ______ ____
ROOT
ATOM      1  C   UNL     1      49.213   8.670  12.298  0.00  0.00    +0.000 C 
ATOM      2  C   UNL     1      49.662   7.285  11.774  0.00  0.00    +0.000 C 
ATOM      3  C   UNL     1      49.974   9.762  11.510  0.00  0.00    +0.000 C 
ENDROOT
BRANCH   1   8
ATOM      4  C   UNL     1      45.436   7.818  11.982  0.00  0.00    +0.000 A 
ATOM      5  C   UNL     1      44.905   9.108  11.900  0.00  0.00    +0.000 A 
ATOM      6  C   UNL     1      45.727  10.237  11.867  0.00  0.00    +0.000 A 
ATOM      7  C   UNL     1      47.111  10.099  11.968  0.00  0.00    +0.000 A 
ATOM      8  C   UNL     1      47.698   8.828  12.062  0.00  0.00    +0.000 A 
ATOM      9  C   UNL     1      46.835   7.717  11.992  0.00  0.00    +0.000 A 
BRANCH   4  14
ATOM     10  C   UNL     1      43.508   2.651  11.374  0.00  0.00    +0.000 C 
ATOM     11  N   UNL     1      43.547   4.007  11.907  0.00  0.00    +0.000 NA
ATOM     12  C   UNL     1      44.827   4.269  12.599  0.00  0.00    +0.000 C 
ATOM     13  C   UNL     1      44.915   5.701  13.183  0.00  0.00    +0.000 C 
ATOM     14  N   UNL     1      44.650   6.695  12.133  0.00  0.00    +0.000 N 
ATOM     15  C   UNL     1      43.415   6.460  11.366  0.00  0.00    +0.000 C 
ATOM     16  C   UNL     1      43.377   5.009  10.828  0.00  0.00    +0.000 C 
ENDBRANCH   4  14
ENDBRANCH   1   8
BRANCH   1  17
ATOM     17  C   UNL     1      49.659   8.735  13.798  0.00  0.00    +0.000 C 
BRANCH  17  18
ATOM     18  N   UNL     1      48.600   8.388  14.761  0.00  0.00    +0.000 N 
ATOM     19  H   UNL     1      47.665   8.692  14.494  0.00  0.00    +0.000 HD
BRANCH  18  20
ATOM     20  C   UNL     1      48.629   7.149  15.407  0.00  0.00    +0.000 A 
ATOM     21  C   UNL     1      49.021   6.993  16.743  0.00  0.00    +0.000 A 
ATOM     22  C   UNL     1      48.894   5.765  17.390  0.00  0.00    +0.000 A 
ATOM     23  C   UNL     1      48.357   4.717  16.667  0.00  0.00    +0.000 A 
ATOM     24  N   UNL     1      47.965   4.780  15.365  0.00  0.00    +0.000 NA
ATOM     25  C   UNL     1      48.105   6.003  14.785  0.00  0.00    +0.000 A 
BRANCH  23  26
ATOM     26  S   UNL     1      48.059   3.155  17.489  0.00  0.00    +0.000 S 
ATOM     27  O   UNL     1      46.631   2.910  17.457  0.00  0.00    +0.000 OA
ATOM     28  O   UNL     1      49.028   2.205  16.988  0.00  0.00    +0.000 OA
BRANCH  26  29
ATOM     29  N   UNL     1      48.472   3.479  19.096  0.00  0.00    +0.000 NA
ATOM     30  H   UNL     1      49.486   3.471  19.200  0.00  0.00    +0.000 HD
ATOM     31  H   UNL     1      48.023   2.792  19.704  0.00  0.00    +0.000 HD
ENDBRANCH  26  29
ENDBRANCH  23  26
ENDBRANCH  18  20
ENDBRANCH  17  18
ENDBRANCH   1  17
TORSDOF 7
ENDMDL
MODEL 3
REMARK VINA RESULT:    -6.336      3.638      7.309
REMARK INTER + INTRA:          -9.723
REMARK INTER:                  -8.495
REMARK INTRA:                  -1.228
REMARK UNBOUND:                -0.980
REMARK  Name = 
REMARK  10 active torsions:
REMARK  status: ('A' for Active; 'I' for Inactive)
REMARK    1  A    between atoms: C_1  and  N_2
REMARK    2  A    between atoms: N_5  and  C_6
REMARK    3  A    between atoms: C_10  and  C_11
REMARK    4  A    between atoms: C_11  and  C_12
REMARK    5  A    between atoms: C_11  and  C_13
REMARK    6  A    between atoms: C_11  and  C_14
REMARK    7  A    between atoms: C_14  and  N_15
REMARK    8  A    between atoms: N_15  and  C_16
REMARK    9  A    between atoms: C_19  and  S_20
REMARK   10  A    between atoms: S_20  and  N_21
REMARK                            x       y       z     vdW  Elec       q    Type
REMARK                         _______ _______ _______ _____ _____    ______ ____
ROOT
ATOM      1  C   UNL     1      49.144   8.903  14.138  0.00  0.00    +0.000 C 
ATOM      2  C   UNL     1      49.449  10.420  14.155  0.00  0.00    +0.000 C 
ATOM      3  C   UNL     1      50.425   8.152  13.702  0.00  0.00    +0.000 C 
ENDROOT
BRANCH   1   8
ATOM      4  C   UNL     1      48.748   6.718  17.325  0.00  0.00    +0.000 A 
ATOM      5  C   UNL     1      48.272   7.681  18.219  0.00  0.00    +0.000 A 
ATOM      6  C   UNL     1      48.004   8.990  17.809  0.00  0.00    +0.000 A 
ATOM      7  C   UNL     1      48.258   9.378  16.495  0.00  0.00    +0.000 A 
ATOM      8  C   UNL     1      48.744   8.455  15.558  0.00  0.00    +0.000 A 
ATOM      9  C   UNL     1      48.905   7.125  15.992  0.00  0.00    +0.000 A 
BRANCH   4  14
ATOM     10  C   UNL     1      50.892   1.602  17.180  0.00  0.00    +0.000 C 
ATOM     11  N   UNL     1      50.229   2.756  17.776  0.00  0.00    +0.000 NA
ATOM     12  C   UNL     1      51.098   3.951  17.731  0.00  0.00    +0.000 C 
ATOM     13  C   UNL     1      50.434   5.203  18.354  0.00  0.00    +0.000 C 
ATOM     14  N   UNL     1      49.130   5.454  17.723  0.00  0.00    +0.000 N 
ATOM     15  C   UNL     1      48.234   4.285  17.685  0.00  0.00    +0.000 C 
ATOM     16  C   UNL     1      48.961   3.064  17.072  0.00  0.00    +0.000 C 
ENDBRANCH   4  14
ENDBRANCH   1   8
BRANCH   1  17
ATOM     17  C   UNL     1      48.045   8.691  13.042  0.00  0.00    +0.000 C 
BRANCH  17  18
ATOM     18  N   UNL     1      48.229   7.479  12.225  0.00  0.00    +0.000 N 
ATOM     19  H   UNL     1      49.169   7.085  12.253  0.00  0.00    +0.000 HD
BRANCH  18  20
ATOM     20  C   UNL     1      47.214   6.519  12.171  0.00  0.00    +0.000 A 
ATOM     21  C   UNL     1      47.030   5.546  13.162  0.00  0.00    +0.000 A 
ATOM     22  C   UNL     1      45.919   4.705  13.145  0.00  0.00    +0.000 A 
ATOM     23  C   UNL     1      45.005   4.879  12.124  0.00  0.00    +0.000 A 
ATOM     24  N   UNL     1      45.114   5.789  11.118  0.00  0.00    +0.000 NA
ATOM     25  C   UNL     1      46.214   6.588  11.187  0.00  0.00    +0.000 A 
BRANCH  23  26
ATOM     26  S   UNL     1      43.501   3.908  12.128  0.00  0.00    +0.000 S 
ATOM     27  O   UNL     1      43.428   3.210  10.859  0.00  0.00    +0.000 OA
ATOM     28  O   UNL     1      43.422   3.229  13.401  0.00  0.00    +0.000 OA
BRANCH  26  29
ATOM     29  N   UNL     1      42.283   5.081  12.119  0.00  0.00    +0.000 NA
ATOM     30  H   UNL     1      42.550   5.859  12.722  0.00  0.00    +0.000 HD
ATOM     31  H   UNL     1      41.403   4.657  12.415  0.00  0.00    +0.000 HD
ENDBRANCH  26  29
ENDBRANCH  23  26
ENDBRANCH  18  20
ENDBRANCH  17  18
ENDBRANCH   1  17
TORSDOF 7
ENDMDL
MODEL 4
REMARK VINA RESULT:    -6.275      1.633      2.156
REMARK INTER + INTRA:          -9.639
REMARK INTER:                  -9.076
REMARK INTRA:                  -0.563
REMARK UNBOUND:                -0.980
REMARK  Name = 
REMARK  10 active torsions:
REMARK  status: ('A' for Active; 'I' for Inactive)
REMARK    1  A    between atoms: C_1  and  N_2
REMARK    2  A    between atoms: N_5  and  C_6
REMARK    3  A    between atoms: C_10  and  C_11
REMARK    4  A    between atoms: C_11  and  C_12
REMARK    5  A    between atoms: C_11  and  C_13
REMARK    6  A    between atoms: C_11  and  C_14
REMARK    7  A    between atoms: C_14  and  N_15
REMARK    8  A    between atoms: N_15  and  C_16
REMARK    9  A    between atoms: C_19  and  S_20
REMARK   10  A    between atoms: S_20  and  N_21
REMARK                            x       y       z     vdW  Elec       q    Type
REMARK                         _______ _______ _______ _____ _____    ______ ____
ROOT
ATOM      1  C   UNL     1      45.558   6.292  12.235  0.00  0.00    +0.000 C 
ATOM      2  C   UNL     1      46.874   6.528  11.456  0.00  0.00    +0.000 C 
ATOM      3  C   UNL     1      44.633   7.513  12.015  0.00  0.00    +0.000 C 
ENDROOT
BRANCH   1   8
ATOM      4  C   UNL     1      44.668   3.310   9.910  0.00  0.00    +0.000 A 
ATOM      5  C   UNL     1      43.844   2.575  10.767  0.00  0.00    +0.000 A 
ATOM      6  C   UNL     1      43.506   3.045  12.038  0.00  0.00    +0.000 A 
ATOM      7  C   UNL     1      44.033   4.249  12.502  0.00  0.00    +0.000 A 
ATOM      8  C   UNL     1      44.872   5.023  11.688  0.00  0.00    +0.000 A 
ATOM      9  C   UNL     1      45.104   4.557  10.380  0.00  0.00    +0.000 A 
BRANCH   4  14
ATOM     10  C   UNL     1      48.040   2.029   5.694  0.00  0.00    +0.000 C 
ATOM     11  N   UNL     1      46.782   2.085   6.428  0.00  0.00    +0.000 NA
ATOM     12  C   UNL     1      46.897   1.402   7.734  0.00  0.00    +0.000 C 
ATOM     13  C   UNL     1      45.582   1.436   8.550  0.00  0.00    +0.000 C 
ATOM     14  N   UNL     1      45.112   2.821   8.699  0.00  0.00    +0.000 N 
ATOM     15  C   UNL     1      45.027   3.577   7.438  0.00  0.00    +0.000 C 
ATOM     16  C   UNL     1      46.363   3.487   6.660  0.00  0.00    +0.000 C 
ENDBRANCH   4  14
ENDBRANCH   1   8
BRANCH   1  17
ATOM     17  C   UNL     1      45.952   6.230  13.750  0.00  0.00    +0.000 C 
BRANCH  17  18
ATOM     18  N   UNL     1      46.631   4.986  14.150  0.00  0.00    +0.000 N 
ATOM     19  H   UNL     1      47.004   4.437  13.376  0.00  0.00    +0.000 HD
BRANCH  18  20
ATOM     20  C   UNL     1      47.435   4.972  15.293  0.00  0.00    +0.000 A 
ATOM     21  C   UNL     1      48.431   5.926  15.538  0.00  0.00    +0.000 A 
ATOM     22  C   UNL     1      49.106   5.964  16.756  0.00  0.00    +0.000 A 
ATOM     23  C   UNL     1      48.746   5.034  17.712  0.00  0.00    +0.000 A 
ATOM     24  N   UNL     1      47.801   4.069  17.552  0.00  0.00    +0.000 NA
ATOM     25  C   UNL     1      47.169   4.082  16.346  0.00  0.00    +0.000 A 
BRANCH  23  26
ATOM     26  S   UNL     1      49.496   5.120  19.335  0.00  0.00    +0.000 S 
ATOM     27  O   UNL     1      49.957   6.480  19.532  0.00  0.00    +0.000 OA
ATOM     28  O   UNL     1      48.610   4.452  20.262  0.00  0.00    +0.000 OA
BRANCH  26  29
ATOM     29  N   UNL     1      50.870   4.148  19.178  0.00  0.00    +0.000 NA
ATOM     30  H   UNL     1      50.620   3.171  19.331  0.00  0.00    +0.000 HD
ATOM     31  H   UNL     1      51.584   4.464  19.836  0.00  0.00    +0.000 HD
ENDBRANCH  26  29
ENDBRANCH  23  26
ENDBRANCH  18  20
ENDBRANCH  17  18
ENDBRANCH   1  17
TORSDOF 7
ENDMDL
MODEL 5
REMARK VINA RESULT:    -6.143      2.291      2.510
REMARK INTER + INTRA:          -9.457
REMARK INTER:                  -8.742
REMARK INTRA:                  -0.716
REMARK UNBOUND:                -0.980
REMARK  Name = 
REMARK  10 active torsions:
REMARK  status: ('A' for Active; 'I' for Inactive)
REMARK    1  A    between atoms: C_1  and  N_2
REMARK    2  A    between atoms: N_5  and  C_6
REMARK    3  A    between atoms: C_10  and  C_11
REMARK    4  A    between atoms: C_11  and  C_12
REMARK    5  A    between atoms: C_11  and  C_13
REMARK    6  A    between atoms: C_11  and  C_14
REMARK    7  A    between atoms: C_14  and  N_15
REMARK    8  A    between atoms: N_15  and  C_16
REMARK    9  A    between atoms: C_19  and  S_20
REMARK   10  A    between atoms: S_20  and  N_21
REMARK                            x       y       z     vdW  Elec       q    Type
REMARK                         _______ _______ _______ _____ _____    ______ ____
ROOT
ATOM      1  C   UNL     1      46.418   7.084  12.671  0.00  0.00    +0.000 C 
ATOM      2  C   UNL     1      47.510   7.286  11.593  0.00  0.00    +0.000 C 
ATOM      3  C   UNL     1      45.682   8.428  12.880  0.00  0.00    +0.000 C 
ENDROOT
BRANCH   1   8
ATOM      4  C   UNL     1      44.756   4.342  10.478  0.00  0.00    +0.000 A 
ATOM      5  C   UNL     1      43.766   3.897  11.359  0.00  0.00    +0.000 A 
ATOM      6  C   UNL     1      43.570   4.500  12.603  0.00  0.00    +0.000 A 
ATOM      7  C   UNL     1      44.401   5.540  13.017  0.00  0.00    +0.000 A 
ATOM      8  C   UNL     1      45.416   6.021  12.177  0.00  0.00    +0.000 A 
ATOM      9  C   UNL     1      45.512   5.447  10.894  0.00  0.00    +0.000 A 
BRANCH   4  14
ATOM     10  C   UNL     1      47.541   1.496   6.613  0.00  0.00    +0.000 C 
ATOM     11  N   UNL     1      46.402   2.199   7.193  0.00  0.00    +0.000 NA
ATOM     12  C   UNL     1      45.964   1.554   8.449  0.00  0.00    +0.000 C 
ATOM     13  C   UNL     1      44.754   2.268   9.102  0.00  0.00    +0.000 C 
ATOM     14  N   UNL     1      45.050   3.695   9.296  0.00  0.00    +0.000 N 
ATOM     15  C   UNL     1      45.546   4.385   8.093  0.00  0.00    +0.000 C 
ATOM     16  C   UNL     1      46.738   3.614   7.477  0.00  0.00    +0.000 C 
ENDBRANCH   4  14
ENDBRANCH   1   8
BRANCH   1  17
ATOM     17  C   UNL     1      47.172   6.717  13.994  0.00  0.00    +0.000 C 
BRANCH  17  18
ATOM     18  N   UNL     1      48.437   7.447  14.192  0.00  0.00    +0.000 N 
ATOM     19  H   UNL     1      48.360   8.460  14.120  0.00  0.00    +0.000 HD
BRANCH  18  20
ATOM     20  C   UNL     1      49.339   7.015  15.169  0.00  0.00    +0.000 A 
ATOM     21  C   UNL     1      49.006   6.077  16.155  0.00  0.00    +0.000 A 
ATOM     22  C   UNL     1      49.975   5.565  17.016  0.00  0.00    +0.000 A 
ATOM     23  C   UNL     1      51.272   6.008  16.849  0.00  0.00    +0.000 A 
ATOM     24  N   UNL     1      51.677   6.924  15.928  0.00  0.00    +0.000 NA
ATOM     25  C   UNL     1      50.692   7.386  15.110  0.00  0.00    +0.000 A 
BRANCH  23  26
ATOM     26  S   UNL     1      52.573   5.288  17.847  0.00  0.00    +0.000 S 
ATOM     27  O   UNL     1      52.150   3.952  18.218  0.00  0.00    +0.000 OA
ATOM     28  O   UNL     1      53.830   5.556  17.185  0.00  0.00    +0.000 OA
BRANCH  26  29
ATOM     29  N   UNL     1      52.546   6.226  19.253  0.00  0.00    +0.000 NA
ATOM     30  H   UNL     1      53.101   7.070  19.115  0.00  0.00    +0.000 HD
ATOM     31  H   UNL     1      52.890   5.669  20.037  0.00  0.00    +0.000 HD
ENDBRANCH  26  29
ENDBRANCH  23  26
ENDBRANCH  18  20
ENDBRANCH  17  18
ENDBRANCH   1  17
TORSDOF 7
ENDMDL
MODEL 6
REMARK VINA RESULT:    -6.084      3.761      7.569
REMARK INTER + INTRA:          -9.376
REMARK INTER:                  -8.451
REMARK INTRA:                  -0.925
REMARK UNBOUND:                -0.980
REMARK  Name = 
REMARK  10 active torsions:
REMARK  status: ('A' for Active; 'I' for Inactive)
REMARK    1  A    between atoms: C_1  and  N_2
REMARK    2  A    between atoms: N_5  and  C_6
REMARK    3  A    between atoms: C_10  and  C_11
REMARK    4  A    between atoms: C_11  and  C_12
REMARK    5  A    between atoms: C_11  and  C_13
REMARK    6  A    between atoms: C_11  and  C_14
REMARK    7  A    between atoms: C_14  and  N_15
REMARK    8  A    between atoms: N_15  and  C_16
REMARK    9  A    between atoms: C_19  and  S_20
REMARK   10  A    between atoms: S_20  and  N_21
REMARK                            x       y       z     vdW  Elec       q    Type
REMARK                         _______ _______ _______ _____ _____    ______ ____
ROOT
ATOM      1  C   UNL     1      50.772   8.730  12.990  0.00  0.00    +0.000 C 
ATOM      2  C   UNL     1      50.880  10.269  13.112  0.00  0.00    +0.000 C 
ATOM      3  C   UNL     1      51.555   8.283  11.733  0.00  0.00    +0.000 C 
ENDROOT
BRANCH   1   8
ATOM      4  C   UNL     1      51.152   6.640  16.242  0.00  0.00    +0.000 A 
ATOM      5  C   UNL     1      52.542   6.669  16.385  0.00  0.00    +0.000 A 
ATOM      6  C   UNL     1      53.352   7.401  15.513  0.00  0.00    +0.000 A 
ATOM      7  C   UNL     1      52.786   8.084  14.438  0.00  0.00    +0.000 A 
ATOM      8  C   UNL     1      51.397   8.083  14.242  0.00  0.00    +0.000 A 
ATOM      9  C   UNL     1      50.615   7.413  15.203  0.00  0.00    +0.000 A 
BRANCH   4  14
ATOM     10  C   UNL     1      47.413   2.796  17.665  0.00  0.00    +0.000 C 
ATOM     11  N   UNL     1      48.404   3.842  17.888  0.00  0.00    +0.000 NA
ATOM     12  C   UNL     1      49.716   3.460  17.324  0.00  0.00    +0.000 C 
ATOM     13  C   UNL     1      50.802   4.544  17.537  0.00  0.00    +0.000 C 
ATOM     14  N   UNL     1      50.339   5.837  17.013  0.00  0.00    +0.000 N 
ATOM     15  C   UNL     1      49.010   6.251  17.495  0.00  0.00    +0.000 C 
ATOM     16  C   UNL     1      47.976   5.121  17.273  0.00  0.00    +0.000 C 
ENDBRANCH   4  14
ENDBRANCH   1   8
BRANCH   1  17
ATOM     17  C   UNL     1      49.253   8.416  12.770  0.00  0.00    +0.000 C 
BRANCH  17  18
ATOM     18  N   UNL     1      48.975   7.029  12.358  0.00  0.00    +0.000 N 
ATOM     19  H   UNL     1      49.679   6.350  12.645  0.00  0.00    +0.000 HD
BRANCH  18  20
ATOM     20  C   UNL     1      47.666   6.543  12.404  0.00  0.00    +0.000 A 
ATOM     21  C   UNL     1      46.715   6.813  11.411  0.00  0.00    +0.000 A 
ATOM     22  C   UNL     1      45.469   6.188  11.420  0.00  0.00    +0.000 A 
ATOM     23  C   UNL     1      45.217   5.286  12.436  0.00  0.00    +0.000 A 
ATOM     24  N   UNL     1      46.078   4.977  13.443  0.00  0.00    +0.000 NA
ATOM     25  C   UNL     1      47.281   5.610  13.382  0.00  0.00    +0.000 A 
BRANCH  23  26
ATOM     26  S   UNL     1      43.682   4.366  12.421  0.00  0.00    +0.000 S 
ATOM     27  O   UNL     1      43.182   4.371  11.060  0.00  0.00    +0.000 OA
ATOM     28  O   UNL     1      43.893   3.150  13.173  0.00  0.00    +0.000 OA
BRANCH  26  29
ATOM     29  N   UNL     1      42.641   5.336  13.335  0.00  0.00    +0.000 NA
ATOM     30  H   UNL     1      42.460   4.894  14.236  0.00  0.00    +0.000 HD
ATOM     31  H   UNL     1      41.779   5.493  12.811  0.00  0.00    +0.000 HD
ENDBRANCH  26  29
ENDBRANCH  23  26
ENDBRANCH  18  20
ENDBRANCH  17  18
ENDBRANCH   1  17
TORSDOF 7
ENDMDL
MODEL 7
REMARK VINA RESULT:    -6.009      3.697      5.501
REMARK INTER + INTRA:          -9.272
REMARK INTER:                  -8.499
REMARK INTRA:                  -0.773
REMARK UNBOUND:                -0.980
REMARK  Name = 
REMARK  10 active torsions:
REMARK  status: ('A' for Active; 'I' for Inactive)
REMARK    1  A    between atoms: C_1  and  N_2
REMARK    2  A    between atoms: N_5  and  C_6
REMARK    3  A    between atoms: C_10  and  C_11
REMARK    4  A    between atoms: C_11  and  C_12
REMARK    5  A    between atoms: C_11  and  C_13
REMARK    6  A    between atoms: C_11  and  C_14
REMARK    7  A    between atoms: C_14  and  N_15
REMARK    8  A    between atoms: N_15  and  C_16
REMARK    9  A    between atoms: C_19  and  S_20
REMARK   10  A    between atoms: S_20  and  N_21
REMARK                            x       y       z     vdW  Elec       q    Type
REMARK                         _______ _______ _______ _____ _____    ______ ____
ROOT
ATOM      1  C   UNL     1      48.632   5.961  16.981  0.00  0.00    +0.000 C 
ATOM      2  C   UNL     1      48.602   7.313  17.733  0.00  0.00    +0.000 C 
ATOM      3  C   UNL     1      47.394   5.137  17.405  0.00  0.00    +0.000 C 
ENDROOT
BRANCH   1   8
ATOM      4  C   UNL     1      47.386   5.997  13.302  0.00  0.00    +0.000 A 
ATOM      5  C   UNL     1      48.288   6.912  12.751  0.00  0.00    +0.000 A 
ATOM      6  C   UNL     1      49.327   7.460  13.508  0.00  0.00    +0.000 A 
ATOM      7  C   UNL     1      49.456   7.137  14.857  0.00  0.00    +0.000 A 
ATOM      8  C   UNL     1      48.575   6.230  15.463  0.00  0.00    +0.000 A 
ATOM      9  C   UNL     1      47.605   5.630  14.637  0.00  0.00    +0.000 A 
BRANCH   4  14
ATOM     10  C   UNL     1      44.273   3.101   9.737  0.00  0.00    +0.000 C 
ATOM     11  N   UNL     1      44.542   4.065  10.797  0.00  0.00    +0.000 NA
ATOM     12  C   UNL     1      45.182   3.411  11.959  0.00  0.00    +0.000 C 
ATOM     13  C   UNL     1      45.487   4.399  13.112  0.00  0.00    +0.000 C 
ATOM     14  N   UNL     1      46.285   5.529  12.616  0.00  0.00    +0.000 N 
ATOM     15  C   UNL     1      45.731   6.191  11.422  0.00  0.00    +0.000 C 
ATOM     16  C   UNL     1      45.428   5.151  10.316  0.00  0.00    +0.000 C 
ENDBRANCH   4  14
ENDBRANCH   1   8
BRANCH   1  17
ATOM     17  C   UNL     1      49.919   5.216  17.473  0.00  0.00    +0.000 C 
BRANCH  17  18
ATOM     18  N   UNL     1      49.824   3.747  17.428  0.00  0.00    +0.000 N 
ATOM     19  H   UNL     1      49.167   3.383  16.739  0.00  0.00    +0.000 HD
BRANCH  18  20
ATOM     20  C   UNL     1      50.979   2.973  17.573  0.00  0.00    +0.000 A 
ATOM     21  C   UNL     1      52.132   3.437  18.219  0.00  0.00    +0.000 A 
ATOM     22  C   UNL     1      53.205   2.584  18.472  0.00  0.00    +0.000 A 
ATOM     23  C   UNL     1      53.081   1.268  18.073  0.00  0.00    +0.000 A 
ATOM     24  N   UNL     1      52.003   0.741  17.430  0.00  0.00    +0.000 NA
ATOM     25  C   UNL     1      50.982   1.615  17.214  0.00  0.00    +0.000 A 
BRANCH  23  26
ATOM     26  S   UNL     1      54.379   0.107  18.486  0.00  0.00    +0.000 S 
ATOM     27  O   UNL     1      55.211  -0.054  17.310  0.00  0.00    +0.000 OA
ATOM     28  O   UNL     1      54.911   0.485  19.776  0.00  0.00    +0.000 OA
BRANCH  26  29
ATOM     29  N   UNL     1      53.543  -1.346  18.704  0.00  0.00    +0.000 NA
ATOM     30  H   UNL     1      53.141  -1.650  17.818  0.00  0.00    +0.000 HD
ATOM     31  H   UNL     1      52.827  -1.220  19.421  0.00  0.00    +0.000 HD
ENDBRANCH  26  29
ENDBRANCH  23  26
ENDBRANCH  18  20
ENDBRANCH  17  18
ENDBRANCH   1  17
TORSDOF 7
ENDMDL
MODEL 8
REMARK VINA RESULT:    -5.710      4.788      5.818
REMARK INTER + INTRA:          -8.859
REMARK INTER:                  -8.041
REMARK INTRA:                  -0.819
REMARK UNBOUND:                -0.980
REMARK  Name = 
REMARK  10 active torsions:
REMARK  status: ('A' for Active; 'I' for Inactive)
REMARK    1  A    between atoms: C_1  and  N_2
REMARK    2  A    between atoms: N_5  and  C_6
REMARK    3  A    between atoms: C_10  and  C_11
REMARK    4  A    between atoms: C_11  and  C_12
REMARK    5  A    between atoms: C_11  and  C_13
REMARK    6  A    between atoms: C_11  and  C_14
REMARK    7  A    between atoms: C_14  and  N_15
REMARK    8  A    between atoms: N_15  and  C_16
REMARK    9  A    between atoms: C_19  and  S_20
REMARK   10  A    between atoms: S_20  and  N_21
REMARK                            x       y       z     vdW  Elec       q    Type
REMARK                         _______ _______ _______ _____ _____    ______ ____
ROOT
ATOM      1  C   UNL     1      46.629   7.182  12.549  0.00  0.00    +0.000 C 
ATOM      2  C   UNL     1      45.903   8.523  12.813  0.00  0.00    +0.000 C 
ATOM      3  C   UNL     1      47.320   6.733  13.858  0.00  0.00    +0.000 C 
ENDROOT
BRANCH   1   8
ATOM      4  C   UNL     1      44.833   4.405  10.511  0.00  0.00    +0.000 A 
ATOM      5  C   UNL     1      43.871   4.006  11.443  0.00  0.00    +0.000 A 
ATOM      6  C   UNL     1      43.735   4.651  12.675  0.00  0.00    +0.000 A 
ATOM      7  C   UNL     1      44.601   5.687  13.022  0.00  0.00    +0.000 A 
ATOM      8  C   UNL     1      45.589   6.123  12.128  0.00  0.00    +0.000 A 
ATOM      9  C   UNL     1      45.624   5.508  10.861  0.00  0.00    +0.000 A 
BRANCH   4  14
ATOM     10  C   UNL     1      47.415   1.403   6.624  0.00  0.00    +0.000 C 
ATOM     11  N   UNL     1      46.310   2.137   7.230  0.00  0.00    +0.000 NA
ATOM     12  C   UNL     1      45.921   1.539   8.524  0.00  0.00    +0.000 C 
ATOM     13  C   UNL     1      44.749   2.287   9.206  0.00  0.00    +0.000 C 
ATOM     14  N   UNL     1      45.067   3.716   9.339  0.00  0.00    +0.000 N 
ATOM     15  C   UNL     1      45.517   4.361   8.094  0.00  0.00    +0.000 C 
ATOM     16  C   UNL     1      46.673   3.556   7.452  0.00  0.00    +0.000 C 
ENDBRANCH   4  14
ENDBRANCH   1   8
BRANCH   1  17
ATOM     17  C   UNL     1      47.733   7.486  11.480  0.00  0.00    +0.000 C 
BRANCH  17  18
ATOM     18  N   UNL     1      49.112   7.400  11.992  0.00  0.00    +0.000 N 
ATOM     19  H   UNL     1      49.386   6.477  12.325  0.00  0.00    +0.000 HD
BRANCH  18  20
ATOM     20  C   UNL     1      50.136   8.095  11.342  0.00  0.00    +0.000 A 
ATOM     21  C   UNL     1      50.274   9.488  11.407  0.00  0.00    +0.000 A 
ATOM     22  C   UNL     1      51.391  10.124  10.870  0.00  0.00    +0.000 A 
ATOM     23  C   UNL     1      52.357   9.329  10.285  0.00  0.00    +0.000 A 
ATOM     24  N   UNL     1      52.295   7.974  10.169  0.00  0.00    +0.000 NA
ATOM     25  C   UNL     1      51.187   7.404  10.716  0.00  0.00    +0.000 A 
BRANCH  23  26
ATOM     26  S   UNL     1      53.867  10.086   9.692  0.00  0.00    +0.000 S 
ATOM     27  O   UNL     1      54.187   9.480   8.414  0.00  0.00    +0.000 OA
ATOM     28  O   UNL     1      53.738  11.515   9.870  0.00  0.00    +0.000 OA
BRANCH  26  29
ATOM     29  N   UNL     1      55.028   9.554  10.799  0.00  0.00    +0.000 NA
ATOM     30  H   UNL     1      55.921   9.421  10.325  0.00  0.00    +0.000 HD
ATOM     31  H   UNL     1      54.703   8.693  11.241  0.00  0.00    +0.000 HD
ENDBRANCH  26  29
ENDBRANCH  23  26
ENDBRANCH  18  20
ENDBRANCH  17  18
ENDBRANCH   1  17
TORSDOF 7
ENDMDL
MODEL 9
REMARK VINA RESULT:    -5.347      4.099      6.563
REMARK INTER + INTRA:          -8.359
REMARK INTER:                  -6.676
REMARK INTRA:                  -1.683
REMARK UNBOUND:                -0.980
REMARK  Name = 
REMARK  10 active torsions:
REMARK  status: ('A' for Active; 'I' for Inactive)
REMARK    1  A    between atoms: C_1  and  N_2
REMARK    2  A    between atoms: N_5  and  C_6
REMARK    3  A    between atoms: C_10  and  C_11
REMARK    4  A    between atoms: C_11  and  C_12
REMARK    5  A    between atoms: C_11  and  C_13
REMARK    6  A    between atoms: C_11  and  C_14
REMARK    7  A    between atoms: C_14  and  N_15
REMARK    8  A    between atoms: N_15  and  C_16
REMARK    9  A    between atoms: C_19  and  S_20
REMARK   10  A    between atoms: S_20  and  N_21
REMARK                            x       y       z     vdW  Elec       q    Type
REMARK                         _______ _______ _______ _____ _____    ______ ____
ROOT
ATOM      1  C   UNL     1      48.556   5.920  18.985  0.00  0.00    +0.000 C 
ATOM      2  C   UNL     1      47.267   6.737  19.244  0.00  0.00    +0.000 C 
ATOM      3  C   UNL     1      48.994   5.263  20.315  0.00  0.00    +0.000 C 
ENDROOT
BRANCH   1   8
ATOM      4  C   UNL     1      47.543   4.196  15.655  0.00  0.00    +0.000 A 
ATOM      5  C   UNL     1      47.942   2.885  15.932  0.00  0.00    +0.000 A 
ATOM      6  C   UNL     1      48.456   2.526  17.181  0.00  0.00    +0.000 A 
ATOM      7  C   UNL     1      48.630   3.491  18.171  0.00  0.00    +0.000 A 
ATOM      8  C   UNL     1      48.255   4.823  17.944  0.00  0.00    +0.000 A 
ATOM      9  C   UNL     1      47.651   5.117  16.706  0.00  0.00    +0.000 A 
BRANCH   4  14
ATOM     10  C   UNL     1      44.495   6.448  11.603  0.00  0.00    +0.000 C 
ATOM     11  N   UNL     1      45.640   5.761  12.188  0.00  0.00    +0.000 NA
ATOM     12  C   UNL     1      46.304   6.605  13.204  0.00  0.00    +0.000 C 
ATOM     13  C   UNL     1      47.528   5.914  13.854  0.00  0.00    +0.000 C 
ATOM     14  N   UNL     1      47.142   4.605  14.401  0.00  0.00    +0.000 N 
ATOM     15  C   UNL     1      46.425   3.734  13.454  0.00  0.00    +0.000 C 
ATOM     16  C   UNL     1      45.228   4.487  12.824  0.00  0.00    +0.000 C 
ENDBRANCH   4  14
ENDBRANCH   1   8
BRANCH   1  17
ATOM     17  C   UNL     1      49.651   6.956  18.557  0.00  0.00    +0.000 C 
BRANCH  17  18
ATOM     18  N   UNL     1      49.124   8.140  17.855  0.00  0.00    +0.000 N 
ATOM     19  H   UNL     1      49.089   8.988  18.418  0.00  0.00    +0.000 HD
BRANCH  18  20
ATOM     20  C   UNL     1      49.464   8.360  16.517  0.00  0.00    +0.000 A 
ATOM     21  C   UNL     1      50.498   7.672  15.870  0.00  0.00    +0.000 A 
ATOM     22  C   UNL     1      50.707   7.813  14.499  0.00  0.00    +0.000 A 
ATOM     23  C   UNL     1      49.848   8.645  13.807  0.00  0.00    +0.000 A 
ATOM     24  N   UNL     1      48.829   9.357  14.360  0.00  0.00    +0.000 NA
ATOM     25  C   UNL     1      48.667   9.177  15.699  0.00  0.00    +0.000 A 
BRANCH  23  26
ATOM     26  S   UNL     1      49.997   8.763  12.027  0.00  0.00    +0.000 S 
ATOM     27  O   UNL     1      48.673   8.582  11.465  0.00  0.00    +0.000 OA
ATOM     28  O   UNL     1      50.822   9.914  11.733  0.00  0.00    +0.000 OA
BRANCH  26  29
ATOM     29  N   UNL     1      50.900   7.393  11.622  0.00  0.00    +0.000 NA
ATOM     30  H   UNL     1      50.847   7.230  10.617  0.00  0.00    +0.000 HD
ATOM     31  H   UNL     1      50.555   6.592  12.155  0.00  0.00    +0.000 HD
ENDBRANCH  26  29
ENDBRANCH  23  26
ENDBRANCH  18  20
ENDBRANCH  17  18
ENDBRANCH   1  17
TORSDOF 7
ENDMDL
