MODEL 1
REMARK VINA RESULT:    -8.278      0.000      0.000
REMARK INTER + INTRA:         -11.563
REMARK INTER:                 -10.697
REMARK INTRA:                  -0.866
REMARK UNBOUND:                -0.866
REMARK  Name = 
REMARK  5 active torsions:
REMARK  status: ('A' for Active; 'I' for Inactive)
REMARK    1  A    between atoms: C_2  and  C_4
REMARK    2  A    between atoms: N_8  and  C_9
REMARK    3  A    between atoms: C_9  and  C_10
REMARK    4  A    between atoms: C_12  and  C_13
REMARK    5  A    between atoms: C_18  and  C_19
REMARK                            x       y       z     vdW  Elec       q    Type
REMARK                         _______ _______ _______ _____ _____    ______ ____
ROOT
ATOM      1  C   UNL     1      44.431   5.554  10.944  0.00  0.00    +0.000 C 
ENDROOT
BRANCH   1   6
ATOM      2  C   UNL     1      46.544   2.734   7.403  0.00  0.00    +0.000 A 
ATOM      3  C   UNL     1      45.941   1.835   8.276  0.00  0.00    +0.000 A 
ATOM      4  C   UNL     1      45.178   2.332   9.333  0.00  0.00    +0.000 A 
ATOM      5  C   UNL     1      45.057   3.706   9.522  0.00  0.00    +0.000 A 
ATOM      6  N   UNL     1      44.343   4.138  10.644  0.00  0.00    +0.000 N 
ATOM      7  N   UNL     1      45.648   4.586   8.693  0.00  0.00    +0.000 NA
ATOM      8  C   UNL     1      46.376   4.088   7.655  0.00  0.00    +0.000 A 
ATOM      9  H   UNL     1      43.384   3.808  10.592  0.00  0.00    +0.000 HD
BRANCH   2  11
ATOM     10  N   UNL     1      47.277   3.040   5.105  0.00  0.00    +0.000 N 
ATOM     11  C   UNL     1      47.374   2.312   6.257  0.00  0.00    +0.000 C 
ATOM     12  O   UNL     1      48.141   1.363   6.335  0.00  0.00    +0.000 OA
ATOM     13  H   UNL     1      47.914   2.798   4.356  0.00  0.00    +0.000 HD
ATOM     14  H   UNL     1      46.840   3.949   5.062  0.00  0.00    +0.000 HD
ENDBRANCH   2  11
ENDBRANCH   1   6
BRANCH   1  15
ATOM     15  C   UNL     1      45.647   5.766  11.823  0.00  0.00    +0.000 A 
ATOM     16  C   UNL     1      46.588   6.754  11.485  0.00  0.00    +0.000 A 
ATOM     17  C   UNL     1      47.720   6.983  12.281  0.00  0.00    +0.000 A 
ATOM     18  C   UNL     1      47.919   6.185  13.420  0.00  0.00    +0.000 A 
ATOM     19  C   UNL     1      47.000   5.181  13.771  0.00  0.00    +0.000 A 
ATOM     20  C   UNL     1      45.871   4.975  12.958  0.00  0.00    +0.000 A 
BRANCH  17  21
ATOM     21  C   UNL     1      48.701   8.081  11.945  0.00  0.00    +0.000 C 
ATOM     22  F   UNL     1      49.432   8.511  13.011  0.00  0.00    +0.000 F 
ATOM     23  F   UNL     1      49.608   7.689  11.006  0.00  0.00    +0.000 F 
ATOM     24  F   UNL     1      48.093   9.187  11.436  0.00  0.00    +0.000 F 
ENDBRANCH  17  21
BRANCH  19  25
ATOM     25  C   UNL     1      47.198   4.346  15.017  0.00  0.00    +0.000 C 
ATOM     26  F   UNL     1      47.524   3.051  14.759  0.00  0.00    +0.000 F 
ATOM     27  F   UNL     1      48.191   4.834  15.810  0.00  0.00    +0.000 F 
ATOM     28  F   UNL     1      46.082   4.306  15.797  0.00  0.00    +0.000 F 
ENDBRANCH  19  25
ENDBRANCH   1  15
TORSDOF 5
ENDMDL
MODEL 2
REMARK VINA RESULT:    -8.243      0.117      3.536
REMARK INTER + INTRA:         -11.518
REMARK INTER:                 -10.652
REMARK INTRA:                  -0.867
REMARK UNBOUND:                -0.866
REMARK  Name = 
REMARK  5 active torsions:
REMARK  status: ('A' for Active; 'I' for Inactive)
REMARK    1  A    between atoms: C_2  and  C_4
REMARK    2  A    between atoms: N_8  and  C_9
REMARK    3  A    between atoms: C_9  and  C_10
REMARK    4  A    between atoms: C_12  and  C_13
REMARK    5  A    between atoms: C_18  and  C_19
REMARK                            x       y       z     vdW  Elec       q    Type
REMARK                         _______ _______ _______ _____ _____    ______ ____
ROOT
ATOM      1  C   UNL     1      44.434   5.459  10.931  0.00  0.00    +0.000 C 
ENDROOT
BRANCH   1   6
ATOM      2  C   UNL     1      46.612   2.712   7.372  0.00  0.00    +0.000 A 
ATOM      3  C   UNL     1      46.052   1.793   8.253  0.00  0.00    +0.000 A 
ATOM      4  C   UNL     1      45.282   2.263   9.317  0.00  0.00    +0.000 A 
ATOM      5  C   UNL     1      45.112   3.632   9.506  0.00  0.00    +0.000 A 
ATOM      6  N   UNL     1      44.395   4.040  10.635  0.00  0.00    +0.000 N 
ATOM      7  N   UNL     1      45.662   4.531   8.669  0.00  0.00    +0.000 NA
ATOM      8  C   UNL     1      46.397   4.059   7.624  0.00  0.00    +0.000 A 
ATOM      9  H   UNL     1      43.448   3.675  10.593  0.00  0.00    +0.000 HD
BRANCH   2  11
ATOM     10  N   UNL     1      47.289   3.022   5.058  0.00  0.00    +0.000 N 
ATOM     11  C   UNL     1      47.445   2.318   6.218  0.00  0.00    +0.000 C 
ATOM     12  O   UNL     1      48.262   1.413   6.296  0.00  0.00    +0.000 OA
ATOM     13  H   UNL     1      47.926   2.805   4.302  0.00  0.00    +0.000 HD
ATOM     14  H   UNL     1      46.803   3.906   5.010  0.00  0.00    +0.000 HD
ENDBRANCH   2  11
ENDBRANCH   1   6
BRANCH   1  15
ATOM     15  C   UNL     1      45.651   5.717  11.797  0.00  0.00    +0.000 A 
ATOM     16  C   UNL     1      45.838   4.974  12.974  0.00  0.00    +0.000 A 
ATOM     17  C   UNL     1      46.957   5.180  13.795  0.00  0.00    +0.000 A 
ATOM     18  C   UNL     1      47.886   6.170  13.435  0.00  0.00    +0.000 A 
ATOM     19  C   UNL     1      47.714   6.937  12.270  0.00  0.00    +0.000 A 
ATOM     20  C   UNL     1      46.585   6.707  11.463  0.00  0.00    +0.000 A 
BRANCH  17  21
ATOM     21  C   UNL     1      47.185   4.342  15.031  0.00  0.00    +0.000 C 
ATOM     22  F   UNL     1      48.195   4.794  15.824  0.00  0.00    +0.000 F 
ATOM     23  F   UNL     1      46.079   4.295  15.828  0.00  0.00    +0.000 F 
ATOM     24  F   UNL     1      47.486   3.048  14.737  0.00  0.00    +0.000 F 
ENDBRANCH  17  21
BRANCH  19  25
ATOM     25  C   UNL     1      48.733   7.979  11.866  0.00  0.00    +0.000 C 
ATOM     26  F   UNL     1      48.183   9.173  11.517  0.00  0.00    +0.000 F 
ATOM     27  F   UNL     1      49.616   8.249  12.866  0.00  0.00    +0.000 F 
ATOM     28  F   UNL     1      49.485   7.584  10.801  0.00  0.00    +0.000 F 
ENDBRANCH  19  25
ENDBRANCH   1  15
TORSDOF 5
ENDMDL
MODEL 3
REMARK VINA RESULT:    -6.867      4.808      7.568
REMARK INTER + INTRA:          -9.741
REMARK INTER:                  -8.944
REMARK INTRA:                  -0.797
REMARK UNBOUND:                -0.866
REMARK  Name = 
REMARK  5 active torsions:
REMARK  status: ('A' for Active; 'I' for Inactive)
REMARK    1  A    between atoms: C_2  and  C_4
REMARK    2  A    between atoms: N_8  and  C_9
REMARK    3  A    between atoms: C_9  and  C_10
REMARK    4  A    between atoms: C_12  and  C_13
REMARK    5  A    between atoms: C_18  and  C_19
REMARK                            x       y       z     vdW  Elec       q    Type
REMARK                         _______ _______ _______ _____ _____    ______ ____
ROOT
ATOM      1  C   UNL     1      46.515   4.075  15.177  0.00  0.00    +0.000 C 
ENDROOT
BRANCH   1   6
ATOM      2  C   UNL     1      50.732   2.567  17.390  0.00  0.00    +0.000 A 
ATOM      3  C   UNL     1      50.670   3.938  17.614  0.00  0.00    +0.000 A 
ATOM      4  C   UNL     1      49.541   4.639  17.192  0.00  0.00    +0.000 A 
ATOM      5  C   UNL     1      48.513   3.975  16.527  0.00  0.00    +0.000 A 
ATOM      6  N   UNL     1      47.446   4.749  16.061  0.00  0.00    +0.000 N 
ATOM      7  N   UNL     1      48.569   2.651  16.291  0.00  0.00    +0.000 NA
ATOM      8  C   UNL     1      49.668   1.975  16.724  0.00  0.00    +0.000 A 
ATOM      9  H   UNL     1      46.983   5.205  16.842  0.00  0.00    +0.000 HD
BRANCH   2  11
ATOM     10  N   UNL     1      51.645   0.416  18.061  0.00  0.00    +0.000 N 
ATOM     11  C   UNL     1      51.882   1.734  17.794  0.00  0.00    +0.000 C 
ATOM     12  O   UNL     1      53.013   2.193  17.866  0.00  0.00    +0.000 OA
ATOM     13  H   UNL     1      52.452  -0.165  18.250  0.00  0.00    +0.000 HD
ATOM     14  H   UNL     1      50.790  -0.054  17.802  0.00  0.00    +0.000 HD
ENDBRANCH   2  11
ENDBRANCH   1   6
BRANCH   1  15
ATOM     15  C   UNL     1      46.478   4.844  13.872  0.00  0.00    +0.000 A 
ATOM     16  C   UNL     1      45.557   4.481  12.875  0.00  0.00    +0.000 A 
ATOM     17  C   UNL     1      45.490   5.176  11.658  0.00  0.00    +0.000 A 
ATOM     18  C   UNL     1      46.385   6.236  11.434  0.00  0.00    +0.000 A 
ATOM     19  C   UNL     1      47.326   6.609  12.410  0.00  0.00    +0.000 A 
ATOM     20  C   UNL     1      47.369   5.897  13.622  0.00  0.00    +0.000 A 
BRANCH  17  21
ATOM     21  C   UNL     1      44.462   4.820  10.610  0.00  0.00    +0.000 C 
ATOM     22  F   UNL     1      43.378   5.644  10.600  0.00  0.00    +0.000 F 
ATOM     23  F   UNL     1      44.978   4.868   9.349  0.00  0.00    +0.000 F 
ATOM     24  F   UNL     1      43.974   3.559  10.764  0.00  0.00    +0.000 F 
ENDBRANCH  17  21
BRANCH  19  25
ATOM     25  C   UNL     1      48.265   7.772  12.181  0.00  0.00    +0.000 C 
ATOM     26  F   UNL     1      49.235   7.517  11.262  0.00  0.00    +0.000 F 
ATOM     27  F   UNL     1      47.611   8.882  11.740  0.00  0.00    +0.000 F 
ATOM     28  F   UNL     1      48.912   8.148  13.319  0.00  0.00    +0.000 F 
ENDBRANCH  19  25
ENDBRANCH   1  15
TORSDOF 5
ENDMDL
MODEL 4
REMARK VINA RESULT:    -6.821      5.315      7.958
REMARK INTER + INTRA:          -9.681
REMARK INTER:                  -8.949
REMARK INTRA:                  -0.731
REMARK UNBOUND:                -0.866
REMARK  Name = 
REMARK  5 active torsions:
REMARK  status: ('A' for Active; 'I' for Inactive)
REMARK    1  A    between atoms: C_2  and  C_4
REMARK    2  A    between atoms: N_8  and  C_9
REMARK    3  A    between atoms: C_9  and  C_10
REMARK    4  A    between atoms: C_12  and  C_13
REMARK    5  A    between atoms: C_18  and  C_19
REMARK                            x       y       z     vdW  Elec       q    Type
REMARK                         _______ _______ _______ _____ _____    ______ ____
ROOT
ATOM      1  C   UNL     1      47.208   3.694  14.594  0.00  0.00    +0.000 C 
ENDROOT
BRANCH   1   6
ATOM      2  C   UNL     1      49.643   4.667  18.846  0.00  0.00    +0.000 A 
ATOM      3  C   UNL     1      48.397   5.266  18.992  0.00  0.00    +0.000 A 
ATOM      4  C   UNL     1      47.441   5.086  17.992  0.00  0.00    +0.000 A 
ATOM      5  C   UNL     1      47.751   4.345  16.854  0.00  0.00    +0.000 A 
ATOM      6  N   UNL     1      46.777   4.268  15.854  0.00  0.00    +0.000 N 
ATOM      7  N   UNL     1      48.959   3.773  16.695  0.00  0.00    +0.000 NA
ATOM      8  C   UNL     1      49.877   3.942  17.686  0.00  0.00    +0.000 A 
ATOM      9  H   UNL     1      45.940   3.823  16.220  0.00  0.00    +0.000 HD
BRANCH   2  11
ATOM     10  N   UNL     1      51.862   4.071  19.642  0.00  0.00    +0.000 N 
ATOM     11  C   UNL     1      50.723   4.799  19.844  0.00  0.00    +0.000 C 
ATOM     12  O   UNL     1      50.621   5.547  20.805  0.00  0.00    +0.000 OA
ATOM     13  H   UNL     1      52.629   4.235  20.281  0.00  0.00    +0.000 HD
ATOM     14  H   UNL     1      52.081   3.623  18.764  0.00  0.00    +0.000 HD
ENDBRANCH   2  11
ENDBRANCH   1   6
BRANCH   1  15
ATOM     15  C   UNL     1      46.431   4.377  13.486  0.00  0.00    +0.000 A 
ATOM     16  C   UNL     1      46.449   5.779  13.384  0.00  0.00    +0.000 A 
ATOM     17  C   UNL     1      45.749   6.444  12.367  0.00  0.00    +0.000 A 
ATOM     18  C   UNL     1      44.998   5.683  11.454  0.00  0.00    +0.000 A 
ATOM     19  C   UNL     1      44.952   4.282  11.543  0.00  0.00    +0.000 A 
ATOM     20  C   UNL     1      45.666   3.640  12.572  0.00  0.00    +0.000 A 
BRANCH  17  21
ATOM     21  C   UNL     1      45.814   7.946  12.227  0.00  0.00    +0.000 C 
ATOM     22  F   UNL     1      45.543   8.619  13.379  0.00  0.00    +0.000 F 
ATOM     23  F   UNL     1      47.047   8.370  11.830  0.00  0.00    +0.000 F 
ATOM     24  F   UNL     1      44.940   8.423  11.298  0.00  0.00    +0.000 F 
ENDBRANCH  17  21
BRANCH  19  25
ATOM     25  C   UNL     1      44.171   3.463  10.540  0.00  0.00    +0.000 C 
ATOM     26  F   UNL     1      43.075   2.854  11.068  0.00  0.00    +0.000 F 
ATOM     27  F   UNL     1      43.720   4.218   9.501  0.00  0.00    +0.000 F 
ATOM     28  F   UNL     1      44.922   2.472   9.982  0.00  0.00    +0.000 F 
ENDBRANCH  19  25
ENDBRANCH   1  15
TORSDOF 5
ENDMDL
MODEL 5
REMARK VINA RESULT:    -6.801      5.215      8.329
REMARK INTER + INTRA:          -9.655
REMARK INTER:                  -8.928
REMARK INTRA:                  -0.727
REMARK UNBOUND:                -0.866
REMARK  Name = 
REMARK  5 active torsions:
REMARK  status: ('A' for Active; 'I' for Inactive)
REMARK    1  A    between atoms: C_2  and  C_4
REMARK    2  A    between atoms: N_8  and  C_9
REMARK    3  A    between atoms: C_9  and  C_10
REMARK    4  A    between atoms: C_12  and  C_13
REMARK    5  A    between atoms: C_18  and  C_19
REMARK                            x       y       z     vdW  Elec       q    Type
REMARK                         _______ _______ _______ _____ _____    ______ ____
ROOT
ATOM      1  C   UNL     1      47.165   3.654  14.602  0.00  0.00    +0.000 C 
ENDROOT
BRANCH   1   6
ATOM      2  C   UNL     1      49.649   4.607  18.830  0.00  0.00    +0.000 A 
ATOM      3  C   UNL     1      48.401   5.196  18.999  0.00  0.00    +0.000 A 
ATOM      4  C   UNL     1      47.434   5.018  18.009  0.00  0.00    +0.000 A 
ATOM      5  C   UNL     1      47.734   4.289  16.861  0.00  0.00    +0.000 A 
ATOM      6  N   UNL     1      46.747   4.213  15.874  0.00  0.00    +0.000 N 
ATOM      7  N   UNL     1      48.944   3.727  16.680  0.00  0.00    +0.000 NA
ATOM      8  C   UNL     1      49.873   3.894  17.661  0.00  0.00    +0.000 A 
ATOM      9  H   UNL     1      45.918   3.759  16.247  0.00  0.00    +0.000 HD
BRANCH   2  11
ATOM     10  N   UNL     1      50.410   4.683  21.139  0.00  0.00    +0.000 N 
ATOM     11  C   UNL     1      50.742   4.738  19.815  0.00  0.00    +0.000 C 
ATOM     12  O   UNL     1      51.907   4.867  19.467  0.00  0.00    +0.000 OA
ATOM     13  H   UNL     1      51.173   4.684  21.803  0.00  0.00    +0.000 HD
ATOM     14  H   UNL     1      49.513   4.357  21.469  0.00  0.00    +0.000 HD
ENDBRANCH   2  11
ENDBRANCH   1   6
BRANCH   1  15
ATOM     15  C   UNL     1      46.444   4.411  13.505  0.00  0.00    +0.000 A 
ATOM     16  C   UNL     1      45.688   3.705  12.553  0.00  0.00    +0.000 A 
ATOM     17  C   UNL     1      45.000   4.373  11.529  0.00  0.00    +0.000 A 
ATOM     18  C   UNL     1      45.099   5.773  11.450  0.00  0.00    +0.000 A 
ATOM     19  C   UNL     1      45.860   6.500  12.381  0.00  0.00    +0.000 A 
ATOM     20  C   UNL     1      46.537   5.805  13.399  0.00  0.00    +0.000 A 
BRANCH  17  21
ATOM     21  C   UNL     1      44.144   3.618  10.541  0.00  0.00    +0.000 C 
ATOM     22  F   UNL     1      44.765   2.539   9.987  0.00  0.00    +0.000 F 
ATOM     23  F   UNL     1      43.004   3.138  11.113  0.00  0.00    +0.000 F 
ATOM     24  F   UNL     1      43.739   4.394   9.499  0.00  0.00    +0.000 F 
ENDBRANCH  17  21
BRANCH  19  25
ATOM     25  C   UNL     1      45.937   8.009  12.314  0.00  0.00    +0.000 C 
ATOM     26  F   UNL     1      45.821   8.615  13.527  0.00  0.00    +0.000 F 
ATOM     27  F   UNL     1      47.117   8.441  11.789  0.00  0.00    +0.000 F 
ATOM     28  F   UNL     1      44.961   8.545  11.530  0.00  0.00    +0.000 F 
ENDBRANCH  19  25
ENDBRANCH   1  15
TORSDOF 5
ENDMDL
MODEL 6
REMARK VINA RESULT:    -6.761      4.853      7.254
REMARK INTER + INTRA:          -9.603
REMARK INTER:                  -8.807
REMARK INTRA:                  -0.796
REMARK UNBOUND:                -0.866
REMARK  Name = 
REMARK  5 active torsions:
REMARK  status: ('A' for Active; 'I' for Inactive)
REMARK    1  A    between atoms: C_2  and  C_4
REMARK    2  A    between atoms: N_8  and  C_9
REMARK    3  A    between atoms: C_9  and  C_10
REMARK    4  A    between atoms: C_12  and  C_13
REMARK    5  A    between atoms: C_18  and  C_19
REMARK                            x       y       z     vdW  Elec       q    Type
REMARK                         _______ _______ _______ _____ _____    ______ ____
ROOT
ATOM      1  C   UNL     1      46.596   4.215  15.200  0.00  0.00    +0.000 C 
ENDROOT
BRANCH   1   6
ATOM      2  C   UNL     1      50.833   2.779  17.424  0.00  0.00    +0.000 A 
ATOM      3  C   UNL     1      50.796   4.162  17.565  0.00  0.00    +0.000 A 
ATOM      4  C   UNL     1      49.669   4.854  17.120  0.00  0.00    +0.000 A 
ATOM      5  C   UNL     1      48.619   4.167  16.517  0.00  0.00    +0.000 A 
ATOM      6  N   UNL     1      47.554   4.927  16.024  0.00  0.00    +0.000 N 
ATOM      7  N   UNL     1      48.650   2.830  16.362  0.00  0.00    +0.000 NA
ATOM      8  C   UNL     1      49.748   2.164  16.816  0.00  0.00    +0.000 A 
ATOM      9  H   UNL     1      47.113   5.438  16.783  0.00  0.00    +0.000 HD
BRANCH   2  11
ATOM     10  N   UNL     1      52.004   0.648  17.459  0.00  0.00    +0.000 N 
ATOM     11  C   UNL     1      51.978   1.955  17.858  0.00  0.00    +0.000 C 
ATOM     12  O   UNL     1      52.887   2.421  18.529  0.00  0.00    +0.000 OA
ATOM     13  H   UNL     1      52.834   0.116  17.685  0.00  0.00    +0.000 HD
ATOM     14  H   UNL     1      51.407   0.283  16.730  0.00  0.00    +0.000 HD
ENDBRANCH   2  11
ENDBRANCH   1   6
BRANCH   1  15
ATOM     15  C   UNL     1      46.514   4.929  13.866  0.00  0.00    +0.000 A 
ATOM     16  C   UNL     1      47.361   6.018  13.605  0.00  0.00    +0.000 A 
ATOM     17  C   UNL     1      47.318   6.697  12.378  0.00  0.00    +0.000 A 
ATOM     18  C   UNL     1      46.387   6.285  11.410  0.00  0.00    +0.000 A 
ATOM     19  C   UNL     1      45.518   5.207  11.652  0.00  0.00    +0.000 A 
ATOM     20  C   UNL     1      45.585   4.543  12.890  0.00  0.00    +0.000 A 
BRANCH  17  21
ATOM     21  C   UNL     1      48.268   7.833  12.080  0.00  0.00    +0.000 C 
ATOM     22  F   UNL     1      49.122   7.581  11.049  0.00  0.00    +0.000 F 
ATOM     23  F   UNL     1      47.607   8.978  11.744  0.00  0.00    +0.000 F 
ATOM     24  F   UNL     1      49.050   8.154  13.146  0.00  0.00    +0.000 F 
ENDBRANCH  17  21
BRANCH  19  25
ATOM     25  C   UNL     1      44.540   4.743  10.596  0.00  0.00    +0.000 C 
ATOM     26  F   UNL     1      44.158   3.446  10.739  0.00  0.00    +0.000 F 
ATOM     27  F   UNL     1      43.393   5.477  10.600  0.00  0.00    +0.000 F 
ATOM     28  F   UNL     1      45.047   4.850   9.336  0.00  0.00    +0.000 F 
ENDBRANCH  19  25
ENDBRANCH   1  15
TORSDOF 5
ENDMDL
MODEL 7
REMARK VINA RESULT:    -6.354      4.062      6.187
REMARK INTER + INTRA:          -9.077
REMARK INTER:                  -8.436
REMARK INTRA:                  -0.640
REMARK UNBOUND:                -0.866
REMARK  Name = 
REMARK  5 active torsions:
REMARK  status: ('A' for Active; 'I' for Inactive)
REMARK    1  A    between atoms: C_2  and  C_4
REMARK    2  A    between atoms: N_8  and  C_9
REMARK    3  A    between atoms: C_9  and  C_10
REMARK    4  A    between atoms: C_12  and  C_13
REMARK    5  A    between atoms: C_18  and  C_19
REMARK                            x       y       z     vdW  Elec       q    Type
REMARK                         _______ _______ _______ _____ _____    ______ ____
ROOT
ATOM      1  C   UNL     1      47.145   3.999  15.912  0.00  0.00    +0.000 C 
ENDROOT
BRANCH   1   6
ATOM      2  C   UNL     1      45.005   4.183  11.402  0.00  0.00    +0.000 A 
ATOM      3  C   UNL     1      45.337   5.499  11.703  0.00  0.00    +0.000 A 
ATOM      4  C   UNL     1      46.046   5.763  12.876  0.00  0.00    +0.000 A 
ATOM      5  C   UNL     1      46.380   4.723  13.740  0.00  0.00    +0.000 A 
ATOM      6  N   UNL     1      47.021   5.064  14.935  0.00  0.00    +0.000 N 
ATOM      7  N   UNL     1      46.051   3.447  13.466  0.00  0.00    +0.000 NA
ATOM      8  C   UNL     1      45.374   3.200  12.310  0.00  0.00    +0.000 A 
ATOM      9  H   UNL     1      47.909   5.515  14.735  0.00  0.00    +0.000 HD
BRANCH   2  11
ATOM     10  N   UNL     1      44.163   4.718   9.184  0.00  0.00    +0.000 N 
ATOM     11  C   UNL     1      44.255   3.798  10.190  0.00  0.00    +0.000 C 
ATOM     12  O   UNL     1      43.750   2.690  10.073  0.00  0.00    +0.000 OA
ATOM     13  H   UNL     1      43.725   4.414   8.325  0.00  0.00    +0.000 HD
ATOM     14  H   UNL     1      44.742   5.544   9.139  0.00  0.00    +0.000 HD
ENDBRANCH   2  11
ENDBRANCH   1   6
BRANCH   1  15
ATOM     15  C   UNL     1      48.033   4.502  17.033  0.00  0.00    +0.000 A 
ATOM     16  C   UNL     1      49.337   3.997  17.169  0.00  0.00    +0.000 A 
ATOM     17  C   UNL     1      50.189   4.445  18.189  0.00  0.00    +0.000 A 
ATOM     18  C   UNL     1      49.707   5.399  19.101  0.00  0.00    +0.000 A 
ATOM     19  C   UNL     1      48.402   5.910  18.996  0.00  0.00    +0.000 A 
ATOM     20  C   UNL     1      47.570   5.445  17.961  0.00  0.00    +0.000 A 
BRANCH  17  21
ATOM     21  C   UNL     1      51.608   3.941  18.300  0.00  0.00    +0.000 C 
ATOM     22  F   UNL     1      52.504   4.647  17.556  0.00  0.00    +0.000 F 
ATOM     23  F   UNL     1      52.070   3.989  19.582  0.00  0.00    +0.000 F 
ATOM     24  F   UNL     1      51.734   2.643  17.908  0.00  0.00    +0.000 F 
ENDBRANCH  17  21
BRANCH  19  25
ATOM     25  C   UNL     1      47.898   6.962  19.957  0.00  0.00    +0.000 C 
ATOM     26  F   UNL     1      47.156   6.456  20.979  0.00  0.00    +0.000 F 
ATOM     27  F   UNL     1      48.914   7.658  20.538  0.00  0.00    +0.000 F 
ATOM     28  F   UNL     1      47.112   7.891  19.345  0.00  0.00    +0.000 F 
ENDBRANCH  19  25
ENDBRANCH   1  15
TORSDOF 5
ENDMDL
MODEL 8
REMARK VINA RESULT:    -6.318      5.109      8.328
REMARK INTER + INTRA:          -9.030
REMARK INTER:                  -8.363
REMARK INTRA:                  -0.666
REMARK UNBOUND:                -0.866
REMARK  Name = 
REMARK  5 active torsions:
REMARK  status: ('A' for Active; 'I' for Inactive)
REMARK    1  A    between atoms: C_2  and  C_4
REMARK    2  A    between atoms: N_8  and  C_9
REMARK    3  A    between atoms: C_9  and  C_10
REMARK    4  A    between atoms: C_12  and  C_13
REMARK    5  A    between atoms: C_18  and  C_19
REMARK                            x       y       z     vdW  Elec       q    Type
REMARK                         _______ _______ _______ _____ _____    ______ ____
ROOT
ATOM      1  C   UNL     1      47.586   5.852  13.944  0.00  0.00    +0.000 C 
ENDROOT
BRANCH   1   6
ATOM      2  C   UNL     1      49.139   4.664  18.540  0.00  0.00    +0.000 A 
ATOM      3  C   UNL     1      47.884   4.080  18.416  0.00  0.00    +0.000 A 
ATOM      4  C   UNL     1      47.223   4.157  17.189  0.00  0.00    +0.000 A 
ATOM      5  C   UNL     1      47.806   4.838  16.124  0.00  0.00    +0.000 A 
ATOM      6  N   UNL     1      47.060   4.946  14.946  0.00  0.00    +0.000 N 
ATOM      7  N   UNL     1      49.015   5.421  16.237  0.00  0.00    +0.000 NA
ATOM      8  C   UNL     1      49.656   5.323  17.434  0.00  0.00    +0.000 A 
ATOM      9  H   UNL     1      46.866   4.021  14.574  0.00  0.00    +0.000 HD
BRANCH   2  11
ATOM     10  N   UNL     1      49.248   4.355  20.950  0.00  0.00    +0.000 N 
ATOM     11  C   UNL     1      49.918   4.642  19.795  0.00  0.00    +0.000 C 
ATOM     12  O   UNL     1      51.123   4.848  19.805  0.00  0.00    +0.000 OA
ATOM     13  H   UNL     1      49.804   4.255  21.789  0.00  0.00    +0.000 HD
ATOM     14  H   UNL     1      48.318   3.962  20.964  0.00  0.00    +0.000 HD
ENDBRANCH   2  11
ENDBRANCH   1   6
BRANCH   1  15
ATOM     15  C   UNL     1      46.436   6.268  13.049  0.00  0.00    +0.000 A 
ATOM     16  C   UNL     1      45.570   5.292  12.527  0.00  0.00    +0.000 A 
ATOM     17  C   UNL     1      44.491   5.643  11.702  0.00  0.00    +0.000 A 
ATOM     18  C   UNL     1      44.299   6.996  11.378  0.00  0.00    +0.000 A 
ATOM     19  C   UNL     1      45.159   7.990  11.875  0.00  0.00    +0.000 A 
ATOM     20  C   UNL     1      46.232   7.611  12.703  0.00  0.00    +0.000 A 
BRANCH  17  21
ATOM     21  C   UNL     1      43.530   4.597  11.187  0.00  0.00    +0.000 C 
ATOM     22  F   UNL     1      42.224   4.866  11.464  0.00  0.00    +0.000 F 
ATOM     23  F   UNL     1      43.602   4.459   9.832  0.00  0.00    +0.000 F 
ATOM     24  F   UNL     1      43.777   3.361  11.700  0.00  0.00    +0.000 F 
ENDBRANCH  17  21
BRANCH  19  25
ATOM     25  C   UNL     1      44.931   9.450  11.553  0.00  0.00    +0.000 C 
ATOM     26  F   UNL     1      46.081  10.157  11.380  0.00  0.00    +0.000 F 
ATOM     27  F   UNL     1      44.210   9.618  10.411  0.00  0.00    +0.000 F 
ATOM     28  F   UNL     1      44.236  10.095  12.532  0.00  0.00    +0.000 F 
ENDBRANCH  19  25
ENDBRANCH   1  15
TORSDOF 5
ENDMDL
MODEL 9
REMARK VINA RESULT:    -6.172      4.278      6.447
REMARK INTER + INTRA:          -8.842
REMARK INTER:                  -8.198
REMARK INTRA:                  -0.644
REMARK UNBOUND:                -0.866
REMARK  Name = 
REMARK  5 active torsions:
REMARK  status: ('A' for Active; 'I' for Inactive)
REMARK    1  A    between atoms: C_2  and  C_4
REMARK    2  A    between atoms: N_8  and  C_9
REMARK    3  A    between atoms: C_9  and  C_10
REMARK    4  A    between atoms: C_12  and  C_13
REMARK    5  A    between atoms: C_18  and  C_19
REMARK                            x       y       z     vdW  Elec       q    Type
REMARK                         _______ _______ _______ _____ _____    ______ ____
ROOT
ATOM      1  C   UNL     1      47.386   3.981  16.157  0.00  0.00    +0.000 C 
ENDROOT
BRANCH   1   6
ATOM      2  C   UNL     1      45.169   4.174  11.685  0.00  0.00    +0.000 A 
ATOM      3  C   UNL     1      45.434   5.497  12.019  0.00  0.00    +0.000 A 
ATOM      4  C   UNL     1      46.145   5.766  13.189  0.00  0.00    +0.000 A 
ATOM      5  C   UNL     1      46.549   4.723  14.018  0.00  0.00    +0.000 A 
ATOM      6  N   UNL     1      47.189   5.064  15.213  0.00  0.00    +0.000 N 
ATOM      7  N   UNL     1      46.285   3.439  13.712  0.00  0.00    +0.000 NA
ATOM      8  C   UNL     1      45.605   3.188  12.559  0.00  0.00    +0.000 A 
ATOM      9  H   UNL     1      48.048   5.569  15.013  0.00  0.00    +0.000 HD
BRANCH   2  11
ATOM     10  N   UNL     1      44.585   2.506  10.014  0.00  0.00    +0.000 N 
ATOM     11  C   UNL     1      44.421   3.782  10.473  0.00  0.00    +0.000 C 
ATOM     12  O   UNL     1      43.663   4.557   9.908  0.00  0.00    +0.000 OA
ATOM     13  H   UNL     1      44.003   2.220   9.238  0.00  0.00    +0.000 HD
ATOM     14  H   UNL     1      45.013   1.774  10.563  0.00  0.00    +0.000 HD
ENDBRANCH   2  11
ENDBRANCH   1   6
BRANCH   1  15
ATOM     15  C   UNL     1      48.232   4.511  17.297  0.00  0.00    +0.000 A 
ATOM     16  C   UNL     1      47.683   5.435  18.202  0.00  0.00    +0.000 A 
ATOM     17  C   UNL     1      48.435   5.940  19.274  0.00  0.00    +0.000 A 
ATOM     18  C   UNL     1      49.769   5.524  19.418  0.00  0.00    +0.000 A 
ATOM     19  C   UNL     1      50.347   4.612  18.519  0.00  0.00    +0.000 A 
ATOM     20  C   UNL     1      49.569   4.119  17.455  0.00  0.00    +0.000 A 
BRANCH  17  21
ATOM     21  C   UNL     1      47.826   6.891  20.276  0.00  0.00    +0.000 C 
ATOM     22  F   UNL     1      48.738   7.496  21.086  0.00  0.00    +0.000 F 
ATOM     23  F   UNL     1      47.138   7.901  19.671  0.00  0.00    +0.000 F 
ATOM     24  F   UNL     1      46.936   6.279  21.104  0.00  0.00    +0.000 F 
ENDBRANCH  17  21
BRANCH  19  25
ATOM     25  C   UNL     1      51.772   4.139  18.696  0.00  0.00    +0.000 C 
ATOM     26  F   UNL     1      52.002   2.898  18.189  0.00  0.00    +0.000 F 
ATOM     27  F   UNL     1      52.667   4.966  18.088  0.00  0.00    +0.000 F 
ATOM     28  F   UNL     1      52.143   4.086  20.005  0.00  0.00    +0.000 F 
ENDBRANCH  19  25
ENDBRANCH   1  15
TORSDOF 5
ENDMDL
