MODEL 1
REMARK VINA RESULT:    -8.914      0.000      0.000
REMARK INTER + INTRA:         -12.338
REMARK INTER:                 -11.520
REMARK INTRA:                  -0.818
REMARK UNBOUND:                -0.818
REMARK  Name = 
REMARK  5 active torsions:
REMARK  status: ('A' for Active; 'I' for Inactive)
REMARK    1  A    between atoms: C_2  and  C_4
REMARK    2  A    between atoms: C_7  and  N_8
REMARK    3  A    between atoms: N_8  and  C_9
REMARK    4  A    between atoms: C_9  and  C_10
REMARK    5  A    between atoms: C_12  and  C_13
REMARK                            x       y       z     vdW  Elec       q    Type
REMARK                         _______ _______ _______ _____ _____    ______ ____
ROOT
ATOM      1  C   UNL     1      43.627   4.608  11.446  0.00  0.00    +0.000 C 
ENDROOT
BRANCH   1   2
ATOM      2  C   UNL     1      44.882   4.963  12.216  0.00  0.00    +0.000 A 
ATOM      3  C   UNL     1      45.640   6.084  11.867  0.00  0.00    +0.000 A 
ATOM      4  C   UNL     1      46.826   6.376  12.556  0.00  0.00    +0.000 A 
ATOM      5  C   UNL     1      47.195   5.489  13.578  0.00  0.00    +0.000 A 
ATOM      6  C   UNL     1      46.392   4.399  13.863  0.00  0.00    +0.000 A 
ATOM      7  N   UNL     1      45.249   4.121  13.213  0.00  0.00    +0.000 NA
BRANCH   4   8
ATOM      8  C   UNL     1      47.645   7.570  12.239  0.00  0.00    +0.000 A 
ATOM      9  C   UNL     1      49.027   7.467  11.982  0.00  0.00    +0.000 A 
ATOM     10  C   UNL     1      49.797   8.586  11.641  0.00  0.00    +0.000 A 
ATOM     11  C   UNL     1      49.199   9.837  11.544  0.00  0.00    +0.000 A 
ATOM     12  C   UNL     1      47.843   9.959  11.803  0.00  0.00    +0.000 A 
ATOM     13  F   UNL     1      47.258  11.160  11.705  0.00  0.00    +0.000 F 
ATOM     14  C   UNL     1      47.074   8.852  12.154  0.00  0.00    +0.000 A 
ENDBRANCH   4   8
ENDBRANCH   1   2
BRANCH   1  15
ATOM     15  N   UNL     1      43.783   4.819  10.007  0.00  0.00    +0.000 N 
ATOM     16  H   UNL     1      42.888   4.970   9.541  0.00  0.00    +0.000 HD
BRANCH  15  20
ATOM     17  C   UNL     1      46.351   2.257   7.838  0.00  0.00    +0.000 A 
ATOM     18  C   UNL     1      45.433   1.709   8.734  0.00  0.00    +0.000 A 
ATOM     19  C   UNL     1      44.572   2.545   9.454  0.00  0.00    +0.000 A 
ATOM     20  C   UNL     1      44.587   3.935   9.278  0.00  0.00    +0.000 A 
ATOM     21  C   UNL     1      45.522   4.469   8.382  0.00  0.00    +0.000 A 
ATOM     22  C   UNL     1      46.406   3.643   7.674  0.00  0.00    +0.000 A 
BRANCH  17  24
ATOM     23  N   UNL     1      48.392   2.018   6.534  0.00  0.00    +0.000 N 
ATOM     24  C   UNL     1      47.298   1.402   7.078  0.00  0.00    +0.000 C 
ATOM     25  O   UNL     1      47.133   0.194   6.971  0.00  0.00    +0.000 OA
ATOM     26  H   UNL     1      49.082   1.412   6.114  0.00  0.00    +0.000 HD
ATOM     27  H   UNL     1      48.687   2.942   6.818  0.00  0.00    +0.000 HD
ENDBRANCH  17  24
ENDBRANCH  15  20
ENDBRANCH   1  15
TORSDOF 5
ENDMDL
MODEL 2
REMARK VINA RESULT:    -8.667      2.692      3.902
REMARK INTER + INTRA:         -12.018
REMARK INTER:                 -11.392
REMARK INTRA:                  -0.626
REMARK UNBOUND:                -0.818
REMARK  Name = 
REMARK  5 active torsions:
REMARK  status: ('A' for Active; 'I' for Inactive)
REMARK    1  A    between atoms: C_2  and  C_4
REMARK    2  A    between atoms: C_7  and  N_8
REMARK    3  A    between atoms: N_8  and  C_9
REMARK    4  A    between atoms: C_9  and  C_10
REMARK    5  A    between atoms: C_12  and  C_13
REMARK                            x       y       z     vdW  Elec       q    Type
REMARK                         _______ _______ _______ _____ _____    ______ ____
ROOT
ATOM      1  C   UNL     1      43.882   4.871  11.462  0.00  0.00    +0.000 C 
ENDROOT
BRANCH   1   2
ATOM      2  C   UNL     1      45.168   5.477  11.985  0.00  0.00    +0.000 A 
ATOM      3  C   UNL     1      45.711   5.053  13.201  0.00  0.00    +0.000 A 
ATOM      4  C   UNL     1      46.876   5.653  13.701  0.00  0.00    +0.000 A 
ATOM      5  C   UNL     1      47.434   6.683  12.929  0.00  0.00    +0.000 A 
ATOM      6  C   UNL     1      46.835   7.048  11.736  0.00  0.00    +0.000 A 
ATOM      7  N   UNL     1      45.725   6.468  11.248  0.00  0.00    +0.000 NA
BRANCH   4   8
ATOM      8  C   UNL     1      47.503   5.216  14.970  0.00  0.00    +0.000 A 
ATOM      9  C   UNL     1      48.497   5.988  15.605  0.00  0.00    +0.000 A 
ATOM     10  C   UNL     1      49.063   5.600  16.825  0.00  0.00    +0.000 A 
ATOM     11  C   UNL     1      48.642   4.429  17.445  0.00  0.00    +0.000 A 
ATOM     12  C   UNL     1      47.673   3.651  16.830  0.00  0.00    +0.000 A 
ATOM     13  F   UNL     1      47.258   2.525  17.423  0.00  0.00    +0.000 F 
ATOM     14  C   UNL     1      47.115   4.026  15.611  0.00  0.00    +0.000 A 
ENDBRANCH   4   8
ENDBRANCH   1   2
BRANCH   1  15
ATOM     15  N   UNL     1      43.817   4.888  10.001  0.00  0.00    +0.000 N 
ATOM     16  H   UNL     1      42.856   4.885   9.658  0.00  0.00    +0.000 HD
BRANCH  15  20
ATOM     17  C   UNL     1      46.353   2.281   7.845  0.00  0.00    +0.000 A 
ATOM     18  C   UNL     1      45.469   1.755   8.788  0.00  0.00    +0.000 A 
ATOM     19  C   UNL     1      44.619   2.605   9.504  0.00  0.00    +0.000 A 
ATOM     20  C   UNL     1      44.610   3.988   9.279  0.00  0.00    +0.000 A 
ATOM     21  C   UNL     1      45.510   4.502   8.337  0.00  0.00    +0.000 A 
ATOM     22  C   UNL     1      46.384   3.662   7.631  0.00  0.00    +0.000 A 
BRANCH  17  24
ATOM     23  N   UNL     1      48.398   2.008   6.557  0.00  0.00    +0.000 N 
ATOM     24  C   UNL     1      47.288   1.412   7.088  0.00  0.00    +0.000 C 
ATOM     25  O   UNL     1      47.098   0.208   6.971  0.00  0.00    +0.000 OA
ATOM     26  H   UNL     1      49.079   1.391   6.138  0.00  0.00    +0.000 HD
ATOM     27  H   UNL     1      48.711   2.924   6.849  0.00  0.00    +0.000 HD
ENDBRANCH  17  24
ENDBRANCH  15  20
ENDBRANCH   1  15
TORSDOF 5
ENDMDL
MODEL 3
REMARK VINA RESULT:    -8.385      1.588      1.778
REMARK INTER + INTRA:         -11.654
REMARK INTER:                 -10.889
REMARK INTRA:                  -0.765
REMARK UNBOUND:                -0.818
REMARK  Name = 
REMARK  5 active torsions:
REMARK  status: ('A' for Active; 'I' for Inactive)
REMARK    1  A    between atoms: C_2  and  C_4
REMARK    2  A    between atoms: C_7  and  N_8
REMARK    3  A    between atoms: N_8  and  C_9
REMARK    4  A    between atoms: C_9  and  C_10
REMARK    5  A    between atoms: C_12  and  C_13
REMARK                            x       y       z     vdW  Elec       q    Type
REMARK                         _______ _______ _______ _____ _____    ______ ____
ROOT
ATOM      1  C   UNL     1      44.214   5.780  10.865  0.00  0.00    +0.000 C 
ENDROOT
BRANCH   1   2
ATOM      2  C   UNL     1      45.300   5.641  11.912  0.00  0.00    +0.000 A 
ATOM      3  C   UNL     1      46.473   6.398  11.825  0.00  0.00    +0.000 A 
ATOM      4  C   UNL     1      47.493   6.228  12.773  0.00  0.00    +0.000 A 
ATOM      5  C   UNL     1      47.269   5.270  13.773  0.00  0.00    +0.000 A 
ATOM      6  C   UNL     1      46.083   4.559  13.789  0.00  0.00    +0.000 A 
ATOM      7  N   UNL     1      45.098   4.726  12.890  0.00  0.00    +0.000 NA
BRANCH   4   8
ATOM      8  C   UNL     1      48.739   7.028  12.737  0.00  0.00    +0.000 A 
ATOM      9  C   UNL     1      49.238   7.561  11.531  0.00  0.00    +0.000 A 
ATOM     10  C   UNL     1      50.393   8.352  11.497  0.00  0.00    +0.000 A 
ATOM     11  C   UNL     1      51.074   8.636  12.675  0.00  0.00    +0.000 A 
ATOM     12  C   UNL     1      50.604   8.113  13.870  0.00  0.00    +0.000 A 
ATOM     13  F   UNL     1      51.251   8.387  15.009  0.00  0.00    +0.000 F 
ATOM     14  C   UNL     1      49.463   7.316  13.908  0.00  0.00    +0.000 A 
ENDBRANCH   4   8
ENDBRANCH   1   2
BRANCH   1  15
ATOM     15  N   UNL     1      43.761   4.483  10.362  0.00  0.00    +0.000 N 
ATOM     16  H   UNL     1      43.409   3.883  11.107  0.00  0.00    +0.000 HD
BRANCH  15  20
ATOM     17  C   UNL     1      46.404   2.443   7.769  0.00  0.00    +0.000 A 
ATOM     18  C   UNL     1      45.629   1.714   8.671  0.00  0.00    +0.000 A 
ATOM     19  C   UNL     1      44.745   2.375   9.531  0.00  0.00    +0.000 A 
ATOM     20  C   UNL     1      44.594   3.768   9.493  0.00  0.00    +0.000 A 
ATOM     21  C   UNL     1      45.387   4.486   8.589  0.00  0.00    +0.000 A 
ATOM     22  C   UNL     1      46.294   3.835   7.740  0.00  0.00    +0.000 A 
BRANCH  17  24
ATOM     23  N   UNL     1      48.449   2.513   6.452  0.00  0.00    +0.000 N 
ATOM     24  C   UNL     1      47.372   1.776   6.863  0.00  0.00    +0.000 C 
ATOM     25  O   UNL     1      47.238   0.607   6.523  0.00  0.00    +0.000 OA
ATOM     26  H   UNL     1      49.154   2.018   5.925  0.00  0.00    +0.000 HD
ATOM     27  H   UNL     1      48.721   3.372   6.911  0.00  0.00    +0.000 HD
ENDBRANCH  17  24
ENDBRANCH  15  20
ENDBRANCH   1  15
TORSDOF 5
ENDMDL
MODEL 4
REMARK VINA RESULT:    -8.305      3.893      6.910
REMARK INTER + INTRA:         -11.550
REMARK INTER:                 -10.745
REMARK INTRA:                  -0.805
REMARK UNBOUND:                -0.818
REMARK  Name = 
REMARK  5 active torsions:
REMARK  status: ('A' for Active; 'I' for Inactive)
REMARK    1  A    between atoms: C_2  and  C_4
REMARK    2  A    between atoms: C_7  and  N_8
REMARK    3  A    between atoms: N_8  and  C_9
REMARK    4  A    between atoms: C_9  and  C_10
REMARK    5  A    between atoms: C_12  and  C_13
REMARK                            x       y       z     vdW  Elec       q    Type
REMARK                         _______ _______ _______ _____ _____    ______ ____
ROOT
ATOM      1  C   UNL     1      43.765   6.624  11.501  0.00  0.00    +0.000 C 
ENDROOT
BRANCH   1   2
ATOM      2  C   UNL     1      43.899   5.150  11.177  0.00  0.00    +0.000 A 
ATOM      3  C   UNL     1      44.645   4.729  10.072  0.00  0.00    +0.000 A 
ATOM      4  C   UNL     1      44.724   3.366   9.753  0.00  0.00    +0.000 A 
ATOM      5  C   UNL     1      44.017   2.483  10.583  0.00  0.00    +0.000 A 
ATOM      6  C   UNL     1      43.299   2.978  11.657  0.00  0.00    +0.000 A 
ATOM      7  N   UNL     1      43.229   4.283  11.974  0.00  0.00    +0.000 NA
BRANCH   4   8
ATOM      8  C   UNL     1      45.526   2.872   8.609  0.00  0.00    +0.000 A 
ATOM      9  C   UNL     1      45.987   3.744   7.603  0.00  0.00    +0.000 A 
ATOM     10  C   UNL     1      46.780   3.291   6.542  0.00  0.00    +0.000 A 
ATOM     11  C   UNL     1      47.136   1.948   6.466  0.00  0.00    +0.000 A 
ATOM     12  C   UNL     1      46.684   1.074   7.442  0.00  0.00    +0.000 A 
ATOM     13  F   UNL     1      47.028  -0.219   7.379  0.00  0.00    +0.000 F 
ATOM     14  C   UNL     1      45.885   1.517   8.493  0.00  0.00    +0.000 A 
ENDBRANCH   4   8
ENDBRANCH   1   2
BRANCH   1  15
ATOM     15  N   UNL     1      44.526   7.001  12.692  0.00  0.00    +0.000 N 
ATOM     16  H   UNL     1      44.099   7.781  13.190  0.00  0.00    +0.000 HD
BRANCH  15  20
ATOM     17  C   UNL     1      48.690   7.682  12.435  0.00  0.00    +0.000 A 
ATOM     18  C   UNL     1      48.223   6.439  12.865  0.00  0.00    +0.000 A 
ATOM     19  C   UNL     1      46.847   6.197  12.948  0.00  0.00    +0.000 A 
ATOM     20  C   UNL     1      45.911   7.173  12.581  0.00  0.00    +0.000 A 
ATOM     21  C   UNL     1      46.396   8.418  12.162  0.00  0.00    +0.000 A 
ATOM     22  C   UNL     1      47.773   8.679  12.098  0.00  0.00    +0.000 A 
BRANCH  17  24
ATOM     23  N   UNL     1      50.856   7.356  11.377  0.00  0.00    +0.000 N 
ATOM     24  C   UNL     1      50.142   7.981  12.361  0.00  0.00    +0.000 C 
ATOM     25  O   UNL     1      50.676   8.779  13.122  0.00  0.00    +0.000 OA
ATOM     26  H   UNL     1      51.817   7.649  11.267  0.00  0.00    +0.000 HD
ATOM     27  H   UNL     1      50.409   6.906  10.589  0.00  0.00    +0.000 HD
ENDBRANCH  17  24
ENDBRANCH  15  20
ENDBRANCH   1  15
TORSDOF 5
ENDMDL
MODEL 5
REMARK VINA RESULT:    -7.992      4.059      7.305
REMARK INTER + INTRA:         -11.146
REMARK INTER:                 -10.805
REMARK INTRA:                  -0.341
REMARK UNBOUND:                -0.818
REMARK  Name = 
REMARK  5 active torsions:
REMARK  status: ('A' for Active; 'I' for Inactive)
REMARK    1  A    between atoms: C_2  and  C_4
REMARK    2  A    between atoms: C_7  and  N_8
REMARK    3  A    between atoms: N_8  and  C_9
REMARK    4  A    between atoms: C_9  and  C_10
REMARK    5  A    between atoms: C_12  and  C_13
REMARK                            x       y       z     vdW  Elec       q    Type
REMARK                         _______ _______ _______ _____ _____    ______ ____
ROOT
ATOM      1  C   UNL     1      45.977   7.266  11.730  0.00  0.00    +0.000 C 
ENDROOT
BRANCH   1   2
ATOM      2  C   UNL     1      45.232   6.127  11.067  0.00  0.00    +0.000 A 
ATOM      3  C   UNL     1      45.855   5.340  10.093  0.00  0.00    +0.000 A 
ATOM      4  C   UNL     1      45.141   4.318   9.451  0.00  0.00    +0.000 A 
ATOM      5  C   UNL     1      43.801   4.152   9.829  0.00  0.00    +0.000 A 
ATOM      6  C   UNL     1      43.255   4.974  10.799  0.00  0.00    +0.000 A 
ATOM      7  N   UNL     1      43.938   5.948  11.426  0.00  0.00    +0.000 NA
BRANCH   4   8
ATOM      8  C   UNL     1      45.769   3.441   8.434  0.00  0.00    +0.000 A 
ATOM      9  C   UNL     1      46.322   3.966   7.249  0.00  0.00    +0.000 A 
ATOM     10  C   UNL     1      46.953   3.147   6.305  0.00  0.00    +0.000 A 
ATOM     11  C   UNL     1      47.051   1.778   6.529  0.00  0.00    +0.000 A 
ATOM     12  C   UNL     1      46.505   1.242   7.685  0.00  0.00    +0.000 A 
ATOM     13  F   UNL     1      46.601  -0.074   7.910  0.00  0.00    +0.000 F 
ATOM     14  C   UNL     1      45.866   2.050   8.621  0.00  0.00    +0.000 A 
ENDBRANCH   4   8
ENDBRANCH   1   2
BRANCH   1  15
ATOM     15  N   UNL     1      47.300   6.861  12.205  0.00  0.00    +0.000 N 
ATOM     16  H   UNL     1      47.889   6.509  11.451  0.00  0.00    +0.000 HD
BRANCH  15  20
ATOM     17  C   UNL     1      47.540   4.531  15.724  0.00  0.00    +0.000 A 
ATOM     18  C   UNL     1      46.812   4.054  14.634  0.00  0.00    +0.000 A 
ATOM     19  C   UNL     1      46.730   4.812  13.460  0.00  0.00    +0.000 A 
ATOM     20  C   UNL     1      47.390   6.042  13.337  0.00  0.00    +0.000 A 
ATOM     21  C   UNL     1      48.107   6.511  14.444  0.00  0.00    +0.000 A 
ATOM     22  C   UNL     1      48.176   5.772  15.634  0.00  0.00    +0.000 A 
BRANCH  17  24
ATOM     23  N   UNL     1      48.777   3.897  17.721  0.00  0.00    +0.000 N 
ATOM     24  C   UNL     1      47.626   3.767  16.993  0.00  0.00    +0.000 C 
ATOM     25  O   UNL     1      46.697   3.078  17.396  0.00  0.00    +0.000 OA
ATOM     26  H   UNL     1      48.782   3.460  18.632  0.00  0.00    +0.000 HD
ATOM     27  H   UNL     1      49.440   4.642  17.553  0.00  0.00    +0.000 HD
ENDBRANCH  17  24
ENDBRANCH  15  20
ENDBRANCH   1  15
TORSDOF 5
ENDMDL
MODEL 6
REMARK VINA RESULT:    -7.911      1.701      2.375
REMARK INTER + INTRA:         -11.041
REMARK INTER:                 -10.338
REMARK INTRA:                  -0.703
REMARK UNBOUND:                -0.818
REMARK  Name = 
REMARK  5 active torsions:
REMARK  status: ('A' for Active; 'I' for Inactive)
REMARK    1  A    between atoms: C_2  and  C_4
REMARK    2  A    between atoms: C_7  and  N_8
REMARK    3  A    between atoms: N_8  and  C_9
REMARK    4  A    between atoms: C_9  and  C_10
REMARK    5  A    between atoms: C_12  and  C_13
REMARK                            x       y       z     vdW  Elec       q    Type
REMARK                         _______ _______ _______ _____ _____    ______ ____
ROOT
ATOM      1  C   UNL     1      44.146   4.066  11.781  0.00  0.00    +0.000 C 
ENDROOT
BRANCH   1   2
ATOM      2  C   UNL     1      44.693   5.478  11.782  0.00  0.00    +0.000 A 
ATOM      3  C   UNL     1      46.023   5.726  12.131  0.00  0.00    +0.000 A 
ATOM      4  C   UNL     1      46.507   7.042  12.175  0.00  0.00    +0.000 A 
ATOM      5  C   UNL     1      45.592   8.059  11.868  0.00  0.00    +0.000 A 
ATOM      6  C   UNL     1      44.289   7.733  11.535  0.00  0.00    +0.000 A 
ATOM      7  N   UNL     1      43.824   6.473  11.480  0.00  0.00    +0.000 NA
BRANCH   4   8
ATOM      8  C   UNL     1      47.917   7.349  12.511  0.00  0.00    +0.000 A 
ATOM      9  C   UNL     1      48.402   7.236  13.830  0.00  0.00    +0.000 A 
ATOM     10  C   UNL     1      49.743   7.485  14.145  0.00  0.00    +0.000 A 
ATOM     11  C   UNL     1      50.636   7.849  13.143  0.00  0.00    +0.000 A 
ATOM     12  C   UNL     1      50.175   7.975  11.842  0.00  0.00    +0.000 A 
ATOM     13  F   UNL     1      51.030   8.319  10.871  0.00  0.00    +0.000 F 
ATOM     14  C   UNL     1      48.840   7.740  11.524  0.00  0.00    +0.000 A 
ENDBRANCH   4   8
ENDBRANCH   1   2
BRANCH   1  15
ATOM     15  N   UNL     1      43.722   3.637  10.448  0.00  0.00    +0.000 N 
ATOM     16  H   UNL     1      43.026   2.893  10.486  0.00  0.00    +0.000 HD
BRANCH  15  20
ATOM     17  C   UNL     1      46.578   2.663   7.487  0.00  0.00    +0.000 A 
ATOM     18  C   UNL     1      46.175   3.990   7.643  0.00  0.00    +0.000 A 
ATOM     19  C   UNL     1      45.236   4.328   8.623  0.00  0.00    +0.000 A 
ATOM     20  C   UNL     1      44.700   3.362   9.484  0.00  0.00    +0.000 A 
ATOM     21  C   UNL     1      45.106   2.033   9.308  0.00  0.00    +0.000 A 
ATOM     22  C   UNL     1      46.028   1.680   8.313  0.00  0.00    +0.000 A 
BRANCH  17  24
ATOM     23  N   UNL     1      47.559   3.002   5.287  0.00  0.00    +0.000 N 
ATOM     24  C   UNL     1      47.551   2.266   6.440  0.00  0.00    +0.000 C 
ATOM     25  O   UNL     1      48.339   1.344   6.608  0.00  0.00    +0.000 OA
ATOM     26  H   UNL     1      48.295   2.792   4.628  0.00  0.00    +0.000 HD
ATOM     27  H   UNL     1      47.114   3.907   5.222  0.00  0.00    +0.000 HD
ENDBRANCH  17  24
ENDBRANCH  15  20
ENDBRANCH   1  15
TORSDOF 5
ENDMDL
MODEL 7
REMARK VINA RESULT:    -6.819      4.472      8.055
REMARK INTER + INTRA:          -9.630
REMARK INTER:                  -9.106
REMARK INTRA:                  -0.523
REMARK UNBOUND:                -0.818
REMARK  Name = 
REMARK  5 active torsions:
REMARK  status: ('A' for Active; 'I' for Inactive)
REMARK    1  A    between atoms: C_2  and  C_4
REMARK    2  A    between atoms: C_7  and  N_8
REMARK    3  A    between atoms: N_8  and  C_9
REMARK    4  A    between atoms: C_9  and  C_10
REMARK    5  A    between atoms: C_12  and  C_13
REMARK                            x       y       z     vdW  Elec       q    Type
REMARK                         _______ _______ _______ _____ _____    ______ ____
ROOT
ATOM      1  C   UNL     1      45.723   7.393  11.725  0.00  0.00    +0.000 C 
ENDROOT
BRANCH   1   2
ATOM      2  C   UNL     1      45.047   6.178  11.125  0.00  0.00    +0.000 A 
ATOM      3  C   UNL     1      45.700   5.405  10.160  0.00  0.00    +0.000 A 
ATOM      4  C   UNL     1      45.047   4.309   9.576  0.00  0.00    +0.000 A 
ATOM      5  C   UNL     1      43.735   4.058  10.002  0.00  0.00    +0.000 A 
ATOM      6  C   UNL     1      43.157   4.871  10.960  0.00  0.00    +0.000 A 
ATOM      7  N   UNL     1      43.781   5.915  11.531  0.00  0.00    +0.000 NA
BRANCH   4   8
ATOM      8  C   UNL     1      45.711   3.445   8.571  0.00  0.00    +0.000 A 
ATOM      9  C   UNL     1      46.367   3.990   7.449  0.00  0.00    +0.000 A 
ATOM     10  C   UNL     1      47.031   3.181   6.519  0.00  0.00    +0.000 A 
ATOM     11  C   UNL     1      47.058   1.802   6.694  0.00  0.00    +0.000 A 
ATOM     12  C   UNL     1      46.410   1.247   7.786  0.00  0.00    +0.000 A 
ATOM     13  F   UNL     1      46.437  -0.080   7.965  0.00  0.00    +0.000 F 
ATOM     14  C   UNL     1      45.738   2.045   8.708  0.00  0.00    +0.000 A 
ENDBRANCH   4   8
ENDBRANCH   1   2
BRANCH   1  15
ATOM     15  N   UNL     1      47.170   7.222  11.842  0.00  0.00    +0.000 N 
ATOM     16  H   UNL     1      47.480   6.315  11.494  0.00  0.00    +0.000 HD
BRANCH  15  20
ATOM     17  C   UNL     1      48.884   8.197  15.582  0.00  0.00    +0.000 A 
ATOM     18  C   UNL     1      49.298   7.043  14.917  0.00  0.00    +0.000 A 
ATOM     19  C   UNL     1      48.745   6.711  13.676  0.00  0.00    +0.000 A 
ATOM     20  C   UNL     1      47.791   7.531  13.058  0.00  0.00    +0.000 A 
ATOM     21  C   UNL     1      47.378   8.681  13.743  0.00  0.00    +0.000 A 
ATOM     22  C   UNL     1      47.908   9.010  15.000  0.00  0.00    +0.000 A 
BRANCH  17  24
ATOM     23  N   UNL     1      48.701   8.189  18.008  0.00  0.00    +0.000 N 
ATOM     24  C   UNL     1      49.429   8.565  16.912  0.00  0.00    +0.000 C 
ATOM     25  O   UNL     1      50.500   9.146  17.032  0.00  0.00    +0.000 OA
ATOM     26  H   UNL     1      49.133   8.348  18.907  0.00  0.00    +0.000 HD
ATOM     27  H   UNL     1      47.965   7.498  17.955  0.00  0.00    +0.000 HD
ENDBRANCH  17  24
ENDBRANCH  15  20
ENDBRANCH   1  15
TORSDOF 5
ENDMDL
MODEL 8
REMARK VINA RESULT:    -6.731      4.902      7.950
REMARK INTER + INTRA:          -9.516
REMARK INTER:                  -8.853
REMARK INTRA:                  -0.663
REMARK UNBOUND:                -0.818
REMARK  Name = 
REMARK  5 active torsions:
REMARK  status: ('A' for Active; 'I' for Inactive)
REMARK    1  A    between atoms: C_2  and  C_4
REMARK    2  A    between atoms: C_7  and  N_8
REMARK    3  A    between atoms: N_8  and  C_9
REMARK    4  A    between atoms: C_9  and  C_10
REMARK    5  A    between atoms: C_12  and  C_13
REMARK                            x       y       z     vdW  Elec       q    Type
REMARK                         _______ _______ _______ _____ _____    ______ ____
ROOT
ATOM      1  C   UNL     1      48.777   6.721  15.881  0.00  0.00    +0.000 C 
ENDROOT
BRANCH   1   2
ATOM      2  C   UNL     1      48.284   6.798  14.451  0.00  0.00    +0.000 A 
ATOM      3  C   UNL     1      47.191   6.034  14.033  0.00  0.00    +0.000 A 
ATOM      4  C   UNL     1      46.771   6.076  12.695  0.00  0.00    +0.000 A 
ATOM      5  C   UNL     1      47.507   6.900  11.831  0.00  0.00    +0.000 A 
ATOM      6  C   UNL     1      48.579   7.624  12.321  0.00  0.00    +0.000 A 
ATOM      7  N   UNL     1      48.978   7.596  13.604  0.00  0.00    +0.000 NA
BRANCH   4   8
ATOM      8  C   UNL     1      45.600   5.305  12.214  0.00  0.00    +0.000 A 
ATOM      9  C   UNL     1      44.702   4.694  13.113  0.00  0.00    +0.000 A 
ATOM     10  C   UNL     1      43.571   4.000  12.665  0.00  0.00    +0.000 A 
ATOM     11  C   UNL     1      43.309   3.906  11.303  0.00  0.00    +0.000 A 
ATOM     12  C   UNL     1      44.186   4.493  10.404  0.00  0.00    +0.000 A 
ATOM     13  F   UNL     1      43.937   4.411   9.091  0.00  0.00    +0.000 F 
ATOM     14  C   UNL     1      45.318   5.174  10.843  0.00  0.00    +0.000 A 
ENDBRANCH   4   8
ENDBRANCH   1   2
BRANCH   1  15
ATOM     15  N   UNL     1      48.302   5.520  16.568  0.00  0.00    +0.000 N 
ATOM     16  H   UNL     1      47.695   5.742  17.357  0.00  0.00    +0.000 HD
BRANCH  15  20
ATOM     17  C   UNL     1      51.054   2.434  17.446  0.00  0.00    +0.000 A 
ATOM     18  C   UNL     1      51.433   3.764  17.629  0.00  0.00    +0.000 A 
ATOM     19  C   UNL     1      50.530   4.796  17.348  0.00  0.00    +0.000 A 
ATOM     20  C   UNL     1      49.227   4.526  16.909  0.00  0.00    +0.000 A 
ATOM     21  C   UNL     1      48.865   3.186  16.721  0.00  0.00    +0.000 A 
ATOM     22  C   UNL     1      49.770   2.146  16.975  0.00  0.00    +0.000 A 
BRANCH  17  24
ATOM     23  N   UNL     1      51.461   0.157  18.200  0.00  0.00    +0.000 N 
ATOM     24  C   UNL     1      51.994   1.316  17.708  0.00  0.00    +0.000 C 
ATOM     25  O   UNL     1      53.190   1.408  17.461  0.00  0.00    +0.000 OA
ATOM     26  H   UNL     1      52.090  -0.630  18.272  0.00  0.00    +0.000 HD
ATOM     27  H   UNL     1      50.469  -0.037  18.168  0.00  0.00    +0.000 HD
ENDBRANCH  17  24
ENDBRANCH  15  20
ENDBRANCH   1  15
TORSDOF 5
ENDMDL
MODEL 9
REMARK VINA RESULT:    -6.462      4.667      7.951
REMARK INTER + INTRA:          -9.168
REMARK INTER:                  -8.644
REMARK INTRA:                  -0.525
REMARK UNBOUND:                -0.818
REMARK  Name = 
REMARK  5 active torsions:
REMARK  status: ('A' for Active; 'I' for Inactive)
REMARK    1  A    between atoms: C_2  and  C_4
REMARK    2  A    between atoms: C_7  and  N_8
REMARK    3  A    between atoms: N_8  and  C_9
REMARK    4  A    between atoms: C_9  and  C_10
REMARK    5  A    between atoms: C_12  and  C_13
REMARK                            x       y       z     vdW  Elec       q    Type
REMARK                         _______ _______ _______ _____ _____    ______ ____
ROOT
ATOM      1  C   UNL     1      48.399   7.580  13.492  0.00  0.00    +0.000 C 
ENDROOT
BRANCH   1   2
ATOM      2  C   UNL     1      47.079   7.433  12.764  0.00  0.00    +0.000 A 
ATOM      3  C   UNL     1      46.823   6.310  11.973  0.00  0.00    +0.000 A 
ATOM      4  C   UNL     1      45.617   6.206  11.265  0.00  0.00    +0.000 A 
ATOM      5  C   UNL     1      44.720   7.276  11.390  0.00  0.00    +0.000 A 
ATOM      6  C   UNL     1      45.047   8.356  12.191  0.00  0.00    +0.000 A 
ATOM      7  N   UNL     1      46.197   8.455  12.880  0.00  0.00    +0.000 NA
BRANCH   4   8
ATOM      8  C   UNL     1      45.291   5.020  10.438  0.00  0.00    +0.000 A 
ATOM      9  C   UNL     1      44.547   3.941  10.958  0.00  0.00    +0.000 A 
ATOM     10  C   UNL     1      44.202   2.837  10.169  0.00  0.00    +0.000 A 
ATOM     11  C   UNL     1      44.589   2.789   8.835  0.00  0.00    +0.000 A 
ATOM     12  C   UNL     1      45.329   3.836   8.308  0.00  0.00    +0.000 A 
ATOM     13  F   UNL     1      45.701   3.799   7.022  0.00  0.00    +0.000 F 
ATOM     14  C   UNL     1      45.686   4.931   9.091  0.00  0.00    +0.000 A 
ENDBRANCH   4   8
ENDBRANCH   1   2
BRANCH   1  15
ATOM     15  N   UNL     1      48.233   7.591  14.945  0.00  0.00    +0.000 N 
ATOM     16  H   UNL     1      48.353   8.523  15.339  0.00  0.00    +0.000 HD
BRANCH  15  20
ATOM     17  C   UNL     1      50.345   4.825  17.345  0.00  0.00    +0.000 A 
ATOM     18  C   UNL     1      48.994   4.606  17.072  0.00  0.00    +0.000 A 
ATOM     19  C   UNL     1      48.284   5.510  16.274  0.00  0.00    +0.000 A 
ATOM     20  C   UNL     1      48.907   6.631  15.709  0.00  0.00    +0.000 A 
ATOM     21  C   UNL     1      50.260   6.842  16.001  0.00  0.00    +0.000 A 
ATOM     22  C   UNL     1      50.975   5.956  16.821  0.00  0.00    +0.000 A 
BRANCH  17  24
ATOM     23  N   UNL     1      50.959   2.563  17.993  0.00  0.00    +0.000 N 
ATOM     24  C   UNL     1      51.121   3.903  18.210  0.00  0.00    +0.000 C 
ATOM     25  O   UNL     1      51.902   4.317  19.058  0.00  0.00    +0.000 OA
ATOM     26  H   UNL     1      51.570   1.948  18.512  0.00  0.00    +0.000 HD
ATOM     27  H   UNL     1      50.533   2.200  17.151  0.00  0.00    +0.000 HD
ENDBRANCH  17  24
ENDBRANCH  15  20
ENDBRANCH   1  15
TORSDOF 5
ENDMDL
