MODEL 1
REMARK VINA RESULT:    -8.050      0.000      0.000
REMARK INTER + INTRA:         -10.007
REMARK INTER:                  -9.462
REMARK INTRA:                  -0.545
REMARK UNBOUND:                -0.545
REMARK  Name = 
REMARK  3 active torsions:
REMARK  status: ('A' for Active; 'I' for Inactive)
REMARK    1  A    between atoms: C_2  and  C_4
REMARK    2  A    between atoms: C_7  and  C_8
REMARK    3  A    between atoms: C_8  and  N_9
REMARK                            x       y       z     vdW  Elec       q    Type
REMARK                         _______ _______ _______ _____ _____    ______ ____
ROOT
ATOM      1  C   UNL     1      46.467   2.544   7.693  0.00  0.00    +0.000 A 
ATOM      2  C   UNL     1      46.413   3.943   7.705  0.00  0.00    +0.000 A 
ATOM      3  C   UNL     1      45.571   4.604   8.607  0.00  0.00    +0.000 A 
ATOM      4  C   UNL     1      44.772   3.879   9.505  0.00  0.00    +0.000 A 
ATOM      5  C   UNL     1      44.823   2.478   9.475  0.00  0.00    +0.000 A 
ATOM      6  C   UNL     1      45.660   1.815   8.573  0.00  0.00    +0.000 A 
ENDROOT
BRANCH   1   8
ATOM      7  N   UNL     1      48.381   2.483   6.185  0.00  0.00    +0.000 N 
ATOM      8  C   UNL     1      47.342   1.798   6.751  0.00  0.00    +0.000 C 
ATOM      9  O   UNL     1      47.170   0.608   6.518  0.00  0.00    +0.000 OA
ATOM     10  H   UNL     1      49.027   1.933   5.634  0.00  0.00    +0.000 HD
ATOM     11  H   UNL     1      48.705   3.370   6.542  0.00  0.00    +0.000 HD
ENDBRANCH   1   8
BRANCH   4  12
ATOM     12  C   UNL     1      43.871   4.589  10.484  0.00  0.00    +0.000 C 
BRANCH  12  13
ATOM     13  N   UNL     1      44.610   5.192  11.588  0.00  0.00    +0.000 N 
ATOM     14  C   UNL     1      45.315   4.475  12.530  0.00  0.00    +0.000 A 
ATOM     15  C   UNL     1      45.993   5.367  13.329  0.00  0.00    +0.000 A 
ATOM     16  C   UNL     1      45.701   6.666  12.855  0.00  0.00    +0.000 A 
ATOM     17  N   UNL     1      46.165   7.855  13.311  0.00  0.00    +0.000 NA
ATOM     18  C   UNL     1      45.714   8.933  12.640  0.00  0.00    +0.000 A 
ATOM     19  C   UNL     1      44.838   8.907  11.566  0.00  0.00    +0.000 A 
ATOM     20  C   UNL     1      44.367   7.681  11.102  0.00  0.00    +0.000 A 
ATOM     21  C   UNL     1      44.827   6.543  11.773  0.00  0.00    +0.000 A 
ENDBRANCH  12  13
ENDBRANCH   4  12
TORSDOF 3
ENDMDL
MODEL 2
REMARK VINA RESULT:    -7.970      0.868      2.284
REMARK INTER + INTRA:          -9.912
REMARK INTER:                  -9.474
REMARK INTRA:                  -0.438
REMARK UNBOUND:                -0.545
REMARK  Name = 
REMARK  3 active torsions:
REMARK  status: ('A' for Active; 'I' for Inactive)
REMARK    1  A    between atoms: C_2  and  C_4
REMARK    2  A    between atoms: C_7  and  C_8
REMARK    3  A    between atoms: C_8  and  N_9
REMARK                            x       y       z     vdW  Elec       q    Type
REMARK                         _______ _______ _______ _____ _____    ______ ____
ROOT
ATOM      1  C   UNL     1      46.434   2.347   7.744  0.00  0.00    +0.000 A 
ATOM      2  C   UNL     1      46.436   3.741   7.628  0.00  0.00    +0.000 A 
ATOM      3  C   UNL     1      45.610   4.515   8.451  0.00  0.00    +0.000 A 
ATOM      4  C   UNL     1      44.772   3.908   9.399  0.00  0.00    +0.000 A 
ATOM      5  C   UNL     1      44.766   2.509   9.498  0.00  0.00    +0.000 A 
ATOM      6  C   UNL     1      45.588   1.734   8.674  0.00  0.00    +0.000 A 
ENDROOT
BRANCH   1   8
ATOM      7  N   UNL     1      48.275   2.097   6.167  0.00  0.00    +0.000 N 
ATOM      8  C   UNL     1      47.289   1.483   6.889  0.00  0.00    +0.000 C 
ATOM      9  O   UNL     1      47.150   0.267   6.858  0.00  0.00    +0.000 OA
ATOM     10  H   UNL     1      48.914   1.484   5.678  0.00  0.00    +0.000 HD
ATOM     11  H   UNL     1      48.584   3.038   6.361  0.00  0.00    +0.000 HD
ENDBRANCH   1   8
BRANCH   4  12
ATOM     12  C   UNL     1      43.888   4.740  10.295  0.00  0.00    +0.000 C 
BRANCH  12  13
ATOM     13  N   UNL     1      44.651   5.539  11.247  0.00  0.00    +0.000 N 
ATOM     14  C   UNL     1      44.525   6.904  11.387  0.00  0.00    +0.000 A 
ATOM     15  C   UNL     1      45.287   7.298  12.463  0.00  0.00    +0.000 A 
ATOM     16  C   UNL     1      45.888   6.137  13.002  0.00  0.00    +0.000 A 
ATOM     17  N   UNL     1      46.700   6.031  14.082  0.00  0.00    +0.000 NA
ATOM     18  C   UNL     1      47.109   4.778  14.361  0.00  0.00    +0.000 A 
ATOM     19  C   UNL     1      46.775   3.641  13.642  0.00  0.00    +0.000 A 
ATOM     20  C   UNL     1      45.940   3.758  12.533  0.00  0.00    +0.000 A 
ATOM     21  C   UNL     1      45.490   5.046  12.226  0.00  0.00    +0.000 A 
ENDBRANCH  12  13
ENDBRANCH   4  12
TORSDOF 3
ENDMDL
MODEL 3
REMARK VINA RESULT:    -6.279      3.172      6.308
REMARK INTER + INTRA:          -7.924
REMARK INTER:                  -7.502
REMARK INTRA:                  -0.423
REMARK UNBOUND:                -0.545
REMARK  Name = 
REMARK  3 active torsions:
REMARK  status: ('A' for Active; 'I' for Inactive)
REMARK    1  A    between atoms: C_2  and  C_4
REMARK    2  A    between atoms: C_7  and  C_8
REMARK    3  A    between atoms: C_8  and  N_9
REMARK                            x       y       z     vdW  Elec       q    Type
REMARK                         _______ _______ _______ _____ _____    ______ ____
ROOT
ATOM      1  C   UNL     1      48.018   7.183  13.727  0.00  0.00    +0.000 A 
ATOM      2  C   UNL     1      47.243   8.213  13.183  0.00  0.00    +0.000 A 
ATOM      3  C   UNL     1      46.021   7.920  12.567  0.00  0.00    +0.000 A 
ATOM      4  C   UNL     1      45.558   6.597  12.486  0.00  0.00    +0.000 A 
ATOM      5  C   UNL     1      46.349   5.570  13.022  0.00  0.00    +0.000 A 
ATOM      6  C   UNL     1      47.572   5.861  13.633  0.00  0.00    +0.000 A 
ENDROOT
BRANCH   1   8
ATOM      7  N   UNL     1      49.926   8.646  14.130  0.00  0.00    +0.000 N 
ATOM      8  C   UNL     1      49.325   7.444  14.385  0.00  0.00    +0.000 C 
ATOM      9  O   UNL     1      49.830   6.639  15.157  0.00  0.00    +0.000 OA
ATOM     10  H   UNL     1      50.756   8.850  14.670  0.00  0.00    +0.000 HD
ATOM     11  H   UNL     1      49.430   9.423  13.719  0.00  0.00    +0.000 HD
ENDBRANCH   1   8
BRANCH   4  12
ATOM     12  C   UNL     1      44.236   6.279  11.832  0.00  0.00    +0.000 C 
BRANCH  12  13
ATOM     13  N   UNL     1      44.124   4.877  11.448  0.00  0.00    +0.000 N 
ATOM     14  C   UNL     1      43.391   3.941  12.146  0.00  0.00    +0.000 A 
ATOM     15  C   UNL     1      43.398   2.768  11.426  0.00  0.00    +0.000 A 
ATOM     16  C   UNL     1      44.148   2.998  10.250  0.00  0.00    +0.000 A 
ATOM     17  N   UNL     1      44.402   2.142   9.230  0.00  0.00    +0.000 NA
ATOM     18  C   UNL     1      45.144   2.659   8.230  0.00  0.00    +0.000 A 
ATOM     19  C   UNL     1      45.647   3.949   8.183  0.00  0.00    +0.000 A 
ATOM     20  C   UNL     1      45.381   4.823   9.234  0.00  0.00    +0.000 A 
ATOM     21  C   UNL     1      44.605   4.318  10.282  0.00  0.00    +0.000 A 
ENDBRANCH  12  13
ENDBRANCH   4  12
TORSDOF 3
ENDMDL
MODEL 4
REMARK VINA RESULT:    -5.950      1.366      2.213
REMARK INTER + INTRA:          -7.538
REMARK INTER:                  -7.039
REMARK INTRA:                  -0.499
REMARK UNBOUND:                -0.545
REMARK  Name = 
REMARK  3 active torsions:
REMARK  status: ('A' for Active; 'I' for Inactive)
REMARK    1  A    between atoms: C_2  and  C_4
REMARK    2  A    between atoms: C_7  and  C_8
REMARK    3  A    between atoms: C_8  and  N_9
REMARK                            x       y       z     vdW  Elec       q    Type
REMARK                         _______ _______ _______ _____ _____    ______ ____
ROOT
ATOM      1  C   UNL     1      45.441   3.063   8.966  0.00  0.00    +0.000 A 
ATOM      2  C   UNL     1      44.637   2.704  10.053  0.00  0.00    +0.000 A 
ATOM      3  C   UNL     1      44.117   3.692  10.897  0.00  0.00    +0.000 A 
ATOM      4  C   UNL     1      44.392   5.048  10.667  0.00  0.00    +0.000 A 
ATOM      5  C   UNL     1      45.211   5.397   9.583  0.00  0.00    +0.000 A 
ATOM      6  C   UNL     1      45.735   4.412   8.742  0.00  0.00    +0.000 A 
ENDROOT
BRANCH   1   8
ATOM      7  N   UNL     1      46.570   2.505   6.879  0.00  0.00    +0.000 N 
ATOM      8  C   UNL     1      46.021   2.050   8.046  0.00  0.00    +0.000 C 
ATOM      9  O   UNL     1      46.045   0.859   8.331  0.00  0.00    +0.000 OA
ATOM     10  H   UNL     1      47.055   1.817   6.318  0.00  0.00    +0.000 HD
ATOM     11  H   UNL     1      46.799   3.477   6.730  0.00  0.00    +0.000 HD
ENDBRANCH   1   8
BRANCH   4  12
ATOM     12  C   UNL     1      43.824   6.116  11.569  0.00  0.00    +0.000 C 
BRANCH  12  13
ATOM     13  N   UNL     1      44.854   6.991  12.119  0.00  0.00    +0.000 N 
ATOM     14  C   UNL     1      45.904   6.555  12.896  0.00  0.00    +0.000 A 
ATOM     15  C   UNL     1      46.746   7.621  13.118  0.00  0.00    +0.000 A 
ATOM     16  C   UNL     1      46.197   8.739  12.447  0.00  0.00    +0.000 A 
ATOM     17  N   UNL     1      46.692   9.997  12.361  0.00  0.00    +0.000 NA
ATOM     18  C   UNL     1      45.943  10.850  11.633  0.00  0.00    +0.000 A 
ATOM     19  C   UNL     1      44.749  10.540  11.003  0.00  0.00    +0.000 A 
ATOM     20  C   UNL     1      44.247   9.244  11.096  0.00  0.00    +0.000 A 
ATOM     21  C   UNL     1      45.008   8.333  11.835  0.00  0.00    +0.000 A 
ENDBRANCH  12  13
ENDBRANCH   4  12
TORSDOF 3
ENDMDL
MODEL 5
REMARK VINA RESULT:    -5.686      3.163      4.658
REMARK INTER + INTRA:          -7.228
REMARK INTER:                  -6.807
REMARK INTRA:                  -0.421
REMARK UNBOUND:                -0.545
REMARK  Name = 
REMARK  3 active torsions:
REMARK  status: ('A' for Active; 'I' for Inactive)
REMARK    1  A    between atoms: C_2  and  C_4
REMARK    2  A    between atoms: C_7  and  C_8
REMARK    3  A    between atoms: C_8  and  N_9
REMARK                            x       y       z     vdW  Elec       q    Type
REMARK                         _______ _______ _______ _____ _____    ______ ____
ROOT
ATOM      1  C   UNL     1      44.552   4.125  11.415  0.00  0.00    +0.000 A 
ATOM      2  C   UNL     1      44.880   5.163  10.536  0.00  0.00    +0.000 A 
ATOM      3  C   UNL     1      45.421   6.355  11.030  0.00  0.00    +0.000 A 
ATOM      4  C   UNL     1      45.640   6.527  12.406  0.00  0.00    +0.000 A 
ATOM      5  C   UNL     1      45.294   5.486  13.280  0.00  0.00    +0.000 A 
ATOM      6  C   UNL     1      44.751   4.296  12.789  0.00  0.00    +0.000 A 
ENDROOT
BRANCH   1   8
ATOM      7  N   UNL     1      44.596   2.222   9.891  0.00  0.00    +0.000 N 
ATOM      8  C   UNL     1      43.971   2.842  10.938  0.00  0.00    +0.000 C 
ATOM      9  O   UNL     1      42.998   2.335  11.480  0.00  0.00    +0.000 OA
ATOM     10  H   UNL     1      44.254   1.301   9.652  0.00  0.00    +0.000 HD
ATOM     11  H   UNL     1      45.529   2.468   9.595  0.00  0.00    +0.000 HD
ENDBRANCH   1   8
BRANCH   4  12
ATOM     12  C   UNL     1      46.232   7.807  12.940  0.00  0.00    +0.000 C 
BRANCH  12  13
ATOM     13  N   UNL     1      47.643   7.956  12.600  0.00  0.00    +0.000 N 
ATOM     14  C   UNL     1      48.565   6.935  12.666  0.00  0.00    +0.000 A 
ATOM     15  C   UNL     1      49.753   7.396  12.146  0.00  0.00    +0.000 A 
ATOM     16  C   UNL     1      49.546   8.735  11.742  0.00  0.00    +0.000 A 
ATOM     17  N   UNL     1      50.423   9.582  11.151  0.00  0.00    +0.000 NA
ATOM     18  C   UNL     1      49.926  10.803  10.869  0.00  0.00    +0.000 A 
ATOM     19  C   UNL     1      48.636  11.231  11.139  0.00  0.00    +0.000 A 
ATOM     20  C   UNL     1      47.741  10.354  11.747  0.00  0.00    +0.000 A 
ATOM     21  C   UNL     1      48.225   9.076  12.041  0.00  0.00    +0.000 A 
ENDBRANCH  12  13
ENDBRANCH   4  12
TORSDOF 3
ENDMDL
MODEL 6
REMARK VINA RESULT:    -5.655      2.522      3.808
REMARK INTER + INTRA:          -7.191
REMARK INTER:                  -6.810
REMARK INTRA:                  -0.381
REMARK UNBOUND:                -0.545
REMARK  Name = 
REMARK  3 active torsions:
REMARK  status: ('A' for Active; 'I' for Inactive)
REMARK    1  A    between atoms: C_2  and  C_4
REMARK    2  A    between atoms: C_7  and  C_8
REMARK    3  A    between atoms: C_8  and  N_9
REMARK                            x       y       z     vdW  Elec       q    Type
REMARK                         _______ _______ _______ _____ _____    ______ ____
ROOT
ATOM      1  C   UNL     1      44.985   3.731   9.961  0.00  0.00    +0.000 A 
ATOM      2  C   UNL     1      45.352   5.047   9.660  0.00  0.00    +0.000 A 
ATOM      3  C   UNL     1      45.692   5.933  10.690  0.00  0.00    +0.000 A 
ATOM      4  C   UNL     1      45.669   5.517  12.030  0.00  0.00    +0.000 A 
ATOM      5  C   UNL     1      45.286   4.199  12.322  0.00  0.00    +0.000 A 
ATOM      6  C   UNL     1      44.942   3.315  11.295  0.00  0.00    +0.000 A 
ENDROOT
BRANCH   1   8
ATOM      7  N   UNL     1      44.368   3.252   7.652  0.00  0.00    +0.000 N 
ATOM      8  C   UNL     1      44.612   2.756   8.903  0.00  0.00    +0.000 C 
ATOM      9  O   UNL     1      44.561   1.553   9.124  0.00  0.00    +0.000 OA
ATOM     10  H   UNL     1      44.223   2.566   6.923  0.00  0.00    +0.000 HD
ATOM     11  H   UNL     1      44.647   4.182   7.373  0.00  0.00    +0.000 HD
ENDBRANCH   1   8
BRANCH   4  12
ATOM     12  C   UNL     1      46.044   6.466  13.141  0.00  0.00    +0.000 C 
BRANCH  12  13
ATOM     13  N   UNL     1      46.456   7.774  12.644  0.00  0.00    +0.000 N 
ATOM     14  C   UNL     1      45.640   8.885  12.625  0.00  0.00    +0.000 A 
ATOM     15  C   UNL     1      46.395   9.964  12.225  0.00  0.00    +0.000 A 
ATOM     16  C   UNL     1      47.712   9.500  12.002  0.00  0.00    +0.000 A 
ATOM     17  N   UNL     1      48.803  10.208  11.625  0.00  0.00    +0.000 NA
ATOM     18  C   UNL     1      49.934   9.484  11.506  0.00  0.00    +0.000 A 
ATOM     19  C   UNL     1      50.046   8.120  11.727  0.00  0.00    +0.000 A 
ATOM     20  C   UNL     1      48.919   7.399  12.116  0.00  0.00    +0.000 A 
ATOM     21  C   UNL     1      47.733   8.126  12.258  0.00  0.00    +0.000 A 
ENDBRANCH  12  13
ENDBRANCH   4  12
TORSDOF 3
ENDMDL
MODEL 7
REMARK VINA RESULT:    -5.415      3.465      5.131
REMARK INTER + INTRA:          -6.909
REMARK INTER:                  -6.386
REMARK INTRA:                  -0.523
REMARK UNBOUND:                -0.545
REMARK  Name = 
REMARK  3 active torsions:
REMARK  status: ('A' for Active; 'I' for Inactive)
REMARK    1  A    between atoms: C_2  and  C_4
REMARK    2  A    between atoms: C_7  and  C_8
REMARK    3  A    between atoms: C_8  and  N_9
REMARK                            x       y       z     vdW  Elec       q    Type
REMARK                         _______ _______ _______ _____ _____    ______ ____
ROOT
ATOM      1  C   UNL     1      44.672   4.217  11.500  0.00  0.00    +0.000 A 
ATOM      2  C   UNL     1      44.408   5.457  10.909  0.00  0.00    +0.000 A 
ATOM      3  C   UNL     1      44.974   6.622  11.442  0.00  0.00    +0.000 A 
ATOM      4  C   UNL     1      45.808   6.563  12.569  0.00  0.00    +0.000 A 
ATOM      5  C   UNL     1      46.054   5.315  13.162  0.00  0.00    +0.000 A 
ATOM      6  C   UNL     1      45.487   4.152  12.634  0.00  0.00    +0.000 A 
ENDROOT
BRANCH   1   8
ATOM      7  N   UNL     1      44.787   2.305   9.992  0.00  0.00    +0.000 N 
ATOM      8  C   UNL     1      44.090   2.954  10.973  0.00  0.00    +0.000 C 
ATOM      9  O   UNL     1      43.051   2.487  11.422  0.00  0.00    +0.000 OA
ATOM     10  H   UNL     1      44.434   1.395   9.725  0.00  0.00    +0.000 HD
ATOM     11  H   UNL     1      45.753   2.513   9.785  0.00  0.00    +0.000 HD
ENDBRANCH   1   8
BRANCH   4  12
ATOM     12  C   UNL     1      46.427   7.814  13.139  0.00  0.00    +0.000 C 
BRANCH  12  13
ATOM     13  N   UNL     1      47.873   7.859  12.950  0.00  0.00    +0.000 N 
ATOM     14  C   UNL     1      48.488   8.240  11.777  0.00  0.00    +0.000 A 
ATOM     15  C   UNL     1      49.845   8.296  12.003  0.00  0.00    +0.000 A 
ATOM     16  C   UNL     1      50.063   7.950  13.357  0.00  0.00    +0.000 A 
ATOM     17  N   UNL     1      51.234   7.898  14.036  0.00  0.00    +0.000 NA
ATOM     18  C   UNL     1      51.121   7.545  15.332  0.00  0.00    +0.000 A 
ATOM     19  C   UNL     1      49.937   7.238  15.984  0.00  0.00    +0.000 A 
ATOM     20  C   UNL     1      48.737   7.295  15.279  0.00  0.00    +0.000 A 
ATOM     21  C   UNL     1      48.822   7.669  13.934  0.00  0.00    +0.000 A 
ENDBRANCH  12  13
ENDBRANCH   4  12
TORSDOF 3
ENDMDL
MODEL 8
REMARK VINA RESULT:    -5.409      4.191      5.953
REMARK INTER + INTRA:          -6.903
REMARK INTER:                  -6.335
REMARK INTRA:                  -0.567
REMARK UNBOUND:                -0.545
REMARK  Name = 
REMARK  3 active torsions:
REMARK  status: ('A' for Active; 'I' for Inactive)
REMARK    1  A    between atoms: C_2  and  C_4
REMARK    2  A    between atoms: C_7  and  C_8
REMARK    3  A    between atoms: C_8  and  N_9
REMARK                            x       y       z     vdW  Elec       q    Type
REMARK                         _______ _______ _______ _____ _____    ______ ____
ROOT
ATOM      1  C   UNL     1      44.446   5.504  12.003  0.00  0.00    +0.000 A 
ATOM      2  C   UNL     1      45.116   6.535  11.336  0.00  0.00    +0.000 A 
ATOM      3  C   UNL     1      46.434   6.854  11.683  0.00  0.00    +0.000 A 
ATOM      4  C   UNL     1      47.099   6.150  12.699  0.00  0.00    +0.000 A 
ATOM      5  C   UNL     1      46.413   5.127  13.371  0.00  0.00    +0.000 A 
ATOM      6  C   UNL     1      45.095   4.810  13.029  0.00  0.00    +0.000 A 
ENDROOT
BRANCH   1   8
ATOM      7  N   UNL     1      42.100   6.118  11.754  0.00  0.00    +0.000 N 
ATOM      8  C   UNL     1      43.045   5.132  11.674  0.00  0.00    +0.000 C 
ATOM      9  O   UNL     1      42.747   4.003  11.306  0.00  0.00    +0.000 OA
ATOM     10  H   UNL     1      41.176   5.875  11.422  0.00  0.00    +0.000 HD
ATOM     11  H   UNL     1      42.341   7.097  11.798  0.00  0.00    +0.000 HD
ENDBRANCH   1   8
BRANCH   4  12
ATOM     12  C   UNL     1      48.523   6.484  13.068  0.00  0.00    +0.000 C 
BRANCH  12  13
ATOM     13  N   UNL     1      48.607   7.455  14.153  0.00  0.00    +0.000 N 
ATOM     14  C   UNL     1      48.556   8.821  13.974  0.00  0.00    +0.000 A 
ATOM     15  C   UNL     1      48.524   9.415  15.215  0.00  0.00    +0.000 A 
ATOM     16  C   UNL     1      48.544   8.381  16.179  0.00  0.00    +0.000 A 
ATOM     17  N   UNL     1      48.498   8.486  17.529  0.00  0.00    +0.000 NA
ATOM     18  C   UNL     1      48.520   7.311  18.189  0.00  0.00    +0.000 A 
ATOM     19  C   UNL     1      48.593   6.057  17.602  0.00  0.00    +0.000 A 
ATOM     20  C   UNL     1      48.640   5.958  16.213  0.00  0.00    +0.000 A 
ATOM     21  C   UNL     1      48.607   7.161  15.501  0.00  0.00    +0.000 A 
ENDBRANCH  12  13
ENDBRANCH   4  12
TORSDOF 3
ENDMDL
MODEL 9
REMARK VINA RESULT:    -5.390      4.763      7.805
REMARK INTER + INTRA:          -6.880
REMARK INTER:                  -6.357
REMARK INTRA:                  -0.523
REMARK UNBOUND:                -0.545
REMARK  Name = 
REMARK  3 active torsions:
REMARK  status: ('A' for Active; 'I' for Inactive)
REMARK    1  A    between atoms: C_2  and  C_4
REMARK    2  A    between atoms: C_7  and  C_8
REMARK    3  A    between atoms: C_8  and  N_9
REMARK                            x       y       z     vdW  Elec       q    Type
REMARK                         _______ _______ _______ _____ _____    ______ ____
ROOT
ATOM      1  C   UNL     1      47.981   5.155  17.825  0.00  0.00    +0.000 A 
ATOM      2  C   UNL     1      48.668   6.158  17.132  0.00  0.00    +0.000 A 
ATOM      3  C   UNL     1      48.575   6.235  15.737  0.00  0.00    +0.000 A 
ATOM      4  C   UNL     1      47.799   5.313  15.018  0.00  0.00    +0.000 A 
ATOM      5  C   UNL     1      47.126   4.303  15.722  0.00  0.00    +0.000 A 
ATOM      6  C   UNL     1      47.220   4.222  17.114  0.00  0.00    +0.000 A 
ENDROOT
BRANCH   1   8
ATOM      7  N   UNL     1      48.602   3.884  19.810  0.00  0.00    +0.000 N 
ATOM      8  C   UNL     1      48.052   5.029  19.305  0.00  0.00    +0.000 C 
ATOM      9  O   UNL     1      47.674   5.927  20.047  0.00  0.00    +0.000 OA
ATOM     10  H   UNL     1      48.742   3.863  20.812  0.00  0.00    +0.000 HD
ATOM     11  H   UNL     1      49.150   3.251  19.247  0.00  0.00    +0.000 HD
ENDBRANCH   1   8
BRANCH   4  12
ATOM     12  C   UNL     1      47.689   5.400  13.516  0.00  0.00    +0.000 C 
BRANCH  12  13
ATOM     13  N   UNL     1      46.397   5.917  13.078  0.00  0.00    +0.000 N 
ATOM     14  C   UNL     1      46.108   7.257  12.941  0.00  0.00    +0.000 A 
ATOM     15  C   UNL     1      44.855   7.370  12.382  0.00  0.00    +0.000 A 
ATOM     16  C   UNL     1      44.371   6.060  12.162  0.00  0.00    +0.000 A 
ATOM     17  N   UNL     1      43.196   5.677  11.605  0.00  0.00    +0.000 NA
ATOM     18  C   UNL     1      43.020   4.344  11.517  0.00  0.00    +0.000 A 
ATOM     19  C   UNL     1      43.920   3.381  11.947  0.00  0.00    +0.000 A 
ATOM     20  C   UNL     1      45.126   3.783  12.517  0.00  0.00    +0.000 A 
ATOM     21  C   UNL     1      45.341   5.161  12.612  0.00  0.00    +0.000 A 
ENDBRANCH  12  13
ENDBRANCH   4  12
TORSDOF 3
ENDMDL
