MODEL 1
REMARK VINA RESULT:    -8.264      0.000      0.000
REMARK INTER + INTRA:         -11.470
REMARK INTER:                 -10.680
REMARK INTRA:                  -0.791
REMARK UNBOUND:                -0.791
REMARK  Name = 
REMARK  5 active torsions:
REMARK  status: ('A' for Active; 'I' for Inactive)
REMARK    1  A    between atoms: C_2  and  C_3
REMARK    2  A    between atoms: C_7  and  C_8
REMARK    3  A    between atoms: C_12  and  C_13
REMARK    4  A    between atoms: C_13  and  N_14
REMARK    5  A    between atoms: C_18  and  C_19
REMARK                            x       y       z     vdW  Elec       q    Type
REMARK                         _______ _______ _______ _____ _____    ______ ____
ROOT
ATOM      1  C   UNL     1      47.126   6.597  12.535  0.00  0.00    +0.000 A 
ATOM      2  C   UNL     1      47.483   5.847  13.666  0.00  0.00    +0.000 A 
ATOM      3  C   UNL     1      46.758   4.711  14.041  0.00  0.00    +0.000 A 
ATOM      4  C   UNL     1      45.655   4.295  13.293  0.00  0.00    +0.000 A 
ATOM      5  C   UNL     1      45.255   5.005  12.157  0.00  0.00    +0.000 A 
ATOM      6  C   UNL     1      46.020   6.139  11.798  0.00  0.00    +0.000 A 
ENDROOT
BRANCH   1  11
ATOM      7  C   UNL     1      49.894   8.975  11.433  0.00  0.00    +0.000 A 
ATOM      8  C   UNL     1      49.237  10.206  11.455  0.00  0.00    +0.000 A 
ATOM      9  C   UNL     1      47.896  10.264  11.818  0.00  0.00    +0.000 A 
ATOM     10  C   UNL     1      47.211   9.092  12.151  0.00  0.00    +0.000 A 
ATOM     11  C   UNL     1      47.845   7.834  12.142  0.00  0.00    +0.000 A 
ATOM     12  C   UNL     1      49.204   7.804  11.779  0.00  0.00    +0.000 A 
BRANCH   7  14
ATOM     13  N   UNL     1      52.398   8.854  10.773  0.00  0.00    +0.000 NA
ATOM     14  C   UNL     1      51.279   8.906  11.068  0.00  0.00    +0.000 C 
ENDBRANCH   7  14
ENDBRANCH   1  11
BRANCH   5  15
ATOM     15  C   UNL     1      44.044   4.615  11.313  0.00  0.00    +0.000 C 
ATOM     16  C   UNL     1      42.708   5.040  11.932  0.00  0.00    +0.000 C 
ATOM     17  C   UNL     1      43.035   3.593  11.799  0.00  0.00    +0.000 C 
BRANCH  15  18
ATOM     18  N   UNL     1      44.234   4.845   9.868  0.00  0.00    +0.000 N 
ATOM     19  C   UNL     1      45.109   4.093   9.076  0.00  0.00    +0.000 A 
ATOM     20  C   UNL     1      45.348   2.726   9.235  0.00  0.00    +0.000 A 
ATOM     21  N   UNL     1      46.161   1.992   8.426  0.00  0.00    +0.000 NA
ATOM     22  C   UNL     1      46.736   2.681   7.414  0.00  0.00    +0.000 A 
ATOM     23  C   UNL     1      46.501   4.032   7.232  0.00  0.00    +0.000 A 
ATOM     24  N   UNL     1      45.691   4.756   8.050  0.00  0.00    +0.000 NA
ATOM     25  H   UNL     1      44.365   5.815   9.582  0.00  0.00    +0.000 HD
BRANCH  22  26
ATOM     26  C   UNL     1      47.607   1.955   6.537  0.00  0.00    +0.000 C 
ATOM     27  N   UNL     1      48.336   1.407   5.819  0.00  0.00    +0.000 NA
ENDBRANCH  22  26
ENDBRANCH  15  18
ENDBRANCH   5  15
TORSDOF 5
ENDMDL
MODEL 2
REMARK VINA RESULT:    -7.800      2.926      4.763
REMARK INTER + INTRA:         -10.871
REMARK INTER:                 -10.217
REMARK INTRA:                  -0.654
REMARK UNBOUND:                -0.791
REMARK  Name = 
REMARK  5 active torsions:
REMARK  status: ('A' for Active; 'I' for Inactive)
REMARK    1  A    between atoms: C_2  and  C_3
REMARK    2  A    between atoms: C_7  and  C_8
REMARK    3  A    between atoms: C_12  and  C_13
REMARK    4  A    between atoms: C_13  and  N_14
REMARK    5  A    between atoms: C_18  and  C_19
REMARK                            x       y       z     vdW  Elec       q    Type
REMARK                         _______ _______ _______ _____ _____    ______ ____
ROOT
ATOM      1  C   UNL     1      47.049   5.153  14.404  0.00  0.00    +0.000 A 
ATOM      2  C   UNL     1      47.771   6.220  13.847  0.00  0.00    +0.000 A 
ATOM      3  C   UNL     1      47.358   6.834  12.659  0.00  0.00    +0.000 A 
ATOM      4  C   UNL     1      46.210   6.394  11.996  0.00  0.00    +0.000 A 
ATOM      5  C   UNL     1      45.453   5.335  12.506  0.00  0.00    +0.000 A 
ATOM      6  C   UNL     1      45.891   4.750  13.717  0.00  0.00    +0.000 A 
ENDROOT
BRANCH   1  11
ATOM      7  C   UNL     1      48.040   4.474  18.021  0.00  0.00    +0.000 A 
ATOM      8  C   UNL     1      48.397   3.127  17.971  0.00  0.00    +0.000 A 
ATOM      9  C   UNL     1      48.309   2.436  16.767  0.00  0.00    +0.000 A 
ATOM     10  C   UNL     1      47.856   3.091  15.618  0.00  0.00    +0.000 A 
ATOM     11  C   UNL     1      47.490   4.451  15.633  0.00  0.00    +0.000 A 
ATOM     12  C   UNL     1      47.597   5.128  16.862  0.00  0.00    +0.000 A 
BRANCH   7  14
ATOM     13  N   UNL     1      48.208   5.785  20.251  0.00  0.00    +0.000 NA
ATOM     14  C   UNL     1      48.134   5.198  19.256  0.00  0.00    +0.000 C 
ENDBRANCH   7  14
ENDBRANCH   1  11
BRANCH   5  15
ATOM     15  C   UNL     1      44.204   4.794  11.815  0.00  0.00    +0.000 C 
ATOM     16  C   UNL     1      42.904   5.144  12.547  0.00  0.00    +0.000 C 
ATOM     17  C   UNL     1      43.343   3.723  12.456  0.00  0.00    +0.000 C 
BRANCH  15  18
ATOM     18  N   UNL     1      44.228   4.950  10.348  0.00  0.00    +0.000 N 
ATOM     19  C   UNL     1      45.003   4.149   9.500  0.00  0.00    +0.000 A 
ATOM     20  C   UNL     1      45.250   2.789   9.701  0.00  0.00    +0.000 A 
ATOM     21  N   UNL     1      45.961   2.006   8.843  0.00  0.00    +0.000 NA
ATOM     22  C   UNL     1      46.420   2.637   7.738  0.00  0.00    +0.000 A 
ATOM     23  C   UNL     1      46.173   3.979   7.515  0.00  0.00    +0.000 A 
ATOM     24  N   UNL     1      45.467   4.753   8.383  0.00  0.00    +0.000 NA
ATOM     25  H   UNL     1      44.331   5.902  10.000  0.00  0.00    +0.000 HD
BRANCH  22  26
ATOM     26  C   UNL     1      47.181   1.858   6.805  0.00  0.00    +0.000 C 
ATOM     27  N   UNL     1      47.834   1.254   6.059  0.00  0.00    +0.000 NA
ENDBRANCH  22  26
ENDBRANCH  15  18
ENDBRANCH   5  15
TORSDOF 5
ENDMDL
MODEL 3
REMARK VINA RESULT:    -7.718      1.706      1.915
REMARK INTER + INTRA:         -10.764
REMARK INTER:                  -9.927
REMARK INTRA:                  -0.837
REMARK UNBOUND:                -0.791
REMARK  Name = 
REMARK  5 active torsions:
REMARK  status: ('A' for Active; 'I' for Inactive)
REMARK    1  A    between atoms: C_2  and  C_3
REMARK    2  A    between atoms: C_7  and  C_8
REMARK    3  A    between atoms: C_12  and  C_13
REMARK    4  A    between atoms: C_13  and  N_14
REMARK    5  A    between atoms: C_18  and  C_19
REMARK                            x       y       z     vdW  Elec       q    Type
REMARK                         _______ _______ _______ _____ _____    ______ ____
ROOT
ATOM      1  C   UNL     1      47.145   6.439  13.048  0.00  0.00    +0.000 A 
ATOM      2  C   UNL     1      47.496   5.428  13.956  0.00  0.00    +0.000 A 
ATOM      3  C   UNL     1      46.779   4.228  14.019  0.00  0.00    +0.000 A 
ATOM      4  C   UNL     1      45.689   4.009  13.174  0.00  0.00    +0.000 A 
ATOM      5  C   UNL     1      45.295   4.982  12.250  0.00  0.00    +0.000 A 
ATOM      6  C   UNL     1      46.053   6.175  12.203  0.00  0.00    +0.000 A 
ENDROOT
BRANCH   1  11
ATOM      7  C   UNL     1      48.764   9.721  14.113  0.00  0.00    +0.000 A 
ATOM      8  C   UNL     1      49.152  10.259  12.886  0.00  0.00    +0.000 A 
ATOM      9  C   UNL     1      48.898   9.554  11.715  0.00  0.00    +0.000 A 
ATOM     10  C   UNL     1      48.263   8.310  11.772  0.00  0.00    +0.000 A 
ATOM     11  C   UNL     1      47.854   7.740  12.994  0.00  0.00    +0.000 A 
ATOM     12  C   UNL     1      48.117   8.477  14.163  0.00  0.00    +0.000 A 
BRANCH   7  14
ATOM     13  N   UNL     1      49.217  11.023  16.309  0.00  0.00    +0.000 NA
ATOM     14  C   UNL     1      49.016  10.443  15.327  0.00  0.00    +0.000 C 
ENDBRANCH   7  14
ENDBRANCH   1  11
BRANCH   5  15
ATOM     15  C   UNL     1      44.099   4.811  11.318  0.00  0.00    +0.000 C 
ATOM     16  C   UNL     1      42.794   5.373  11.892  0.00  0.00    +0.000 C 
ATOM     17  C   UNL     1      42.937   3.906  11.676  0.00  0.00    +0.000 C 
BRANCH  15  18
ATOM     18  N   UNL     1      44.407   5.102   9.904  0.00  0.00    +0.000 N 
ATOM     19  C   UNL     1      45.232   4.294   9.113  0.00  0.00    +0.000 A 
ATOM     20  C   UNL     1      45.291   2.900   9.192  0.00  0.00    +0.000 A 
ATOM     21  N   UNL     1      46.057   2.120   8.382  0.00  0.00    +0.000 NA
ATOM     22  C   UNL     1      46.776   2.790   7.452  0.00  0.00    +0.000 A 
ATOM     23  C   UNL     1      46.720   4.168   7.349  0.00  0.00    +0.000 A 
ATOM     24  N   UNL     1      45.955   4.939   8.169  0.00  0.00    +0.000 NA
ATOM     25  H   UNL     1      44.674   6.062   9.692  0.00  0.00    +0.000 HD
BRANCH  22  26
ATOM     26  C   UNL     1      47.605   2.014   6.578  0.00  0.00    +0.000 C 
ATOM     27  N   UNL     1      48.275   1.420   5.838  0.00  0.00    +0.000 NA
ENDBRANCH  22  26
ENDBRANCH  15  18
ENDBRANCH   5  15
TORSDOF 5
ENDMDL
MODEL 4
REMARK VINA RESULT:    -6.788      2.713      4.081
REMARK INTER + INTRA:          -9.563
REMARK INTER:                  -9.059
REMARK INTRA:                  -0.504
REMARK UNBOUND:                -0.791
REMARK  Name = 
REMARK  5 active torsions:
REMARK  status: ('A' for Active; 'I' for Inactive)
REMARK    1  A    between atoms: C_2  and  C_3
REMARK    2  A    between atoms: C_7  and  C_8
REMARK    3  A    between atoms: C_12  and  C_13
REMARK    4  A    between atoms: C_13  and  N_14
REMARK    5  A    between atoms: C_18  and  C_19
REMARK                            x       y       z     vdW  Elec       q    Type
REMARK                         _______ _______ _______ _____ _____    ______ ____
ROOT
ATOM      1  C   UNL     1      47.380   6.885  13.883  0.00  0.00    +0.000 A 
ATOM      2  C   UNL     1      47.488   8.140  13.265  0.00  0.00    +0.000 A 
ATOM      3  C   UNL     1      46.623   8.519  12.233  0.00  0.00    +0.000 A 
ATOM      4  C   UNL     1      45.624   7.648  11.791  0.00  0.00    +0.000 A 
ATOM      5  C   UNL     1      45.471   6.385  12.370  0.00  0.00    +0.000 A 
ATOM      6  C   UNL     1      46.352   6.043  13.422  0.00  0.00    +0.000 A 
ENDROOT
BRANCH   1  11
ATOM      7  C   UNL     1      48.861   4.955  16.817  0.00  0.00    +0.000 A 
ATOM      8  C   UNL     1      50.071   5.623  17.015  0.00  0.00    +0.000 A 
ATOM      9  C   UNL     1      50.410   6.691  16.193  0.00  0.00    +0.000 A 
ATOM     10  C   UNL     1      49.544   7.087  15.169  0.00  0.00    +0.000 A 
ATOM     11  C   UNL     1      48.314   6.437  14.944  0.00  0.00    +0.000 A 
ATOM     12  C   UNL     1      47.992   5.364  15.795  0.00  0.00    +0.000 A 
BRANCH   7  14
ATOM     13  N   UNL     1      48.203   2.972  18.351  0.00  0.00    +0.000 NA
ATOM     14  C   UNL     1      48.499   3.856  17.665  0.00  0.00    +0.000 C 
ENDBRANCH   7  14
ENDBRANCH   1  11
BRANCH   5  15
ATOM     15  C   UNL     1      44.415   5.381  11.914  0.00  0.00    +0.000 C 
ATOM     16  C   UNL     1      43.119   5.449  12.727  0.00  0.00    +0.000 C 
ATOM     17  C   UNL     1      43.976   4.233  12.802  0.00  0.00    +0.000 C 
BRANCH  15  18
ATOM     18  N   UNL     1      44.299   5.274  10.447  0.00  0.00    +0.000 N 
ATOM     19  C   UNL     1      44.926   4.274   9.695  0.00  0.00    +0.000 A 
ATOM     20  C   UNL     1      45.100   2.954  10.117  0.00  0.00    +0.000 A 
ATOM     21  N   UNL     1      45.663   1.975   9.357  0.00  0.00    +0.000 NA
ATOM     22  C   UNL     1      46.049   2.360   8.119  0.00  0.00    +0.000 A 
ATOM     23  C   UNL     1      45.872   3.659   7.677  0.00  0.00    +0.000 A 
ATOM     24  N   UNL     1      45.313   4.631   8.448  0.00  0.00    +0.000 NA
ATOM     25  H   UNL     1      44.430   6.138   9.922  0.00  0.00    +0.000 HD
BRANCH  22  26
ATOM     26  C   UNL     1      46.655   1.368   7.281  0.00  0.00    +0.000 C 
ATOM     27  N   UNL     1      47.148   0.536   6.639  0.00  0.00    +0.000 NA
ENDBRANCH  22  26
ENDBRANCH  15  18
ENDBRANCH   5  15
TORSDOF 5
ENDMDL
MODEL 5
REMARK VINA RESULT:    -6.551      3.461      7.915
REMARK INTER + INTRA:          -9.256
REMARK INTER:                  -8.386
REMARK INTRA:                  -0.870
REMARK UNBOUND:                -0.791
REMARK  Name = 
REMARK  5 active torsions:
REMARK  status: ('A' for Active; 'I' for Inactive)
REMARK    1  A    between atoms: C_2  and  C_3
REMARK    2  A    between atoms: C_7  and  C_8
REMARK    3  A    between atoms: C_12  and  C_13
REMARK    4  A    between atoms: C_13  and  N_14
REMARK    5  A    between atoms: C_18  and  C_19
REMARK                            x       y       z     vdW  Elec       q    Type
REMARK                         _______ _______ _______ _____ _____    ______ ____
ROOT
ATOM      1  C   UNL     1      45.752   6.815  11.408  0.00  0.00    +0.000 A 
ATOM      2  C   UNL     1      44.837   7.816  11.769  0.00  0.00    +0.000 A 
ATOM      3  C   UNL     1      45.262   9.008  12.364  0.00  0.00    +0.000 A 
ATOM      4  C   UNL     1      46.619   9.231  12.612  0.00  0.00    +0.000 A 
ATOM      5  C   UNL     1      47.574   8.268  12.272  0.00  0.00    +0.000 A 
ATOM      6  C   UNL     1      47.109   7.082  11.658  0.00  0.00    +0.000 A 
ENDROOT
BRANCH   1  11
ATOM      7  C   UNL     1      45.301   3.925   8.964  0.00  0.00    +0.000 A 
ATOM      8  C   UNL     1      44.455   3.077   9.679  0.00  0.00    +0.000 A 
ATOM      9  C   UNL     1      44.038   3.437  10.955  0.00  0.00    +0.000 A 
ATOM     10  C   UNL     1      44.473   4.640  11.519  0.00  0.00    +0.000 A 
ATOM     11  C   UNL     1      45.325   5.521  10.823  0.00  0.00    +0.000 A 
ATOM     12  C   UNL     1      45.725   5.136   9.531  0.00  0.00    +0.000 A 
BRANCH   7  14
ATOM     13  N   UNL     1      46.083   3.278   6.578  0.00  0.00    +0.000 NA
ATOM     14  C   UNL     1      45.731   3.566   7.643  0.00  0.00    +0.000 C 
ENDBRANCH   7  14
ENDBRANCH   1  11
BRANCH   5  15
ATOM     15  C   UNL     1      49.067   8.444  12.541  0.00  0.00    +0.000 C 
ATOM     16  C   UNL     1      49.804   9.184  11.420  0.00  0.00    +0.000 C 
ATOM     17  C   UNL     1      50.112   7.752  11.689  0.00  0.00    +0.000 C 
BRANCH  15  18
ATOM     18  N   UNL     1      49.374   8.825  13.933  0.00  0.00    +0.000 N 
ATOM     19  C   UNL     1      49.113   8.001  15.034  0.00  0.00    +0.000 A 
ATOM     20  C   UNL     1      49.235   6.609  15.030  0.00  0.00    +0.000 A 
ATOM     21  N   UNL     1      49.032   5.820  16.120  0.00  0.00    +0.000 NA
ATOM     22  C   UNL     1      48.706   6.482  17.254  0.00  0.00    +0.000 A 
ATOM     23  C   UNL     1      48.594   7.860  17.281  0.00  0.00    +0.000 A 
ATOM     24  N   UNL     1      48.794   8.638  16.183  0.00  0.00    +0.000 NA
ATOM     25  H   UNL     1      49.087   9.762  14.214  0.00  0.00    +0.000 HD
BRANCH  22  26
ATOM     26  C   UNL     1      48.474   5.696  18.430  0.00  0.00    +0.000 C 
ATOM     27  N   UNL     1      48.250   5.039  19.361  0.00  0.00    +0.000 NA
ENDBRANCH  22  26
ENDBRANCH  15  18
ENDBRANCH   5  15
TORSDOF 5
ENDMDL
MODEL 6
REMARK VINA RESULT:    -6.452      4.288      7.753
REMARK INTER + INTRA:          -9.128
REMARK INTER:                  -8.308
REMARK INTRA:                  -0.820
REMARK UNBOUND:                -0.791
REMARK  Name = 
REMARK  5 active torsions:
REMARK  status: ('A' for Active; 'I' for Inactive)
REMARK    1  A    between atoms: C_2  and  C_3
REMARK    2  A    between atoms: C_7  and  C_8
REMARK    3  A    between atoms: C_12  and  C_13
REMARK    4  A    between atoms: C_13  and  N_14
REMARK    5  A    between atoms: C_18  and  C_19
REMARK                            x       y       z     vdW  Elec       q    Type
REMARK                         _______ _______ _______ _____ _____    ______ ____
ROOT
ATOM      1  C   UNL     1      47.340   6.869  12.620  0.00  0.00    +0.000 A 
ATOM      2  C   UNL     1      48.365   7.295  11.762  0.00  0.00    +0.000 A 
ATOM      3  C   UNL     1      49.496   7.955  12.255  0.00  0.00    +0.000 A 
ATOM      4  C   UNL     1      49.630   8.207  13.622  0.00  0.00    +0.000 A 
ATOM      5  C   UNL     1      48.639   7.804  14.522  0.00  0.00    +0.000 A 
ATOM      6  C   UNL     1      47.518   7.125  13.991  0.00  0.00    +0.000 A 
ENDROOT
BRANCH   1  11
ATOM      7  C   UNL     1      44.890   5.019  10.361  0.00  0.00    +0.000 A 
ATOM      8  C   UNL     1      43.732   5.015  11.139  0.00  0.00    +0.000 A 
ATOM      9  C   UNL     1      43.748   5.604  12.398  0.00  0.00    +0.000 A 
ATOM     10  C   UNL     1      44.922   6.188  12.882  0.00  0.00    +0.000 A 
ATOM     11  C   UNL     1      46.107   6.213  12.121  0.00  0.00    +0.000 A 
ATOM     12  C   UNL     1      46.062   5.617  10.847  0.00  0.00    +0.000 A 
BRANCH   7  14
ATOM     13  N   UNL     1      44.882   3.936   8.005  0.00  0.00    +0.000 NA
ATOM     14  C   UNL     1      44.883   4.421   9.057  0.00  0.00    +0.000 C 
ENDBRANCH   7  14
ENDBRANCH   1  11
BRANCH   5  15
ATOM     15  C   UNL     1      48.717   8.072  16.023  0.00  0.00    +0.000 C 
ATOM     16  C   UNL     1      48.270   9.484  16.413  0.00  0.00    +0.000 C 
ATOM     17  C   UNL     1      49.691   9.081  16.599  0.00  0.00    +0.000 C 
BRANCH  15  18
ATOM     18  N   UNL     1      48.235   6.948  16.848  0.00  0.00    +0.000 N 
ATOM     19  C   UNL     1      48.902   5.720  16.944  0.00  0.00    +0.000 A 
ATOM     20  C   UNL     1      50.291   5.569  16.944  0.00  0.00    +0.000 A 
ATOM     21  N   UNL     1      50.930   4.377  17.092  0.00  0.00    +0.000 NA
ATOM     22  C   UNL     1      50.119   3.307  17.257  0.00  0.00    +0.000 A 
ATOM     23  C   UNL     1      48.742   3.439  17.274  0.00  0.00    +0.000 A 
ATOM     24  N   UNL     1      48.114   4.635  17.120  0.00  0.00    +0.000 NA
ATOM     25  H   UNL     1      47.246   6.719  16.761  0.00  0.00    +0.000 HD
BRANCH  22  26
ATOM     26  C   UNL     1      50.743   2.026  17.410  0.00  0.00    +0.000 C 
ATOM     27  N   UNL     1      51.241   0.980  17.489  0.00  0.00    +0.000 NA
ENDBRANCH  22  26
ENDBRANCH  15  18
ENDBRANCH   5  15
TORSDOF 5
ENDMDL
MODEL 7
REMARK VINA RESULT:    -6.084      2.046      3.073
REMARK INTER + INTRA:          -8.653
REMARK INTER:                  -8.724
REMARK INTRA:                   0.071
REMARK UNBOUND:                -0.791
REMARK  Name = 
REMARK  5 active torsions:
REMARK  status: ('A' for Active; 'I' for Inactive)
REMARK    1  A    between atoms: C_2  and  C_3
REMARK    2  A    between atoms: C_7  and  C_8
REMARK    3  A    between atoms: C_12  and  C_13
REMARK    4  A    between atoms: C_13  and  N_14
REMARK    5  A    between atoms: C_18  and  C_19
REMARK                            x       y       z     vdW  Elec       q    Type
REMARK                         _______ _______ _______ _____ _____    ______ ____
ROOT
ATOM      1  C   UNL     1      47.087   7.292  13.477  0.00  0.00    +0.000 A 
ATOM      2  C   UNL     1      46.884   8.509  12.808  0.00  0.00    +0.000 A 
ATOM      3  C   UNL     1      45.815   8.680  11.922  0.00  0.00    +0.000 A 
ATOM      4  C   UNL     1      44.919   7.635  11.683  0.00  0.00    +0.000 A 
ATOM      5  C   UNL     1      45.074   6.401  12.322  0.00  0.00    +0.000 A 
ATOM      6  C   UNL     1      46.156   6.270  13.223  0.00  0.00    +0.000 A 
ENDROOT
BRANCH   1  11
ATOM      7  C   UNL     1      50.584   7.449  14.986  0.00  0.00    +0.000 A 
ATOM      8  C   UNL     1      50.464   6.584  16.073  0.00  0.00    +0.000 A 
ATOM      9  C   UNL     1      49.249   5.957  16.323  0.00  0.00    +0.000 A 
ATOM     10  C   UNL     1      48.152   6.201  15.491  0.00  0.00    +0.000 A 
ATOM     11  C   UNL     1      48.240   7.066  14.382  0.00  0.00    +0.000 A 
ATOM     12  C   UNL     1      49.484   7.681  14.147  0.00  0.00    +0.000 A 
BRANCH   7  14
ATOM     13  N   UNL     1      52.849   8.611  14.496  0.00  0.00    +0.000 NA
ATOM     14  C   UNL     1      51.836   8.095  14.715  0.00  0.00    +0.000 C 
ENDBRANCH   7  14
ENDBRANCH   1  11
BRANCH   5  15
ATOM     15  C   UNL     1      44.144   5.215  12.083  0.00  0.00    +0.000 C 
ATOM     16  C   UNL     1      42.823   5.604  11.410  0.00  0.00    +0.000 C 
ATOM     17  C   UNL     1      42.818   5.088  12.807  0.00  0.00    +0.000 C 
BRANCH  15  18
ATOM     18  N   UNL     1      44.839   4.012  11.585  0.00  0.00    +0.000 N 
ATOM     19  C   UNL     1      45.216   3.838  10.249  0.00  0.00    +0.000 A 
ATOM     20  C   UNL     1      45.668   4.860   9.412  0.00  0.00    +0.000 A 
ATOM     21  N   UNL     1      46.084   4.672   8.129  0.00  0.00    +0.000 NA
ATOM     22  C   UNL     1      46.047   3.390   7.697  0.00  0.00    +0.000 A 
ATOM     23  C   UNL     1      45.617   2.362   8.516  0.00  0.00    +0.000 A 
ATOM     24  N   UNL     1      45.198   2.564   9.794  0.00  0.00    +0.000 NA
ATOM     25  H   UNL     1      44.454   3.116  11.884  0.00  0.00    +0.000 HD
BRANCH  22  26
ATOM     26  C   UNL     1      46.469   3.138   6.351  0.00  0.00    +0.000 C 
ATOM     27  N   UNL     1      46.840   2.902   5.276  0.00  0.00    +0.000 NA
ENDBRANCH  22  26
ENDBRANCH  15  18
ENDBRANCH   5  15
TORSDOF 5
ENDMDL
MODEL 8
REMARK VINA RESULT:    -5.624      2.789      5.371
REMARK INTER + INTRA:          -8.059
REMARK INTER:                  -8.089
REMARK INTRA:                   0.030
REMARK UNBOUND:                -0.791
REMARK  Name = 
REMARK  5 active torsions:
REMARK  status: ('A' for Active; 'I' for Inactive)
REMARK    1  A    between atoms: C_2  and  C_3
REMARK    2  A    between atoms: C_7  and  C_8
REMARK    3  A    between atoms: C_12  and  C_13
REMARK    4  A    between atoms: C_13  and  N_14
REMARK    5  A    between atoms: C_18  and  C_19
REMARK                            x       y       z     vdW  Elec       q    Type
REMARK                         _______ _______ _______ _____ _____    ______ ____
ROOT
ATOM      1  C   UNL     1      48.556   7.936  13.954  0.00  0.00    +0.000 A 
ATOM      2  C   UNL     1      49.505   8.666  13.223  0.00  0.00    +0.000 A 
ATOM      3  C   UNL     1      49.122   9.511  12.176  0.00  0.00    +0.000 A 
ATOM      4  C   UNL     1      47.775   9.647  11.833  0.00  0.00    +0.000 A 
ATOM      5  C   UNL     1      46.787   8.943  12.527  0.00  0.00    +0.000 A 
ATOM      6  C   UNL     1      47.210   8.111  13.590  0.00  0.00    +0.000 A 
ENDROOT
BRANCH   1  11
ATOM      7  C   UNL     1      48.404   5.113  16.511  0.00  0.00    +0.000 A 
ATOM      8  C   UNL     1      49.640   5.236  17.146  0.00  0.00    +0.000 A 
ATOM      9  C   UNL     1      50.526   6.227  16.739  0.00  0.00    +0.000 A 
ATOM     10  C   UNL     1      50.179   7.089  15.694  0.00  0.00    +0.000 A 
ATOM     11  C   UNL     1      48.938   6.995  15.035  0.00  0.00    +0.000 A 
ATOM     12  C   UNL     1      48.057   5.988  15.471  0.00  0.00    +0.000 A 
BRANCH   7  14
ATOM     13  N   UNL     1      46.736   3.276  17.264  0.00  0.00    +0.000 NA
ATOM     14  C   UNL     1      47.479   4.099  16.928  0.00  0.00    +0.000 C 
ENDBRANCH   7  14
ENDBRANCH   1  11
BRANCH   5  15
ATOM     15  C   UNL     1      45.302   9.031  12.183  0.00  0.00    +0.000 C 
ATOM     16  C   UNL     1      45.029   9.711  10.839  0.00  0.00    +0.000 C 
ATOM     17  C   UNL     1      44.584  10.363  12.102  0.00  0.00    +0.000 C 
BRANCH  15  18
ATOM     18  N   UNL     1      44.552   7.798  12.493  0.00  0.00    +0.000 N 
ATOM     19  C   UNL     1      44.557   6.666  11.671  0.00  0.00    +0.000 A 
ATOM     20  C   UNL     1      45.663   6.215  10.946  0.00  0.00    +0.000 A 
ATOM     21  N   UNL     1      45.674   5.082  10.192  0.00  0.00    +0.000 NA
ATOM     22  C   UNL     1      44.516   4.383  10.191  0.00  0.00    +0.000 A 
ATOM     23  C   UNL     1      43.415   4.805  10.913  0.00  0.00    +0.000 A 
ATOM     24  N   UNL     1      43.414   5.942  11.659  0.00  0.00    +0.000 NA
ATOM     25  H   UNL     1      43.583   7.924  12.785  0.00  0.00    +0.000 HD
BRANCH  22  26
ATOM     26  C   UNL     1      44.473   3.185   9.405  0.00  0.00    +0.000 C 
ATOM     27  N   UNL     1      44.391   2.215   8.772  0.00  0.00    +0.000 NA
ENDBRANCH  22  26
ENDBRANCH  15  18
ENDBRANCH   5  15
TORSDOF 5
ENDMDL
MODEL 9
REMARK VINA RESULT:    -5.566      3.756      6.370
REMARK INTER + INTRA:          -7.983
REMARK INTER:                  -8.155
REMARK INTRA:                   0.172
REMARK UNBOUND:                -0.791
REMARK  Name = 
REMARK  5 active torsions:
REMARK  status: ('A' for Active; 'I' for Inactive)
REMARK    1  A    between atoms: C_2  and  C_3
REMARK    2  A    between atoms: C_7  and  C_8
REMARK    3  A    between atoms: C_12  and  C_13
REMARK    4  A    between atoms: C_13  and  N_14
REMARK    5  A    between atoms: C_18  and  C_19
REMARK                            x       y       z     vdW  Elec       q    Type
REMARK                         _______ _______ _______ _____ _____    ______ ____
ROOT
ATOM      1  C   UNL     1      48.753   6.636  16.155  0.00  0.00    +0.000 A 
ATOM      2  C   UNL     1      48.957   7.789  16.928  0.00  0.00    +0.000 A 
ATOM      3  C   UNL     1      48.726   9.065  16.403  0.00  0.00    +0.000 A 
ATOM      4  C   UNL     1      48.283   9.220  15.087  0.00  0.00    +0.000 A 
ATOM      5  C   UNL     1      48.064   8.105  14.272  0.00  0.00    +0.000 A 
ATOM      6  C   UNL     1      48.292   6.831  14.842  0.00  0.00    +0.000 A 
ENDROOT
BRANCH   1  11
ATOM      7  C   UNL     1      50.592   3.639  17.627  0.00  0.00    +0.000 A 
ATOM      8  C   UNL     1      49.606   2.654  17.590  0.00  0.00    +0.000 A 
ATOM      9  C   UNL     1      48.343   2.962  17.098  0.00  0.00    +0.000 A 
ATOM     10  C   UNL     1      48.065   4.257  16.649  0.00  0.00    +0.000 A 
ATOM     11  C   UNL     1      49.039   5.275  16.669  0.00  0.00    +0.000 A 
ATOM     12  C   UNL     1      50.311   4.934  17.165  0.00  0.00    +0.000 A 
BRANCH   7  14
ATOM     13  N   UNL     1      52.959   3.080  18.526  0.00  0.00    +0.000 NA
ATOM     14  C   UNL     1      51.901   3.330  18.127  0.00  0.00    +0.000 C 
ENDBRANCH   7  14
ENDBRANCH   1  11
BRANCH   5  15
ATOM     15  C   UNL     1      47.604   8.211  12.820  0.00  0.00    +0.000 C 
ATOM     16  C   UNL     1      48.523   7.480  11.837  0.00  0.00    +0.000 C 
ATOM     17  C   UNL     1      48.416   8.964  11.784  0.00  0.00    +0.000 C 
BRANCH  15  18
ATOM     18  N   UNL     1      46.148   8.047  12.649  0.00  0.00    +0.000 N 
ATOM     19  C   UNL     1      45.537   6.816  12.381  0.00  0.00    +0.000 A 
ATOM     20  C   UNL     1      45.957   5.590  12.905  0.00  0.00    +0.000 A 
ATOM     21  N   UNL     1      45.325   4.406  12.681  0.00  0.00    +0.000 NA
ATOM     22  C   UNL     1      44.218   4.484  11.906  0.00  0.00    +0.000 A 
ATOM     23  C   UNL     1      43.779   5.690  11.391  0.00  0.00    +0.000 A 
ATOM     24  N   UNL     1      44.423   6.867  11.616  0.00  0.00    +0.000 NA
ATOM     25  H   UNL     1      45.688   8.722  12.040  0.00  0.00    +0.000 HD
BRANCH  22  26
ATOM     26  C   UNL     1      43.519   3.263  11.634  0.00  0.00    +0.000 C 
ATOM     27  N   UNL     1      42.994   2.252  11.408  0.00  0.00    +0.000 NA
ENDBRANCH  22  26
ENDBRANCH  15  18
ENDBRANCH   5  15
TORSDOF 5
ENDMDL
