MODEL 1
REMARK VINA RESULT:    -7.701      0.000      0.000
REMARK INTER + INTRA:         -11.935
REMARK INTER:                 -11.078
REMARK INTRA:                  -0.857
REMARK UNBOUND:                -0.857
REMARK  Name = 
REMARK  8 active torsions:
REMARK  status: ('A' for Active; 'I' for Inactive)
REMARK    1  A    between atoms: N_1  and  C_2
REMARK    2  A    between atoms: C_2  and  C_3
REMARK    3  A    between atoms: C_3  and  N_4
REMARK    4  A    between atoms: N_4  and  C_5
REMARK    5  A    between atoms: C_5  and  C_6
REMARK    6  A    between atoms: C_10  and  C_11
REMARK    7  A    between atoms: C_11  and  N_12
REMARK    8  A    between atoms: C_13  and  C_15
REMARK                            x       y       z     vdW  Elec       q    Type
REMARK                         _______ _______ _______ _____ _____    ______ ____
ROOT
ATOM      1  C   UNL     1      46.265   6.616  12.165  0.00  0.00    +0.000 C 
ENDROOT
BRANCH   1   6
ATOM      2  C   UNL     1      44.836   4.067   9.703  0.00  0.00    +0.000 A 
ATOM      3  C   UNL     1      44.301   3.121  10.587  0.00  0.00    +0.000 A 
ATOM      4  C   UNL     1      44.318   3.348  11.963  0.00  0.00    +0.000 A 
ATOM      5  C   UNL     1      44.916   4.499  12.472  0.00  0.00    +0.000 A 
ATOM      6  C   UNL     1      45.521   5.428  11.614  0.00  0.00    +0.000 A 
ATOM      7  C   UNL     1      45.441   5.222  10.228  0.00  0.00    +0.000 A 
BRANCH   2   8
ATOM      8  C   UNL     1      44.883   3.791   8.221  0.00  0.00    +0.000 C 
BRANCH   8   9
ATOM      9  N   UNL     1      46.160   4.166   7.607  0.00  0.00    +0.000 NA
ATOM     10  H   UNL     1      46.026   5.066   7.143  0.00  0.00    +0.000 HD
BRANCH   9  11
ATOM     11  C   UNL     1      46.539   3.210   6.553  0.00  0.00    +0.000 C 
BRANCH  11  12
ATOM     12  C   UNL     1      47.805   2.387   6.879  0.00  0.00    +0.000 C 
BRANCH  12  13
ATOM     13  N   UNL     1      48.457   1.895   5.661  0.00  0.00    +0.000 NA
ATOM     14  H   UNL     1      49.152   1.194   5.915  0.00  0.00    +0.000 HD
ATOM     15  H   UNL     1      48.974   2.662   5.231  0.00  0.00    +0.000 HD
ENDBRANCH  12  13
ENDBRANCH  11  12
ENDBRANCH   9  11
ENDBRANCH   8   9
ENDBRANCH   2   8
ENDBRANCH   1   6
BRANCH   1  16
ATOM     16  N   UNL     1      46.669   6.416  13.528  0.00  0.00    +0.000 N 
ATOM     17  C   UNL     1      47.999   6.356  13.867  0.00  0.00    +0.000 C 
ATOM     18  O   UNL     1      48.892   6.506  13.040  0.00  0.00    +0.000 OA
ATOM     19  H   UNL     1      45.977   6.032  14.160  0.00  0.00    +0.000 HD
BRANCH  17  20
ATOM     20  C   UNL     1      48.299   6.181  15.294  0.00  0.00    +0.000 A 
ATOM     21  C   UNL     1      48.869   7.223  16.014  0.00  0.00    +0.000 A 
ATOM     22  S   UNL     1      49.091   6.865  17.666  0.00  0.00    +0.000 S 
ATOM     23  C   UNL     1      48.484   5.290  17.465  0.00  0.00    +0.000 A 
ATOM     24  N   UNL     1      48.429   4.423  18.512  0.00  0.00    +0.000 NA
ATOM     25  C   UNL     1      47.964   3.254  18.206  0.00  0.00    +0.000 A 
ATOM     26  N   UNL     1      47.559   2.873  16.958  0.00  0.00    +0.000 N 
ATOM     27  C   UNL     1      47.585   3.715  15.874  0.00  0.00    +0.000 A 
ATOM     28  O   UNL     1      47.195   3.352  14.769  0.00  0.00    +0.000 OA
ATOM     29  C   UNL     1      48.101   5.048  16.158  0.00  0.00    +0.000 A 
ATOM     30  H   UNL     1      47.204   1.945  16.783  0.00  0.00    +0.000 HD
ENDBRANCH  17  20
ENDBRANCH   1  16
TORSDOF 8
ENDMDL
MODEL 2
REMARK VINA RESULT:    -7.700      1.515      2.142
REMARK INTER + INTRA:         -11.932
REMARK INTER:                 -11.260
REMARK INTRA:                  -0.673
REMARK UNBOUND:                -0.857
REMARK  Name = 
REMARK  8 active torsions:
REMARK  status: ('A' for Active; 'I' for Inactive)
REMARK    1  A    between atoms: N_1  and  C_2
REMARK    2  A    between atoms: C_2  and  C_3
REMARK    3  A    between atoms: C_3  and  N_4
REMARK    4  A    between atoms: N_4  and  C_5
REMARK    5  A    between atoms: C_5  and  C_6
REMARK    6  A    between atoms: C_10  and  C_11
REMARK    7  A    between atoms: C_11  and  N_12
REMARK    8  A    between atoms: C_13  and  C_15
REMARK                            x       y       z     vdW  Elec       q    Type
REMARK                         _______ _______ _______ _____ _____    ______ ____
ROOT
ATOM      1  C   UNL     1      44.728   4.108  13.066  0.00  0.00    +0.000 C 
ENDROOT
BRANCH   1   6
ATOM      2  C   UNL     1      45.325   3.493   9.342  0.00  0.00    +0.000 A 
ATOM      3  C   UNL     1      45.675   4.781   8.917  0.00  0.00    +0.000 A 
ATOM      4  C   UNL     1      45.807   5.820   9.837  0.00  0.00    +0.000 A 
ATOM      5  C   UNL     1      45.542   5.592  11.187  0.00  0.00    +0.000 A 
ATOM      6  C   UNL     1      45.123   4.330  11.628  0.00  0.00    +0.000 A 
ATOM      7  C   UNL     1      45.055   3.276  10.704  0.00  0.00    +0.000 A 
BRANCH   2   8
ATOM      8  C   UNL     1      45.111   2.386   8.339  0.00  0.00    +0.000 C 
BRANCH   8   9
ATOM      9  N   UNL     1      45.995   1.236   8.557  0.00  0.00    +0.000 NA
ATOM     10  H   UNL     1      46.645   1.485   9.305  0.00  0.00    +0.000 HD
BRANCH   9  11
ATOM     11  C   UNL     1      46.818   0.970   7.365  0.00  0.00    +0.000 C 
BRANCH  11  12
ATOM     12  C   UNL     1      47.666   2.176   6.906  0.00  0.00    +0.000 C 
BRANCH  12  13
ATOM     13  N   UNL     1      48.550   1.821   5.793  0.00  0.00    +0.000 NA
ATOM     14  H   UNL     1      48.265   2.338   4.962  0.00  0.00    +0.000 HD
ATOM     15  H   UNL     1      48.420   0.834   5.570  0.00  0.00    +0.000 HD
ENDBRANCH  12  13
ENDBRANCH  11  12
ENDBRANCH   9  11
ENDBRANCH   8   9
ENDBRANCH   2   8
ENDBRANCH   1   6
BRANCH   1  16
ATOM     16  N   UNL     1      45.588   4.810  13.976  0.00  0.00    +0.000 N 
ATOM     17  C   UNL     1      46.773   4.255  14.396  0.00  0.00    +0.000 C 
ATOM     18  O   UNL     1      47.166   3.167  13.989  0.00  0.00    +0.000 OA
ATOM     19  H   UNL     1      45.171   5.559  14.516  0.00  0.00    +0.000 HD
BRANCH  17  20
ATOM     20  C   UNL     1      47.589   5.074  15.300  0.00  0.00    +0.000 A 
ATOM     21  C   UNL     1      48.270   6.180  14.809  0.00  0.00    +0.000 A 
ATOM     22  S   UNL     1      49.116   7.046  16.009  0.00  0.00    +0.000 S 
ATOM     23  C   UNL     1      48.647   5.944  17.215  0.00  0.00    +0.000 A 
ATOM     24  N   UNL     1      49.070   6.093  18.500  0.00  0.00    +0.000 NA
ATOM     25  C   UNL     1      48.651   5.167  19.304  0.00  0.00    +0.000 A 
ATOM     26  N   UNL     1      47.861   4.113  18.942  0.00  0.00    +0.000 N 
ATOM     27  C   UNL     1      47.400   3.927  17.662  0.00  0.00    +0.000 A 
ATOM     28  O   UNL     1      46.675   2.983  17.372  0.00  0.00    +0.000 OA
ATOM     29  C   UNL     1      47.841   4.940  16.711  0.00  0.00    +0.000 A 
ATOM     30  H   UNL     1      47.566   3.423  19.617  0.00  0.00    +0.000 HD
ENDBRANCH  17  20
ENDBRANCH   1  16
TORSDOF 8
ENDMDL
MODEL 3
REMARK VINA RESULT:    -7.033      3.715      8.112
REMARK INTER + INTRA:         -10.974
REMARK INTER:                 -10.279
REMARK INTRA:                  -0.696
REMARK UNBOUND:                -0.857
REMARK  Name = 
REMARK  8 active torsions:
REMARK  status: ('A' for Active; 'I' for Inactive)
REMARK    1  A    between atoms: N_1  and  C_2
REMARK    2  A    between atoms: C_2  and  C_3
REMARK    3  A    between atoms: C_3  and  N_4
REMARK    4  A    between atoms: N_4  and  C_5
REMARK    5  A    between atoms: C_5  and  C_6
REMARK    6  A    between atoms: C_10  and  C_11
REMARK    7  A    between atoms: C_11  and  N_12
REMARK    8  A    between atoms: C_13  and  C_15
REMARK                            x       y       z     vdW  Elec       q    Type
REMARK                         _______ _______ _______ _____ _____    ______ ____
ROOT
ATOM      1  C   UNL     1      47.180   3.470  16.775  0.00  0.00    +0.000 C 
ENDROOT
BRANCH   1   6
ATOM      2  C   UNL     1      50.822   2.523  17.437  0.00  0.00    +0.000 A 
ATOM      3  C   UNL     1      51.401   3.791  17.576  0.00  0.00    +0.000 A 
ATOM      4  C   UNL     1      50.610   4.939  17.548  0.00  0.00    +0.000 A 
ATOM      5  C   UNL     1      49.237   4.833  17.332  0.00  0.00    +0.000 A 
ATOM      6  C   UNL     1      48.643   3.581  17.120  0.00  0.00    +0.000 A 
ATOM      7  C   UNL     1      49.438   2.429  17.213  0.00  0.00    +0.000 A 
BRANCH   2   8
ATOM      8  C   UNL     1      51.685   1.287  17.394  0.00  0.00    +0.000 C 
BRANCH   8   9
ATOM      9  N   UNL     1      52.830   1.354  18.307  0.00  0.00    +0.000 NA
ATOM     10  H   UNL     1      53.359   2.197  18.075  0.00  0.00    +0.000 HD
BRANCH   9  11
ATOM     11  C   UNL     1      53.745   0.221  18.091  0.00  0.00    +0.000 C 
BRANCH  11  12
ATOM     12  C   UNL     1      54.502   0.272  16.745  0.00  0.00    +0.000 C 
BRANCH  12  13
ATOM     13  N   UNL     1      54.226  -0.911  15.927  0.00  0.00    +0.000 NA
ATOM     14  H   UNL     1      54.847  -0.909  15.118  0.00  0.00    +0.000 HD
ATOM     15  H   UNL     1      53.279  -0.843  15.556  0.00  0.00    +0.000 HD
ENDBRANCH  12  13
ENDBRANCH  11  12
ENDBRANCH   9  11
ENDBRANCH   8   9
ENDBRANCH   2   8
ENDBRANCH   1   6
BRANCH   1  16
ATOM     16  N   UNL     1      46.777   4.454  15.811  0.00  0.00    +0.000 N 
ATOM     17  C   UNL     1      46.837   4.186  14.464  0.00  0.00    +0.000 C 
ATOM     18  O   UNL     1      47.197   3.097  14.030  0.00  0.00    +0.000 OA
ATOM     19  H   UNL     1      46.738   5.417  16.125  0.00  0.00    +0.000 HD
BRANCH  17  20
ATOM     20  C   UNL     1      46.369   5.251  13.568  0.00  0.00    +0.000 A 
ATOM     21  C   UNL     1      47.195   6.332  13.288  0.00  0.00    +0.000 A 
ATOM     22  S   UNL     1      46.513   7.439  12.184  0.00  0.00    +0.000 S 
ATOM     23  C   UNL     1      45.073   6.541  12.086  0.00  0.00    +0.000 A 
ATOM     24  N   UNL     1      44.035   6.968  11.316  0.00  0.00    +0.000 NA
ATOM     25  C   UNL     1      42.996   6.194  11.355  0.00  0.00    +0.000 A 
ATOM     26  N   UNL     1      42.899   5.049  12.093  0.00  0.00    +0.000 N 
ATOM     27  C   UNL     1      43.922   4.573  12.875  0.00  0.00    +0.000 A 
ATOM     28  O   UNL     1      43.813   3.529  13.510  0.00  0.00    +0.000 OA
ATOM     29  C   UNL     1      45.120   5.404  12.872  0.00  0.00    +0.000 A 
ATOM     30  H   UNL     1      42.061   4.488  12.081  0.00  0.00    +0.000 HD
ENDBRANCH  17  20
ENDBRANCH   1  16
TORSDOF 8
ENDMDL
MODEL 4
REMARK VINA RESULT:    -6.926      2.105      3.080
REMARK INTER + INTRA:         -10.821
REMARK INTER:                 -10.140
REMARK INTRA:                  -0.681
REMARK UNBOUND:                -0.857
REMARK  Name = 
REMARK  8 active torsions:
REMARK  status: ('A' for Active; 'I' for Inactive)
REMARK    1  A    between atoms: N_1  and  C_2
REMARK    2  A    between atoms: C_2  and  C_3
REMARK    3  A    between atoms: C_3  and  N_4
REMARK    4  A    between atoms: N_4  and  C_5
REMARK    5  A    between atoms: C_5  and  C_6
REMARK    6  A    between atoms: C_10  and  C_11
REMARK    7  A    between atoms: C_11  and  N_12
REMARK    8  A    between atoms: C_13  and  C_15
REMARK                            x       y       z     vdW  Elec       q    Type
REMARK                         _______ _______ _______ _____ _____    ______ ____
ROOT
ATOM      1  C   UNL     1      46.219   3.932  14.433  0.00  0.00    +0.000 C 
ENDROOT
BRANCH   1   6
ATOM      2  C   UNL     1      44.931   4.960  10.985  0.00  0.00    +0.000 A 
ATOM      3  C   UNL     1      45.722   6.090  10.737  0.00  0.00    +0.000 A 
ATOM      4  C   UNL     1      46.724   6.464  11.631  0.00  0.00    +0.000 A 
ATOM      5  C   UNL     1      46.914   5.741  12.807  0.00  0.00    +0.000 A 
ATOM      6  C   UNL     1      46.091   4.648  13.113  0.00  0.00    +0.000 A 
ATOM      7  C   UNL     1      45.128   4.242  12.177  0.00  0.00    +0.000 A 
BRANCH   2   8
ATOM      8  C   UNL     1      43.800   4.597  10.056  0.00  0.00    +0.000 C 
BRANCH   8   9
ATOM      9  N   UNL     1      44.233   4.420   8.666  0.00  0.00    +0.000 NA
ATOM     10  H   UNL     1      43.395   4.284   8.098  0.00  0.00    +0.000 HD
BRANCH   9  11
ATOM     11  C   UNL     1      45.037   3.196   8.515  0.00  0.00    +0.000 C 
BRANCH  11  12
ATOM     12  C   UNL     1      45.946   3.193   7.266  0.00  0.00    +0.000 C 
BRANCH  12  13
ATOM     13  N   UNL     1      46.843   4.351   7.249  0.00  0.00    +0.000 NA
ATOM     14  H   UNL     1      47.774   4.048   6.964  0.00  0.00    +0.000 HD
ATOM     15  H   UNL     1      46.941   4.707   8.200  0.00  0.00    +0.000 HD
ENDBRANCH  12  13
ENDBRANCH  11  12
ENDBRANCH   9  11
ENDBRANCH   8   9
ENDBRANCH   2   8
ENDBRANCH   1   6
BRANCH   1  16
ATOM     16  N   UNL     1      47.321   4.425  15.210  0.00  0.00    +0.000 N 
ATOM     17  C   UNL     1      47.474   4.058  16.526  0.00  0.00    +0.000 C 
ATOM     18  O   UNL     1      46.710   3.274  17.079  0.00  0.00    +0.000 OA
ATOM     19  H   UNL     1      47.789   5.255  14.868  0.00  0.00    +0.000 HD
BRANCH  17  20
ATOM     20  C   UNL     1      48.653   4.595  17.216  0.00  0.00    +0.000 A 
ATOM     21  C   UNL     1      48.658   5.912  17.655  0.00  0.00    +0.000 A 
ATOM     22  S   UNL     1      50.082   6.346  18.488  0.00  0.00    +0.000 S 
ATOM     23  C   UNL     1      50.761   4.807  18.243  0.00  0.00    +0.000 A 
ATOM     24  N   UNL     1      52.013   4.516  18.690  0.00  0.00    +0.000 NA
ATOM     25  C   UNL     1      52.406   3.313  18.414  0.00  0.00    +0.000 A 
ATOM     26  N   UNL     1      51.672   2.386  17.730  0.00  0.00    +0.000 N 
ATOM     27  C   UNL     1      50.402   2.629  17.269  0.00  0.00    +0.000 A 
ATOM     28  O   UNL     1      49.759   1.769  16.676  0.00  0.00    +0.000 OA
ATOM     29  C   UNL     1      49.905   3.969  17.550  0.00  0.00    +0.000 A 
ATOM     30  H   UNL     1      52.035   1.463  17.546  0.00  0.00    +0.000 HD
ENDBRANCH  17  20
ENDBRANCH   1  16
TORSDOF 8
ENDMDL
MODEL 5
REMARK VINA RESULT:    -6.845      2.476      3.785
REMARK INTER + INTRA:         -10.704
REMARK INTER:                  -9.860
REMARK INTRA:                  -0.844
REMARK UNBOUND:                -0.857
REMARK  Name = 
REMARK  8 active torsions:
REMARK  status: ('A' for Active; 'I' for Inactive)
REMARK    1  A    between atoms: N_1  and  C_2
REMARK    2  A    between atoms: C_2  and  C_3
REMARK    3  A    between atoms: C_3  and  N_4
REMARK    4  A    between atoms: N_4  and  C_5
REMARK    5  A    between atoms: C_5  and  C_6
REMARK    6  A    between atoms: C_10  and  C_11
REMARK    7  A    between atoms: C_11  and  N_12
REMARK    8  A    between atoms: C_13  and  C_15
REMARK                            x       y       z     vdW  Elec       q    Type
REMARK                         _______ _______ _______ _____ _____    ______ ____
ROOT
ATOM      1  C   UNL     1      47.063   3.677  14.592  0.00  0.00    +0.000 C 
ENDROOT
BRANCH   1   6
ATOM      2  C   UNL     1      44.889   5.650  12.146  0.00  0.00    +0.000 A 
ATOM      3  C   UNL     1      45.717   6.750  11.889  0.00  0.00    +0.000 A 
ATOM      4  C   UNL     1      47.003   6.810  12.426  0.00  0.00    +0.000 A 
ATOM      5  C   UNL     1      47.454   5.795  13.267  0.00  0.00    +0.000 A 
ATOM      6  C   UNL     1      46.620   4.718  13.597  0.00  0.00    +0.000 A 
ATOM      7  C   UNL     1      45.353   4.634  13.000  0.00  0.00    +0.000 A 
BRANCH   2   8
ATOM      8  C   UNL     1      43.474   5.617  11.625  0.00  0.00    +0.000 C 
BRANCH   8   9
ATOM      9  N   UNL     1      43.398   5.342  10.187  0.00  0.00    +0.000 NA
ATOM     10  H   UNL     1      42.413   5.208   9.951  0.00  0.00    +0.000 HD
BRANCH   9  11
ATOM     11  C   UNL     1      44.078   4.079   9.854  0.00  0.00    +0.000 C 
BRANCH  11  12
ATOM     12  C   UNL     1      44.919   4.142   8.559  0.00  0.00    +0.000 C 
BRANCH  12  13
ATOM     13  N   UNL     1      45.875   5.252   8.591  0.00  0.00    +0.000 NA
ATOM     14  H   UNL     1      45.407   6.085   8.948  0.00  0.00    +0.000 HD
ATOM     15  H   UNL     1      46.155   5.474   7.636  0.00  0.00    +0.000 HD
ENDBRANCH  12  13
ENDBRANCH  11  12
ENDBRANCH   9  11
ENDBRANCH   8   9
ENDBRANCH   2   8
ENDBRANCH   1   6
BRANCH   1  16
ATOM     16  N   UNL     1      47.696   4.262  15.740  0.00  0.00    +0.000 N 
ATOM     17  C   UNL     1      47.281   3.945  17.011  0.00  0.00    +0.000 C 
ATOM     18  O   UNL     1      46.389   3.130  17.224  0.00  0.00    +0.000 OA
ATOM     19  H   UNL     1      48.230   5.109  15.589  0.00  0.00    +0.000 HD
BRANCH  17  20
ATOM     20  C   UNL     1      48.020   4.575  18.112  0.00  0.00    +0.000 A 
ATOM     21  C   UNL     1      47.382   5.490  18.939  0.00  0.00    +0.000 A 
ATOM     22  S   UNL     1      48.373   6.074  20.198  0.00  0.00    +0.000 S 
ATOM     23  C   UNL     1      49.703   5.168  19.649  0.00  0.00    +0.000 A 
ATOM     24  N   UNL     1      50.906   5.241  20.279  0.00  0.00    +0.000 NA
ATOM     25  C   UNL     1      51.831   4.513  19.737  0.00  0.00    +0.000 A 
ATOM     26  N   UNL     1      51.664   3.732  18.629  0.00  0.00    +0.000 N 
ATOM     27  C   UNL     1      50.467   3.618  17.966  0.00  0.00    +0.000 A 
ATOM     28  O   UNL     1      50.343   2.892  16.985  0.00  0.00    +0.000 OA
ATOM     29  C   UNL     1      49.388   4.417  18.531  0.00  0.00    +0.000 A 
ATOM     30  H   UNL     1      52.426   3.186  18.254  0.00  0.00    +0.000 HD
ENDBRANCH  17  20
ENDBRANCH   1  16
TORSDOF 8
ENDMDL
MODEL 6
REMARK VINA RESULT:    -6.612      2.708      3.619
REMARK INTER + INTRA:         -10.369
REMARK INTER:                  -9.255
REMARK INTRA:                  -1.114
REMARK UNBOUND:                -0.857
REMARK  Name = 
REMARK  8 active torsions:
REMARK  status: ('A' for Active; 'I' for Inactive)
REMARK    1  A    between atoms: N_1  and  C_2
REMARK    2  A    between atoms: C_2  and  C_3
REMARK    3  A    between atoms: C_3  and  N_4
REMARK    4  A    between atoms: N_4  and  C_5
REMARK    5  A    between atoms: C_5  and  C_6
REMARK    6  A    between atoms: C_10  and  C_11
REMARK    7  A    between atoms: C_11  and  N_12
REMARK    8  A    between atoms: C_13  and  C_15
REMARK                            x       y       z     vdW  Elec       q    Type
REMARK                         _______ _______ _______ _____ _____    ______ ____
ROOT
ATOM      1  C   UNL     1      48.927   7.851  12.867  0.00  0.00    +0.000 C 
ENDROOT
BRANCH   1   6
ATOM      2  C   UNL     1      45.662   6.623  11.306  0.00  0.00    +0.000 A 
ATOM      3  C   UNL     1      44.838   7.736  11.514  0.00  0.00    +0.000 A 
ATOM      4  C   UNL     1      45.353   8.906  12.070  0.00  0.00    +0.000 A 
ATOM      5  C   UNL     1      46.688   8.958  12.469  0.00  0.00    +0.000 A 
ATOM      6  C   UNL     1      47.517   7.836  12.336  0.00  0.00    +0.000 A 
ATOM      7  C   UNL     1      47.005   6.685  11.717  0.00  0.00    +0.000 A 
BRANCH   2   8
ATOM      8  C   UNL     1      45.090   5.333  10.771  0.00  0.00    +0.000 C 
BRANCH   8   9
ATOM      9  N   UNL     1      43.647   5.406  10.522  0.00  0.00    +0.000 NA
ATOM     10  H   UNL     1      43.372   6.387  10.592  0.00  0.00    +0.000 HD
BRANCH   9  11
ATOM     11  C   UNL     1      42.894   4.690  11.566  0.00  0.00    +0.000 C 
BRANCH  11  12
ATOM     12  C   UNL     1      43.630   3.457  12.137  0.00  0.00    +0.000 C 
BRANCH  12  13
ATOM     13  N   UNL     1      43.038   2.206  11.655  0.00  0.00    +0.000 NA
ATOM     14  H   UNL     1      42.043   2.352  11.486  0.00  0.00    +0.000 HD
ATOM     15  H   UNL     1      43.099   1.507  12.394  0.00  0.00    +0.000 HD
ENDBRANCH  12  13
ENDBRANCH  11  12
ENDBRANCH   9  11
ENDBRANCH   8   9
ENDBRANCH   2   8
ENDBRANCH   1   6
BRANCH   1  16
ATOM     16  N   UNL     1      49.079   7.006  14.018  0.00  0.00    +0.000 N 
ATOM     17  C   UNL     1      48.886   7.502  15.285  0.00  0.00    +0.000 C 
ATOM     18  O   UNL     1      48.543   8.661  15.489  0.00  0.00    +0.000 OA
ATOM     19  H   UNL     1      49.608   6.151  13.893  0.00  0.00    +0.000 HD
BRANCH  17  20
ATOM     20  C   UNL     1      49.036   6.543  16.387  0.00  0.00    +0.000 A 
ATOM     21  C   UNL     1      49.928   6.806  17.418  0.00  0.00    +0.000 A 
ATOM     22  S   UNL     1      49.926   5.617  18.639  0.00  0.00    +0.000 S 
ATOM     23  C   UNL     1      48.776   4.682  17.806  0.00  0.00    +0.000 A 
ATOM     24  N   UNL     1      48.351   3.489  18.304  0.00  0.00    +0.000 NA
ATOM     25  C   UNL     1      47.490   2.880  17.552  0.00  0.00    +0.000 A 
ATOM     26  N   UNL     1      47.025   3.346  16.356  0.00  0.00    +0.000 N 
ATOM     27  C   UNL     1      47.415   4.548  15.818  0.00  0.00    +0.000 A 
ATOM     28  O   UNL     1      46.964   4.951  14.751  0.00  0.00    +0.000 OA
ATOM     29  C   UNL     1      48.386   5.280  16.621  0.00  0.00    +0.000 A 
ATOM     30  H   UNL     1      46.353   2.823  15.815  0.00  0.00    +0.000 HD
ENDBRANCH  17  20
ENDBRANCH   1  16
TORSDOF 8
ENDMDL
MODEL 7
REMARK VINA RESULT:    -6.504      2.866      7.781
REMARK INTER + INTRA:         -10.213
REMARK INTER:                  -9.338
REMARK INTRA:                  -0.875
REMARK UNBOUND:                -0.857
REMARK  Name = 
REMARK  8 active torsions:
REMARK  status: ('A' for Active; 'I' for Inactive)
REMARK    1  A    between atoms: N_1  and  C_2
REMARK    2  A    between atoms: C_2  and  C_3
REMARK    3  A    between atoms: C_3  and  N_4
REMARK    4  A    between atoms: N_4  and  C_5
REMARK    5  A    between atoms: C_5  and  C_6
REMARK    6  A    between atoms: C_10  and  C_11
REMARK    7  A    between atoms: C_11  and  N_12
REMARK    8  A    between atoms: C_13  and  C_15
REMARK                            x       y       z     vdW  Elec       q    Type
REMARK                         _______ _______ _______ _____ _____    ______ ____
ROOT
ATOM      1  C   UNL     1      47.262   8.143  11.921  0.00  0.00    +0.000 C 
ENDROOT
BRANCH   1   6
ATOM      2  C   UNL     1      49.421   7.445  14.995  0.00  0.00    +0.000 A 
ATOM      3  C   UNL     1      50.676   7.861  14.533  0.00  0.00    +0.000 A 
ATOM      4  C   UNL     1      50.810   8.447  13.275  0.00  0.00    +0.000 A 
ATOM      5  C   UNL     1      49.698   8.577  12.446  0.00  0.00    +0.000 A 
ATOM      6  C   UNL     1      48.443   8.106  12.856  0.00  0.00    +0.000 A 
ATOM      7  C   UNL     1      48.307   7.577  14.148  0.00  0.00    +0.000 A 
BRANCH   2   8
ATOM      8  C   UNL     1      49.286   6.746  16.325  0.00  0.00    +0.000 C 
BRANCH   8   9
ATOM      9  N   UNL     1      49.068   5.302  16.196  0.00  0.00    +0.000 NA
ATOM     10  H   UNL     1      48.730   5.126  15.247  0.00  0.00    +0.000 HD
BRANCH   9  11
ATOM     11  C   UNL     1      48.003   4.846  17.105  0.00  0.00    +0.000 C 
BRANCH  11  12
ATOM     12  C   UNL     1      47.278   3.567  16.630  0.00  0.00    +0.000 C 
BRANCH  12  13
ATOM     13  N   UNL     1      46.666   2.847  17.750  0.00  0.00    +0.000 NA
ATOM     14  H   UNL     1      46.426   3.513  18.483  0.00  0.00    +0.000 HD
ATOM     15  H   UNL     1      47.359   2.218  18.156  0.00  0.00    +0.000 HD
ENDBRANCH  12  13
ENDBRANCH  11  12
ENDBRANCH   9  11
ENDBRANCH   8   9
ENDBRANCH   2   8
ENDBRANCH   1   6
BRANCH   1  16
ATOM     16  N   UNL     1      46.632   6.859  11.795  0.00  0.00    +0.000 N 
ATOM     17  C   UNL     1      45.276   6.757  11.603  0.00  0.00    +0.000 C 
ATOM     18  O   UNL     1      44.554   7.742  11.494  0.00  0.00    +0.000 OA
ATOM     19  H   UNL     1      47.148   6.059  12.141  0.00  0.00    +0.000 HD
BRANCH  17  20
ATOM     20  C   UNL     1      44.742   5.397  11.454  0.00  0.00    +0.000 A 
ATOM     21  C   UNL     1      44.001   4.828  12.481  0.00  0.00    +0.000 A 
ATOM     22  S   UNL     1      43.411   3.271  12.112  0.00  0.00    +0.000 S 
ATOM     23  C   UNL     1      44.171   3.282  10.591  0.00  0.00    +0.000 A 
ATOM     24  N   UNL     1      44.088   2.207   9.761  0.00  0.00    +0.000 NA
ATOM     25  C   UNL     1      44.733   2.350   8.647  0.00  0.00    +0.000 A 
ATOM     26  N   UNL     1      45.452   3.456   8.293  0.00  0.00    +0.000 N 
ATOM     27  C   UNL     1      45.556   4.568   9.092  0.00  0.00    +0.000 A 
ATOM     28  O   UNL     1      46.192   5.555   8.739  0.00  0.00    +0.000 OA
ATOM     29  C   UNL     1      44.850   4.465  10.363  0.00  0.00    +0.000 A 
ATOM     30  H   UNL     1      45.934   3.507   7.408  0.00  0.00    +0.000 HD
ENDBRANCH  17  20
ENDBRANCH   1  16
TORSDOF 8
ENDMDL
MODEL 8
REMARK VINA RESULT:    -6.496      3.817      4.851
REMARK INTER + INTRA:         -10.201
REMARK INTER:                  -9.413
REMARK INTRA:                  -0.788
REMARK UNBOUND:                -0.857
REMARK  Name = 
REMARK  8 active torsions:
REMARK  status: ('A' for Active; 'I' for Inactive)
REMARK    1  A    between atoms: N_1  and  C_2
REMARK    2  A    between atoms: C_2  and  C_3
REMARK    3  A    between atoms: C_3  and  N_4
REMARK    4  A    between atoms: N_4  and  C_5
REMARK    5  A    between atoms: C_5  and  C_6
REMARK    6  A    between atoms: C_10  and  C_11
REMARK    7  A    between atoms: C_11  and  N_12
REMARK    8  A    between atoms: C_13  and  C_15
REMARK                            x       y       z     vdW  Elec       q    Type
REMARK                         _______ _______ _______ _____ _____    ______ ____
ROOT
ATOM      1  C   UNL     1      43.467   6.330  11.075  0.00  0.00    +0.000 C 
ENDROOT
BRANCH   1   6
ATOM      2  C   UNL     1      44.694   3.100   9.444  0.00  0.00    +0.000 A 
ATOM      3  C   UNL     1      44.164   2.145  10.322  0.00  0.00    +0.000 A 
ATOM      4  C   UNL     1      43.342   2.534  11.379  0.00  0.00    +0.000 A 
ATOM      5  C   UNL     1      43.081   3.886  11.598  0.00  0.00    +0.000 A 
ATOM      6  C   UNL     1      43.655   4.865  10.776  0.00  0.00    +0.000 A 
ATOM      7  C   UNL     1      44.428   4.460   9.677  0.00  0.00    +0.000 A 
BRANCH   2   8
ATOM      8  C   UNL     1      45.641   2.688   8.344  0.00  0.00    +0.000 C 
BRANCH   8   9
ATOM      9  N   UNL     1      45.841   3.735   7.337  0.00  0.00    +0.000 NA
ATOM     10  H   UNL     1      44.920   4.098   7.084  0.00  0.00    +0.000 HD
BRANCH   9  11
ATOM     11  C   UNL     1      46.418   3.176   6.103  0.00  0.00    +0.000 C 
BRANCH  11  12
ATOM     12  C   UNL     1      47.385   1.995   6.340  0.00  0.00    +0.000 C 
BRANCH  12  13
ATOM     13  N   UNL     1      48.782   2.436   6.352  0.00  0.00    +0.000 NA
ATOM     14  H   UNL     1      49.148   2.360   7.301  0.00  0.00    +0.000 HD
ATOM     15  H   UNL     1      48.817   3.427   6.115  0.00  0.00    +0.000 HD
ENDBRANCH  12  13
ENDBRANCH  11  12
ENDBRANCH   9  11
ENDBRANCH   8   9
ENDBRANCH   2   8
ENDBRANCH   1   6
BRANCH   1  16
ATOM     16  N   UNL     1      44.719   7.026  11.176  0.00  0.00    +0.000 N 
ATOM     17  C   UNL     1      45.531   6.858  12.271  0.00  0.00    +0.000 C 
ATOM     18  O   UNL     1      45.248   6.090  13.184  0.00  0.00    +0.000 OA
ATOM     19  H   UNL     1      44.840   7.841  10.587  0.00  0.00    +0.000 HD
BRANCH  17  20
ATOM     20  C   UNL     1      46.803   7.592  12.255  0.00  0.00    +0.000 A 
ATOM     21  C   UNL     1      48.004   6.897  12.291  0.00  0.00    +0.000 A 
ATOM     22  S   UNL     1      49.376   7.905  12.204  0.00  0.00    +0.000 S 
ATOM     23  C   UNL     1      48.415   9.306  12.169  0.00  0.00    +0.000 A 
ATOM     24  N   UNL     1      48.982  10.542  12.128  0.00  0.00    +0.000 NA
ATOM     25  C   UNL     1      48.127  11.516  12.127  0.00  0.00    +0.000 A 
ATOM     26  N   UNL     1      46.770  11.367  12.171  0.00  0.00    +0.000 N 
ATOM     27  C   UNL     1      46.152  10.142  12.203  0.00  0.00    +0.000 A 
ATOM     28  O   UNL     1      44.930  10.040  12.221  0.00  0.00    +0.000 OA
ATOM     29  C   UNL     1      47.065   9.006  12.206  0.00  0.00    +0.000 A 
ATOM     30  H   UNL     1      46.156  12.168  12.168  0.00  0.00    +0.000 HD
ENDBRANCH  17  20
ENDBRANCH   1  16
TORSDOF 8
ENDMDL
MODEL 9
REMARK VINA RESULT:    -6.478      3.690      7.740
REMARK INTER + INTRA:         -10.176
REMARK INTER:                  -9.257
REMARK INTRA:                  -0.919
REMARK UNBOUND:                -0.857
REMARK  Name = 
REMARK  8 active torsions:
REMARK  status: ('A' for Active; 'I' for Inactive)
REMARK    1  A    between atoms: N_1  and  C_2
REMARK    2  A    between atoms: C_2  and  C_3
REMARK    3  A    between atoms: C_3  and  N_4
REMARK    4  A    between atoms: N_4  and  C_5
REMARK    5  A    between atoms: C_5  and  C_6
REMARK    6  A    between atoms: C_10  and  C_11
REMARK    7  A    between atoms: C_11  and  N_12
REMARK    8  A    between atoms: C_13  and  C_15
REMARK                            x       y       z     vdW  Elec       q    Type
REMARK                         _______ _______ _______ _____ _____    ______ ____
ROOT
ATOM      1  C   UNL     1      47.259   3.300  16.728  0.00  0.00    +0.000 C 
ENDROOT
BRANCH   1   6
ATOM      2  C   UNL     1      50.650   4.770  17.696  0.00  0.00    +0.000 A 
ATOM      3  C   UNL     1      51.438   3.612  17.731  0.00  0.00    +0.000 A 
ATOM      4  C   UNL     1      50.903   2.380  17.356  0.00  0.00    +0.000 A 
ATOM      5  C   UNL     1      49.561   2.286  16.990  0.00  0.00    +0.000 A 
ATOM      6  C   UNL     1      48.734   3.417  17.014  0.00  0.00    +0.000 A 
ATOM      7  C   UNL     1      49.298   4.662  17.331  0.00  0.00    +0.000 A 
BRANCH   2   8
ATOM      8  C   UNL     1      51.207   6.090  18.170  0.00  0.00    +0.000 C 
BRANCH   8   9
ATOM      9  N   UNL     1      50.695   7.235  17.410  0.00  0.00    +0.000 NA
ATOM     10  H   UNL     1      50.018   6.877  16.734  0.00  0.00    +0.000 HD
BRANCH   9  11
ATOM     11  C   UNL     1      51.767   7.870  16.625  0.00  0.00    +0.000 C 
BRANCH  11  12
ATOM     12  C   UNL     1      51.506   7.882  15.103  0.00  0.00    +0.000 C 
BRANCH  12  13
ATOM     13  N   UNL     1      50.355   7.047  14.746  0.00  0.00    +0.000 NA
ATOM     14  H   UNL     1      50.085   6.489  15.556  0.00  0.00    +0.000 HD
ATOM     15  H   UNL     1      50.640   6.383  14.027  0.00  0.00    +0.000 HD
ENDBRANCH  12  13
ENDBRANCH  11  12
ENDBRANCH   9  11
ENDBRANCH   8   9
ENDBRANCH   2   8
ENDBRANCH   1   6
BRANCH   1  16
ATOM     16  N   UNL     1      46.804   4.312  15.817  0.00  0.00    +0.000 N 
ATOM     17  C   UNL     1      46.847   4.107  14.459  0.00  0.00    +0.000 C 
ATOM     18  O   UNL     1      47.234   3.052  13.968  0.00  0.00    +0.000 OA
ATOM     19  H   UNL     1      46.739   5.257  16.175  0.00  0.00    +0.000 HD
BRANCH  17  20
ATOM     20  C   UNL     1      46.326   5.195  13.621  0.00  0.00    +0.000 A 
ATOM     21  C   UNL     1      47.058   6.365  13.472  0.00  0.00    +0.000 A 
ATOM     22  S   UNL     1      46.331   7.492  12.419  0.00  0.00    +0.000 S 
ATOM     23  C   UNL     1      44.989   6.479  12.169  0.00  0.00    +0.000 A 
ATOM     24  N   UNL     1      43.956   6.871  11.376  0.00  0.00    +0.000 NA
ATOM     25  C   UNL     1      42.994   6.006  11.296  0.00  0.00    +0.000 A 
ATOM     26  N   UNL     1      42.969   4.800  11.937  0.00  0.00    +0.000 N 
ATOM     27  C   UNL     1      43.992   4.357  12.738  0.00  0.00    +0.000 A 
ATOM     28  O   UNL     1      43.951   3.259  13.284  0.00  0.00    +0.000 OA
ATOM     29  C   UNL     1      45.104   5.290  12.867  0.00  0.00    +0.000 A 
ATOM     30  H   UNL     1      42.189   4.168  11.834  0.00  0.00    +0.000 HD
ENDBRANCH  17  20
ENDBRANCH   1  16
TORSDOF 8
ENDMDL
