MODEL 1
REMARK VINA RESULT:    -7.318      0.000      0.000
REMARK INTER + INTRA:         -11.213
REMARK INTER:                 -10.099
REMARK INTRA:                  -1.114
REMARK UNBOUND:                -1.114
REMARK  Name = 
REMARK  7 active torsions:
REMARK  status: ('A' for Active; 'I' for Inactive)
REMARK    1  A    between atoms: C_2  and  C_19
REMARK    2  A    between atoms: N_3  and  C_4
REMARK    3  A    between atoms: C_4  and  C_5
REMARK    4  A    between atoms: C_8  and  C_9
REMARK    5  A    between atoms: C_9  and  N_10
REMARK    6  A    between atoms: C_13  and  C_14
REMARK    7  A    between atoms: C_14  and  O_15
REMARK                            x       y       z     vdW  Elec       q    Type
REMARK                         _______ _______ _______ _____ _____    ______ ____
ROOT
ATOM      1  C   UNL     1      46.690   4.531  14.343  0.00  0.00    +0.000 C 
ENDROOT
BRANCH   1   2
ATOM      2  C   UNL     1      46.079   4.474  12.966  0.00  0.00    +0.000 A 
ATOM      3  C   UNL     1      46.087   5.605  12.142  0.00  0.00    +0.000 A 
ATOM      4  C   UNL     1      45.531   5.558  10.860  0.00  0.00    +0.000 A 
ATOM      5  C   UNL     1      44.943   4.383  10.372  0.00  0.00    +0.000 A 
ATOM      6  C   UNL     1      44.902   3.264  11.219  0.00  0.00    +0.000 A 
ATOM      7  C   UNL     1      45.462   3.308  12.501  0.00  0.00    +0.000 A 
BRANCH   5   8
ATOM      8  C   UNL     1      44.307   4.338   8.993  0.00  0.00    +0.000 C 
BRANCH   8   9
ATOM      9  N   UNL     1      45.004   3.593   7.944  0.00  0.00    +0.000 NA
ATOM     10  C   UNL     1      44.979   2.137   8.035  0.00  0.00    +0.000 C 
ATOM     11  C   UNL     1      46.433   1.699   8.057  0.00  0.00    +0.000 C 
ATOM     12  C   UNL     1      47.167   2.797   7.294  0.00  0.00    +0.000 C 
ATOM     13  C   UNL     1      46.355   4.049   7.623  0.00  0.00    +0.000 C 
BRANCH  12  14
ATOM     14  C   UNL     1      47.236   2.523   5.790  0.00  0.00    +0.000 C 
BRANCH  14  15
ATOM     15  O   UNL     1      48.425   1.805   5.471  0.00  0.00    +0.000 OA
ATOM     16  H   UNL     1      48.534   1.101   6.134  0.00  0.00    +0.000 HD
ENDBRANCH  14  15
ENDBRANCH  12  14
ENDBRANCH   8   9
ENDBRANCH   5   8
ENDBRANCH   1   2
BRANCH   1  19
ATOM     17  O   UNL     1      48.690   5.052  16.264  0.00  0.00    +0.000 OA
ATOM     18  C   UNL     1      48.353   5.948  15.492  0.00  0.00    +0.000 C 
ATOM     19  N   UNL     1      47.351   5.789  14.572  0.00  0.00    +0.000 N 
ATOM     20  H   UNL     1      47.232   6.490  13.848  0.00  0.00    +0.000 HD
BRANCH  18  21
ATOM     21  C   UNL     1      48.971   7.279  15.550  0.00  0.00    +0.000 A 
ATOM     22  C   UNL     1      49.050   7.951  16.763  0.00  0.00    +0.000 A 
ATOM     23  S   UNL     1      49.779   9.488  16.648  0.00  0.00    +0.000 S 
ATOM     24  C   UNL     1      50.056   9.292  14.981  0.00  0.00    +0.000 A 
ATOM     25  N   UNL     1      50.686  10.257  14.259  0.00  0.00    +0.000 NA
ATOM     26  C   UNL     1      50.870   9.960  13.017  0.00  0.00    +0.000 A 
ATOM     27  N   UNL     1      50.471   8.789  12.427  0.00  0.00    +0.000 N 
ATOM     28  C   UNL     1      49.761   7.823  13.095  0.00  0.00    +0.000 A 
ATOM     29  O   UNL     1      49.296   6.854  12.503  0.00  0.00    +0.000 OA
ATOM     30  C   UNL     1      49.573   8.083  14.512  0.00  0.00    +0.000 A 
ATOM     31  H   UNL     1      50.617   8.631  11.441  0.00  0.00    +0.000 HD
ENDBRANCH  18  21
ENDBRANCH   1  19
TORSDOF 7
ENDMDL
MODEL 2
REMARK VINA RESULT:    -7.024      2.273      3.898
REMARK INTER + INTRA:         -10.808
REMARK INTER:                  -9.872
REMARK INTRA:                  -0.935
REMARK UNBOUND:                -1.114
REMARK  Name = 
REMARK  7 active torsions:
REMARK  status: ('A' for Active; 'I' for Inactive)
REMARK    1  A    between atoms: C_2  and  C_19
REMARK    2  A    between atoms: N_3  and  C_4
REMARK    3  A    between atoms: C_4  and  C_5
REMARK    4  A    between atoms: C_8  and  C_9
REMARK    5  A    between atoms: C_9  and  N_10
REMARK    6  A    between atoms: C_13  and  C_14
REMARK    7  A    between atoms: C_14  and  O_15
REMARK                            x       y       z     vdW  Elec       q    Type
REMARK                         _______ _______ _______ _____ _____    ______ ____
ROOT
ATOM      1  C   UNL     1      47.552   7.780  13.481  0.00  0.00    +0.000 C 
ENDROOT
BRANCH   1   2
ATOM      2  C   UNL     1      46.576   6.938  12.700  0.00  0.00    +0.000 A 
ATOM      3  C   UNL     1      46.627   5.542  12.778  0.00  0.00    +0.000 A 
ATOM      4  C   UNL     1      45.720   4.753  12.064  0.00  0.00    +0.000 A 
ATOM      5  C   UNL     1      44.745   5.338  11.246  0.00  0.00    +0.000 A 
ATOM      6  C   UNL     1      44.724   6.737  11.140  0.00  0.00    +0.000 A 
ATOM      7  C   UNL     1      45.629   7.529  11.857  0.00  0.00    +0.000 A 
BRANCH   5   8
ATOM      8  C   UNL     1      43.779   4.484  10.442  0.00  0.00    +0.000 C 
BRANCH   8   9
ATOM      9  N   UNL     1      44.274   3.867   9.211  0.00  0.00    +0.000 NA
ATOM     10  C   UNL     1      44.316   2.409   9.169  0.00  0.00    +0.000 C 
ATOM     11  C   UNL     1      45.758   2.046   8.862  0.00  0.00    +0.000 C 
ATOM     12  C   UNL     1      46.286   3.240   8.074  0.00  0.00    +0.000 C 
ATOM     13  C   UNL     1      45.516   4.417   8.673  0.00  0.00    +0.000 C 
BRANCH  12  14
ATOM     14  C   UNL     1      46.060   3.099   6.568  0.00  0.00    +0.000 C 
BRANCH  14  15
ATOM     15  O   UNL     1      46.878   4.022   5.853  0.00  0.00    +0.000 OA
ATOM     16  H   UNL     1      47.725   4.094   6.326  0.00  0.00    +0.000 HD
ENDBRANCH  14  15
ENDBRANCH  12  14
ENDBRANCH   8   9
ENDBRANCH   5   8
ENDBRANCH   1   2
BRANCH   1  19
ATOM     17  O   UNL     1      50.083   7.011  14.462  0.00  0.00    +0.000 OA
ATOM     18  C   UNL     1      49.100   6.903  15.192  0.00  0.00    +0.000 C 
ATOM     19  N   UNL     1      47.832   7.201  14.769  0.00  0.00    +0.000 N 
ATOM     20  H   UNL     1      47.086   7.265  15.454  0.00  0.00    +0.000 HD
BRANCH  18  21
ATOM     21  C   UNL     1      49.218   6.386  16.562  0.00  0.00    +0.000 A 
ATOM     22  C   UNL     1      49.860   7.143  17.532  0.00  0.00    +0.000 A 
ATOM     23  S   UNL     1      49.925   6.388  19.059  0.00  0.00    +0.000 S 
ATOM     24  C   UNL     1      49.057   5.040  18.489  0.00  0.00    +0.000 A 
ATOM     25  N   UNL     1      48.742   4.010  19.319  0.00  0.00    +0.000 NA
ATOM     26  C   UNL     1      48.044   3.075  18.768  0.00  0.00    +0.000 A 
ATOM     27  N   UNL     1      47.643   3.069  17.458  0.00  0.00    +0.000 N 
ATOM     28  C   UNL     1      48.007   4.046  16.563  0.00  0.00    +0.000 A 
ATOM     29  O   UNL     1      47.751   3.937  15.368  0.00  0.00    +0.000 OA
ATOM     30  C   UNL     1      48.747   5.151  17.145  0.00  0.00    +0.000 A 
ATOM     31  H   UNL     1      47.125   2.290  17.079  0.00  0.00    +0.000 HD
ENDBRANCH  18  21
ENDBRANCH   1  19
TORSDOF 7
ENDMDL
MODEL 3
REMARK VINA RESULT:    -6.891      2.771      4.077
REMARK INTER + INTRA:         -10.624
REMARK INTER:                 -10.002
REMARK INTRA:                  -0.622
REMARK UNBOUND:                -1.114
REMARK  Name = 
REMARK  7 active torsions:
REMARK  status: ('A' for Active; 'I' for Inactive)
REMARK    1  A    between atoms: C_2  and  C_19
REMARK    2  A    between atoms: N_3  and  C_4
REMARK    3  A    between atoms: C_4  and  C_5
REMARK    4  A    between atoms: C_8  and  C_9
REMARK    5  A    between atoms: C_9  and  N_10
REMARK    6  A    between atoms: C_13  and  C_14
REMARK    7  A    between atoms: C_14  and  O_15
REMARK                            x       y       z     vdW  Elec       q    Type
REMARK                         _______ _______ _______ _____ _____    ______ ____
ROOT
ATOM      1  C   UNL     1      47.922   6.854  13.712  0.00  0.00    +0.000 C 
ENDROOT
BRANCH   1   2
ATOM      2  C   UNL     1      46.908   6.210  12.803  0.00  0.00    +0.000 A 
ATOM      3  C   UNL     1      46.489   4.895  13.031  0.00  0.00    +0.000 A 
ATOM      4  C   UNL     1      45.541   4.292  12.198  0.00  0.00    +0.000 A 
ATOM      5  C   UNL     1      44.995   4.985  11.109  0.00  0.00    +0.000 A 
ATOM      6  C   UNL     1      45.448   6.290  10.862  0.00  0.00    +0.000 A 
ATOM      7  C   UNL     1      46.394   6.896  11.696  0.00  0.00    +0.000 A 
BRANCH   5   8
ATOM      8  C   UNL     1      43.990   4.323  10.182  0.00  0.00    +0.000 C 
BRANCH   8   9
ATOM      9  N   UNL     1      44.493   3.721   8.947  0.00  0.00    +0.000 NA
ATOM     10  C   UNL     1      44.462   2.266   8.856  0.00  0.00    +0.000 C 
ATOM     11  C   UNL     1      45.893   1.837   8.582  0.00  0.00    +0.000 C 
ATOM     12  C   UNL     1      46.507   3.028   7.853  0.00  0.00    +0.000 C 
ATOM     13  C   UNL     1      45.779   4.223   8.467  0.00  0.00    +0.000 C 
BRANCH  12  14
ATOM     14  C   UNL     1      46.324   2.947   6.336  0.00  0.00    +0.000 C 
BRANCH  14  15
ATOM     15  O   UNL     1      46.848   4.115   5.709  0.00  0.00    +0.000 OA
ATOM     16  H   UNL     1      47.616   3.845   5.176  0.00  0.00    +0.000 HD
ENDBRANCH  14  15
ENDBRANCH  12  14
ENDBRANCH   8   9
ENDBRANCH   5   8
ENDBRANCH   1   2
BRANCH   1  19
ATOM     17  O   UNL     1      50.080   6.622  15.515  0.00  0.00    +0.000 OA
ATOM     18  C   UNL     1      48.960   6.261  15.871  0.00  0.00    +0.000 C 
ATOM     19  N   UNL     1      47.876   6.289  15.035  0.00  0.00    +0.000 N 
ATOM     20  H   UNL     1      46.950   6.149  15.425  0.00  0.00    +0.000 HD
BRANCH  18  21
ATOM     21  C   UNL     1      48.725   5.715  17.214  0.00  0.00    +0.000 A 
ATOM     22  C   UNL     1      48.935   4.364  17.457  0.00  0.00    +0.000 A 
ATOM     23  S   UNL     1      48.598   3.895  19.061  0.00  0.00    +0.000 S 
ATOM     24  C   UNL     1      48.201   5.489  19.501  0.00  0.00    +0.000 A 
ATOM     25  N   UNL     1      47.841   5.793  20.777  0.00  0.00    +0.000 NA
ATOM     26  C   UNL     1      47.610   7.046  20.982  0.00  0.00    +0.000 A 
ATOM     27  N   UNL     1      47.695   8.023  20.025  0.00  0.00    +0.000 N 
ATOM     28  C   UNL     1      47.975   7.752  18.708  0.00  0.00    +0.000 A 
ATOM     29  O   UNL     1      47.903   8.629  17.852  0.00  0.00    +0.000 OA
ATOM     30  C   UNL     1      48.297   6.363  18.433  0.00  0.00    +0.000 A 
ATOM     31  H   UNL     1      47.470   8.982  20.243  0.00  0.00    +0.000 HD
ENDBRANCH  18  21
ENDBRANCH   1  19
TORSDOF 7
ENDMDL
MODEL 4
REMARK VINA RESULT:    -6.715      1.570      2.412
REMARK INTER + INTRA:         -10.381
REMARK INTER:                  -9.626
REMARK INTRA:                  -0.756
REMARK UNBOUND:                -1.114
REMARK  Name = 
REMARK  7 active torsions:
REMARK  status: ('A' for Active; 'I' for Inactive)
REMARK    1  A    between atoms: C_2  and  C_19
REMARK    2  A    between atoms: N_3  and  C_4
REMARK    3  A    between atoms: C_4  and  C_5
REMARK    4  A    between atoms: C_8  and  C_9
REMARK    5  A    between atoms: C_9  and  N_10
REMARK    6  A    between atoms: C_13  and  C_14
REMARK    7  A    between atoms: C_14  and  O_15
REMARK                            x       y       z     vdW  Elec       q    Type
REMARK                         _______ _______ _______ _____ _____    ______ ____
ROOT
ATOM      1  C   UNL     1      46.658   4.492  14.400  0.00  0.00    +0.000 C 
ENDROOT
BRANCH   1   2
ATOM      2  C   UNL     1      46.047   4.466  13.022  0.00  0.00    +0.000 A 
ATOM      3  C   UNL     1      46.109   5.596  12.201  0.00  0.00    +0.000 A 
ATOM      4  C   UNL     1      45.553   5.578  10.917  0.00  0.00    +0.000 A 
ATOM      5  C   UNL     1      44.912   4.432  10.426  0.00  0.00    +0.000 A 
ATOM      6  C   UNL     1      44.817   3.315  11.271  0.00  0.00    +0.000 A 
ATOM      7  C   UNL     1      45.376   3.330  12.554  0.00  0.00    +0.000 A 
BRANCH   5   8
ATOM      8  C   UNL     1      44.277   4.419   9.046  0.00  0.00    +0.000 C 
BRANCH   8   9
ATOM      9  N   UNL     1      44.910   3.600   8.011  0.00  0.00    +0.000 NA
ATOM     10  C   UNL     1      44.831   2.152   8.170  0.00  0.00    +0.000 C 
ATOM     11  C   UNL     1      46.266   1.657   8.167  0.00  0.00    +0.000 C 
ATOM     12  C   UNL     1      47.017   2.689   7.332  0.00  0.00    +0.000 C 
ATOM     13  C   UNL     1      46.266   3.986   7.628  0.00  0.00    +0.000 C 
BRANCH  12  14
ATOM     14  C   UNL     1      47.026   2.345   5.841  0.00  0.00    +0.000 C 
BRANCH  14  15
ATOM     15  O   UNL     1      48.303   2.627   5.274  0.00  0.00    +0.000 OA
ATOM     16  H   UNL     1      48.213   2.586   4.306  0.00  0.00    +0.000 HD
ENDBRANCH  14  15
ENDBRANCH  12  14
ENDBRANCH   8   9
ENDBRANCH   5   8
ENDBRANCH   1   2
BRANCH   1  19
ATOM     17  O   UNL     1      48.749   4.912  16.247  0.00  0.00    +0.000 OA
ATOM     18  C   UNL     1      48.393   5.840  15.524  0.00  0.00    +0.000 C 
ATOM     19  N   UNL     1      47.349   5.731  14.645  0.00  0.00    +0.000 N 
ATOM     20  H   UNL     1      47.208   6.460  13.953  0.00  0.00    +0.000 HD
BRANCH  18  21
ATOM     21  C   UNL     1      49.035   7.159  15.602  0.00  0.00    +0.000 A 
ATOM     22  C   UNL     1      49.749   7.645  14.515  0.00  0.00    +0.000 A 
ATOM     23  S   UNL     1      50.442   9.179  14.781  0.00  0.00    +0.000 S 
ATOM     24  C   UNL     1      49.777   9.270  16.344  0.00  0.00    +0.000 A 
ATOM     25  N   UNL     1      49.972  10.366  17.124  0.00  0.00    +0.000 NA
ATOM     26  C   UNL     1      49.374  10.321  18.267  0.00  0.00    +0.000 A 
ATOM     27  N   UNL     1      48.608   9.273  18.707  0.00  0.00    +0.000 N 
ATOM     28  C   UNL     1      48.451   8.113  17.989  0.00  0.00    +0.000 A 
ATOM     29  O   UNL     1      47.878   7.141  18.472  0.00  0.00    +0.000 OA
ATOM     30  C   UNL     1      49.058   8.133  16.670  0.00  0.00    +0.000 A 
ATOM     31  H   UNL     1      48.193   9.286  19.626  0.00  0.00    +0.000 HD
ENDBRANCH  18  21
ENDBRANCH   1  19
TORSDOF 7
ENDMDL
MODEL 5
REMARK VINA RESULT:    -6.535      3.716      7.853
REMARK INTER + INTRA:         -10.133
REMARK INTER:                  -9.037
REMARK INTRA:                  -1.096
REMARK UNBOUND:                -1.114
REMARK  Name = 
REMARK  7 active torsions:
REMARK  status: ('A' for Active; 'I' for Inactive)
REMARK    1  A    between atoms: C_2  and  C_19
REMARK    2  A    between atoms: N_3  and  C_4
REMARK    3  A    between atoms: C_4  and  C_5
REMARK    4  A    between atoms: C_8  and  C_9
REMARK    5  A    between atoms: C_9  and  N_10
REMARK    6  A    between atoms: C_13  and  C_14
REMARK    7  A    between atoms: C_14  and  O_15
REMARK                            x       y       z     vdW  Elec       q    Type
REMARK                         _______ _______ _______ _____ _____    ______ ____
ROOT
ATOM      1  C   UNL     1      46.277   8.168  12.926  0.00  0.00    +0.000 C 
ENDROOT
BRANCH   1   2
ATOM      2  C   UNL     1      47.663   8.413  12.387  0.00  0.00    +0.000 A 
ATOM      3  C   UNL     1      48.058   9.703  12.015  0.00  0.00    +0.000 A 
ATOM      4  C   UNL     1      49.346   9.941  11.523  0.00  0.00    +0.000 A 
ATOM      5  C   UNL     1      50.268   8.895  11.381  0.00  0.00    +0.000 A 
ATOM      6  C   UNL     1      49.852   7.598  11.718  0.00  0.00    +0.000 A 
ATOM      7  C   UNL     1      48.566   7.358  12.215  0.00  0.00    +0.000 A 
BRANCH   5   8
ATOM      8  C   UNL     1      51.655   9.145  10.815  0.00  0.00    +0.000 C 
BRANCH   8   9
ATOM      9  N   UNL     1      52.633   8.060  10.901  0.00  0.00    +0.000 NA
ATOM     10  C   UNL     1      53.806   8.288  11.738  0.00  0.00    +0.000 C 
ATOM     11  C   UNL     1      55.007   8.085  10.832  0.00  0.00    +0.000 C 
ATOM     12  C   UNL     1      54.516   7.103   9.774  0.00  0.00    +0.000 C 
ATOM     13  C   UNL     1      53.036   7.457   9.633  0.00  0.00    +0.000 C 
BRANCH  12  14
ATOM     14  C   UNL     1      54.733   5.644  10.179  0.00  0.00    +0.000 C 
BRANCH  14  15
ATOM     15  O   UNL     1      53.493   5.038  10.536  0.00  0.00    +0.000 OA
ATOM     16  H   UNL     1      53.551   4.092  10.314  0.00  0.00    +0.000 HD
ENDBRANCH  14  15
ENDBRANCH  12  14
ENDBRANCH   8   9
ENDBRANCH   5   8
ENDBRANCH   1   2
BRANCH   1  19
ATOM     17  O   UNL     1      44.078   7.541  11.274  0.00  0.00    +0.000 OA
ATOM     18  C   UNL     1      44.761   6.628  11.733  0.00  0.00    +0.000 C 
ATOM     19  N   UNL     1      45.808   6.849  12.588  0.00  0.00    +0.000 N 
ATOM     20  H   UNL     1      46.444   6.086  12.796  0.00  0.00    +0.000 HD
BRANCH  18  21
ATOM     21  C   UNL     1      44.457   5.222  11.437  0.00  0.00    +0.000 A 
ATOM     22  C   UNL     1      43.682   4.482  12.321  0.00  0.00    +0.000 A 
ATOM     23  S   UNL     1      43.441   2.867  11.834  0.00  0.00    +0.000 S 
ATOM     24  C   UNL     1      44.327   3.108  10.402  0.00  0.00    +0.000 A 
ATOM     25  N   UNL     1      44.485   2.103   9.499  0.00  0.00    +0.000 NA
ATOM     26  C   UNL     1      45.140   2.437   8.438  0.00  0.00    +0.000 A 
ATOM     27  N   UNL     1      45.663   3.681   8.203  0.00  0.00    +0.000 N 
ATOM     28  C   UNL     1      45.599   4.702   9.119  0.00  0.00    +0.000 A 
ATOM     29  O   UNL     1      46.199   5.756   8.937  0.00  0.00    +0.000 OA
ATOM     30  C   UNL     1      44.824   4.397  10.309  0.00  0.00    +0.000 A 
ATOM     31  H   UNL     1      46.193   3.869   7.365  0.00  0.00    +0.000 HD
ENDBRANCH  18  21
ENDBRANCH   1  19
TORSDOF 7
ENDMDL
MODEL 6
REMARK VINA RESULT:    -6.398      1.848      2.343
REMARK INTER + INTRA:          -9.943
REMARK INTER:                  -9.075
REMARK INTRA:                  -0.868
REMARK UNBOUND:                -1.114
REMARK  Name = 
REMARK  7 active torsions:
REMARK  status: ('A' for Active; 'I' for Inactive)
REMARK    1  A    between atoms: C_2  and  C_19
REMARK    2  A    between atoms: N_3  and  C_4
REMARK    3  A    between atoms: C_4  and  C_5
REMARK    4  A    between atoms: C_8  and  C_9
REMARK    5  A    between atoms: C_9  and  N_10
REMARK    6  A    between atoms: C_13  and  C_14
REMARK    7  A    between atoms: C_14  and  O_15
REMARK                            x       y       z     vdW  Elec       q    Type
REMARK                         _______ _______ _______ _____ _____    ______ ____
ROOT
ATOM      1  C   UNL     1      46.981   5.498  13.980  0.00  0.00    +0.000 C 
ENDROOT
BRANCH   1   2
ATOM      2  C   UNL     1      46.272   5.157  12.695  0.00  0.00    +0.000 A 
ATOM      3  C   UNL     1      46.207   6.090  11.655  0.00  0.00    +0.000 A 
ATOM      4  C   UNL     1      45.558   5.778  10.455  0.00  0.00    +0.000 A 
ATOM      5  C   UNL     1      44.949   4.530  10.269  0.00  0.00    +0.000 A 
ATOM      6  C   UNL     1      44.983   3.613  11.330  0.00  0.00    +0.000 A 
ATOM      7  C   UNL     1      45.635   3.921  12.530  0.00  0.00    +0.000 A 
BRANCH   5   8
ATOM      8  C   UNL     1      44.215   4.200   8.980  0.00  0.00    +0.000 C 
BRANCH   8   9
ATOM      9  N   UNL     1      44.942   3.457   7.950  0.00  0.00    +0.000 NA
ATOM     10  C   UNL     1      44.988   2.005   8.086  0.00  0.00    +0.000 C 
ATOM     11  C   UNL     1      46.461   1.638   8.113  0.00  0.00    +0.000 C 
ATOM     12  C   UNL     1      47.138   2.746   7.312  0.00  0.00    +0.000 C 
ATOM     13  C   UNL     1      46.268   3.967   7.608  0.00  0.00    +0.000 C 
BRANCH  12  14
ATOM     14  C   UNL     1      47.214   2.429   5.818  0.00  0.00    +0.000 C 
BRANCH  14  15
ATOM     15  O   UNL     1      48.426   1.742   5.517  0.00  0.00    +0.000 OA
ATOM     16  H   UNL     1      49.109   2.065   6.128  0.00  0.00    +0.000 HD
ENDBRANCH  14  15
ENDBRANCH  12  14
ENDBRANCH   8   9
ENDBRANCH   5   8
ENDBRANCH   1   2
BRANCH   1  19
ATOM     17  O   UNL     1      47.571   8.228  14.383  0.00  0.00    +0.000 OA
ATOM     18  C   UNL     1      48.463   7.472  14.000  0.00  0.00    +0.000 C 
ATOM     19  N   UNL     1      48.241   6.149  13.728  0.00  0.00    +0.000 N 
ATOM     20  H   UNL     1      49.036   5.534  13.588  0.00  0.00    +0.000 HD
BRANCH  18  21
ATOM     21  C   UNL     1      49.825   7.962  13.753  0.00  0.00    +0.000 A 
ATOM     22  C   UNL     1      50.103   8.672  12.592  0.00  0.00    +0.000 A 
ATOM     23  S   UNL     1      51.734   9.149  12.455  0.00  0.00    +0.000 S 
ATOM     24  C   UNL     1      52.118   8.463  13.964  0.00  0.00    +0.000 A 
ATOM     25  N   UNL     1      53.379   8.545  14.468  0.00  0.00    +0.000 NA
ATOM     26  C   UNL     1      53.520   8.022  15.639  0.00  0.00    +0.000 A 
ATOM     27  N   UNL     1      52.518   7.412  16.348  0.00  0.00    +0.000 N 
ATOM     28  C   UNL     1      51.252   7.233  15.845  0.00  0.00    +0.000 A 
ATOM     29  O   UNL     1      50.421   6.560  16.446  0.00  0.00    +0.000 OA
ATOM     30  C   UNL     1      51.024   7.852  14.551  0.00  0.00    +0.000 A 
ATOM     31  H   UNL     1      52.702   6.993  17.247  0.00  0.00    +0.000 HD
ENDBRANCH  18  21
ENDBRANCH   1  19
TORSDOF 7
ENDMDL
MODEL 7
REMARK VINA RESULT:    -6.355      3.940      8.894
REMARK INTER + INTRA:          -9.884
REMARK INTER:                  -8.719
REMARK INTRA:                  -1.165
REMARK UNBOUND:                -1.114
REMARK  Name = 
REMARK  7 active torsions:
REMARK  status: ('A' for Active; 'I' for Inactive)
REMARK    1  A    between atoms: C_2  and  C_19
REMARK    2  A    between atoms: N_3  and  C_4
REMARK    3  A    between atoms: C_4  and  C_5
REMARK    4  A    between atoms: C_8  and  C_9
REMARK    5  A    between atoms: C_9  and  N_10
REMARK    6  A    between atoms: C_13  and  C_14
REMARK    7  A    between atoms: C_14  and  O_15
REMARK                            x       y       z     vdW  Elec       q    Type
REMARK                         _______ _______ _______ _____ _____    ______ ____
ROOT
ATOM      1  C   UNL     1      47.948   7.071  13.437  0.00  0.00    +0.000 C 
ENDROOT
BRANCH   1   2
ATOM      2  C   UNL     1      48.302   6.466  14.771  0.00  0.00    +0.000 A 
ATOM      3  C   UNL     1      47.586   5.369  15.261  0.00  0.00    +0.000 A 
ATOM      4  C   UNL     1      47.914   4.795  16.494  0.00  0.00    +0.000 A 
ATOM      5  C   UNL     1      48.960   5.309  17.272  0.00  0.00    +0.000 A 
ATOM      6  C   UNL     1      49.649   6.434  16.793  0.00  0.00    +0.000 A 
ATOM      7  C   UNL     1      49.325   7.007  15.558  0.00  0.00    +0.000 A 
BRANCH   5   8
ATOM      8  C   UNL     1      49.298   4.709  18.627  0.00  0.00    +0.000 C 
BRANCH   8   9
ATOM      9  N   UNL     1      50.418   3.770  18.698  0.00  0.00    +0.000 NA
ATOM     10  C   UNL     1      51.743   4.334  18.937  0.00  0.00    +0.000 C 
ATOM     11  C   UNL     1      52.605   3.872  17.775  0.00  0.00    +0.000 C 
ATOM     12  C   UNL     1      51.970   2.556  17.338  0.00  0.00    +0.000 C 
ATOM     13  C   UNL     1      50.487   2.771  17.634  0.00  0.00    +0.000 C 
BRANCH  12  14
ATOM     14  C   UNL     1      52.546   1.350  18.083  0.00  0.00    +0.000 C 
BRANCH  14  15
ATOM     15  O   UNL     1      51.609   0.276  18.090  0.00  0.00    +0.000 OA
ATOM     16  H   UNL     1      51.050   0.366  17.300  0.00  0.00    +0.000 HD
ENDBRANCH  14  15
ENDBRANCH  12  14
ENDBRANCH   8   9
ENDBRANCH   5   8
ENDBRANCH   1   2
BRANCH   1  19
ATOM     17  O   UNL     1      45.860   7.712  11.650  0.00  0.00    +0.000 OA
ATOM     18  C   UNL     1      46.237   6.545  11.737  0.00  0.00    +0.000 C 
ATOM     19  N   UNL     1      47.204   6.147  12.621  0.00  0.00    +0.000 N 
ATOM     20  H   UNL     1      47.601   5.217  12.532  0.00  0.00    +0.000 HD
BRANCH  18  21
ATOM     21  C   UNL     1      45.625   5.482  10.929  0.00  0.00    +0.000 A 
ATOM     22  C   UNL     1      45.778   5.490   9.549  0.00  0.00    +0.000 A 
ATOM     23  S   UNL     1      44.990   4.197   8.765  0.00  0.00    +0.000 S 
ATOM     24  C   UNL     1      44.453   3.554  10.246  0.00  0.00    +0.000 A 
ATOM     25  N   UNL     1      43.727   2.406  10.287  0.00  0.00    +0.000 NA
ATOM     26  C   UNL     1      43.424   2.008  11.478  0.00  0.00    +0.000 A 
ATOM     27  N   UNL     1      43.771   2.662  12.631  0.00  0.00    +0.000 N 
ATOM     28  C   UNL     1      44.432   3.866  12.635  0.00  0.00    +0.000 A 
ATOM     29  O   UNL     1      44.601   4.492  13.676  0.00  0.00    +0.000 OA
ATOM     30  C   UNL     1      44.845   4.331  11.323  0.00  0.00    +0.000 A 
ATOM     31  H   UNL     1      43.475   2.315  13.531  0.00  0.00    +0.000 HD
ENDBRANCH  18  21
ENDBRANCH   1  19
TORSDOF 7
ENDMDL
MODEL 8
REMARK VINA RESULT:    -6.214      3.003      4.717
REMARK INTER + INTRA:          -9.689
REMARK INTER:                  -8.595
REMARK INTRA:                  -1.094
REMARK UNBOUND:                -1.114
REMARK  Name = 
REMARK  7 active torsions:
REMARK  status: ('A' for Active; 'I' for Inactive)
REMARK    1  A    between atoms: C_2  and  C_19
REMARK    2  A    between atoms: N_3  and  C_4
REMARK    3  A    between atoms: C_4  and  C_5
REMARK    4  A    between atoms: C_8  and  C_9
REMARK    5  A    between atoms: C_9  and  N_10
REMARK    6  A    between atoms: C_13  and  C_14
REMARK    7  A    between atoms: C_14  and  O_15
REMARK                            x       y       z     vdW  Elec       q    Type
REMARK                         _______ _______ _______ _____ _____    ______ ____
ROOT
ATOM      1  C   UNL     1      49.411   7.134  14.126  0.00  0.00    +0.000 C 
ENDROOT
BRANCH   1   2
ATOM      2  C   UNL     1      48.060   6.932  13.489  0.00  0.00    +0.000 A 
ATOM      3  C   UNL     1      47.572   7.858  12.560  0.00  0.00    +0.000 A 
ATOM      4  C   UNL     1      46.324   7.674  11.957  0.00  0.00    +0.000 A 
ATOM      5  C   UNL     1      45.527   6.566  12.274  0.00  0.00    +0.000 A 
ATOM      6  C   UNL     1      46.004   5.662  13.237  0.00  0.00    +0.000 A 
ATOM      7  C   UNL     1      47.255   5.842  13.839  0.00  0.00    +0.000 A 
BRANCH   5   8
ATOM      8  C   UNL     1      44.156   6.380  11.647  0.00  0.00    +0.000 C 
BRANCH   8   9
ATOM      9  N   UNL     1      43.932   5.182  10.837  0.00  0.00    +0.000 NA
ATOM     10  C   UNL     1      43.004   4.187  11.365  0.00  0.00    +0.000 C 
ATOM     11  C   UNL     1      43.789   2.889  11.443  0.00  0.00    +0.000 C 
ATOM     12  C   UNL     1      44.840   3.022  10.346  0.00  0.00    +0.000 C 
ATOM     13  C   UNL     1      45.130   4.522  10.323  0.00  0.00    +0.000 C 
BRANCH  12  14
ATOM     14  C   UNL     1      44.350   2.499   8.994  0.00  0.00    +0.000 C 
BRANCH  14  15
ATOM     15  O   UNL     1      44.184   3.576   8.076  0.00  0.00    +0.000 OA
ATOM     16  H   UNL     1      44.446   4.396   8.530  0.00  0.00    +0.000 HD
ENDBRANCH  14  15
ENDBRANCH  12  14
ENDBRANCH   8   9
ENDBRANCH   5   8
ENDBRANCH   1   2
BRANCH   1  19
ATOM     17  O   UNL     1      51.608   6.948  15.887  0.00  0.00    +0.000 OA
ATOM     18  C   UNL     1      50.468   6.919  16.347  0.00  0.00    +0.000 C 
ATOM     19  N   UNL     1      49.352   6.946  15.552  0.00  0.00    +0.000 N 
ATOM     20  H   UNL     1      48.445   7.097  15.982  0.00  0.00    +0.000 HD
BRANCH  18  21
ATOM     21  C   UNL     1      50.228   6.793  17.791  0.00  0.00    +0.000 A 
ATOM     22  C   UNL     1      50.553   7.844  18.638  0.00  0.00    +0.000 A 
ATOM     23  S   UNL     1      50.228   7.524  20.281  0.00  0.00    +0.000 S 
ATOM     24  C   UNL     1      49.600   5.985  19.914  0.00  0.00    +0.000 A 
ATOM     25  N   UNL     1      49.111   5.179  20.893  0.00  0.00    +0.000 NA
ATOM     26  C   UNL     1      48.626   4.060  20.469  0.00  0.00    +0.000 A 
ATOM     27  N   UNL     1      48.597   3.669  19.156  0.00  0.00    +0.000 N 
ATOM     28  C   UNL     1      49.153   4.413  18.145  0.00  0.00    +0.000 A 
ATOM     29  O   UNL     1      49.237   3.969  17.004  0.00  0.00    +0.000 OA
ATOM     30  C   UNL     1      49.664   5.707  18.560  0.00  0.00    +0.000 A 
ATOM     31  H   UNL     1      48.232   2.765  18.894  0.00  0.00    +0.000 HD
ENDBRANCH  18  21
ENDBRANCH   1  19
TORSDOF 7
ENDMDL
MODEL 9
REMARK VINA RESULT:    -6.158      3.171      5.133
REMARK INTER + INTRA:          -9.613
REMARK INTER:                  -8.244
REMARK INTRA:                  -1.369
REMARK UNBOUND:                -1.114
REMARK  Name = 
REMARK  7 active torsions:
REMARK  status: ('A' for Active; 'I' for Inactive)
REMARK    1  A    between atoms: C_2  and  C_19
REMARK    2  A    between atoms: N_3  and  C_4
REMARK    3  A    between atoms: C_4  and  C_5
REMARK    4  A    between atoms: C_8  and  C_9
REMARK    5  A    between atoms: C_9  and  N_10
REMARK    6  A    between atoms: C_13  and  C_14
REMARK    7  A    between atoms: C_14  and  O_15
REMARK                            x       y       z     vdW  Elec       q    Type
REMARK                         _______ _______ _______ _____ _____    ______ ____
ROOT
ATOM      1  C   UNL     1      49.571   8.743  14.294  0.00  0.00    +0.000 C 
ENDROOT
BRANCH   1   2
ATOM      2  C   UNL     1      48.358   8.338  13.496  0.00  0.00    +0.000 A 
ATOM      3  C   UNL     1      47.118   8.936  13.742  0.00  0.00    +0.000 A 
ATOM      4  C   UNL     1      45.990   8.572  13.000  0.00  0.00    +0.000 A 
ATOM      5  C   UNL     1      46.070   7.594  11.999  0.00  0.00    +0.000 A 
ATOM      6  C   UNL     1      47.308   6.969  11.785  0.00  0.00    +0.000 A 
ATOM      7  C   UNL     1      48.439   7.334  12.524  0.00  0.00    +0.000 A 
BRANCH   5   8
ATOM      8  C   UNL     1      44.840   7.172  11.214  0.00  0.00    +0.000 C 
BRANCH   8   9
ATOM      9  N   UNL     1      44.296   5.836  11.462  0.00  0.00    +0.000 NA
ATOM     10  C   UNL     1      44.416   5.312  12.818  0.00  0.00    +0.000 C 
ATOM     11  C   UNL     1      45.165   3.997  12.689  0.00  0.00    +0.000 C 
ATOM     12  C   UNL     1      44.821   3.507  11.286  0.00  0.00    +0.000 C 
ATOM     13  C   UNL     1      44.664   4.804  10.495  0.00  0.00    +0.000 C 
BRANCH  12  14
ATOM     14  C   UNL     1      43.557   2.646  11.257  0.00  0.00    +0.000 C 
BRANCH  14  15
ATOM     15  O   UNL     1      43.376   1.986  12.507  0.00  0.00    +0.000 OA
ATOM     16  H   UNL     1      43.891   1.161  12.484  0.00  0.00    +0.000 HD
ENDBRANCH  14  15
ENDBRANCH  12  14
ENDBRANCH   8   9
ENDBRANCH   5   8
ENDBRANCH   1   2
BRANCH   1  19
ATOM     17  O   UNL     1      48.551   9.425  16.835  0.00  0.00    +0.000 OA
ATOM     18  C   UNL     1      49.118   8.344  16.687  0.00  0.00    +0.000 C 
ATOM     19  N   UNL     1      49.689   7.967  15.501  0.00  0.00    +0.000 N 
ATOM     20  H   UNL     1      49.986   7.005  15.380  0.00  0.00    +0.000 HD
BRANCH  18  21
ATOM     21  C   UNL     1      49.272   7.403  17.805  0.00  0.00    +0.000 A 
ATOM     22  C   UNL     1      49.762   7.853  19.024  0.00  0.00    +0.000 A 
ATOM     23  S   UNL     1      49.894   6.629  20.202  0.00  0.00    +0.000 S 
ATOM     24  C   UNL     1      49.260   5.461  19.140  0.00  0.00    +0.000 A 
ATOM     25  N   UNL     1      49.080   4.174  19.542  0.00  0.00    +0.000 NA
ATOM     26  C   UNL     1      48.550   3.406  18.651  0.00  0.00    +0.000 A 
ATOM     27  N   UNL     1      48.195   3.803  17.388  0.00  0.00    +0.000 N 
ATOM     28  C   UNL     1      48.433   5.069  16.912  0.00  0.00    +0.000 A 
ATOM     29  O   UNL     1      48.233   5.351  15.735  0.00  0.00    +0.000 OA
ATOM     30  C   UNL     1      48.978   5.991  17.893  0.00  0.00    +0.000 A 
ATOM     31  H   UNL     1      47.814   3.144  16.727  0.00  0.00    +0.000 HD
ENDBRANCH  18  21
ENDBRANCH   1  19
TORSDOF 7
ENDMDL
