MODEL 1
REMARK VINA RESULT:    -8.517      0.000      0.000
REMARK INTER + INTRA:         -11.840
REMARK INTER:                 -11.007
REMARK INTRA:                  -0.833
REMARK UNBOUND:                -0.833
REMARK  Name = 
REMARK  6 active torsions:
REMARK  status: ('A' for Active; 'I' for Inactive)
REMARK    1  A    between atoms: C_1  and  C_2
REMARK    2  A    between atoms: C_2  and  N_3
REMARK    3  A    between atoms: C_2  and  C_16
REMARK    4  A    between atoms: C_4  and  C_6
REMARK    5  A    between atoms: C_19  and  C_20
REMARK    6  A    between atoms: C_20  and  C_21
REMARK                            x       y       z     vdW  Elec       q    Type
REMARK                         _______ _______ _______ _____ _____    ______ ____
ROOT
ATOM      1  C   UNL     1      45.523   8.689  12.996  0.00  0.00    +0.000 C 
ATOM      2  C   UNL     1      46.632   7.671  12.745  0.00  0.00    +0.000 C 
ENDROOT
BRANCH   2   3
ATOM      3  C   UNL     1      46.127   6.539  11.856  0.00  0.00    +0.000 A 
ATOM      4  N   UNL     1      45.319   5.612  12.408  0.00  0.00    +0.000 NA
ATOM      5  C   UNL     1      44.792   4.701  11.566  0.00  0.00    +0.000 A 
ATOM      6  C   UNL     1      45.040   4.664  10.210  0.00  0.00    +0.000 A 
ATOM      7  C   UNL     1      45.912   5.631   9.755  0.00  0.00    +0.000 A 
ATOM      8  N   UNL     1      46.468   6.567  10.546  0.00  0.00    +0.000 NA
BRANCH   6   9
ATOM      9  C   UNL     1      44.396   3.668   9.299  0.00  0.00    +0.000 C 
BRANCH   9  10
ATOM     10  C   UNL     1      45.362   2.883   8.451  0.00  0.00    +0.000 A 
ATOM     11  C   UNL     1      45.985   3.447   7.333  0.00  0.00    +0.000 A 
ATOM     12  C   UNL     1      46.825   2.667   6.542  0.00  0.00    +0.000 A 
ATOM     13  C   UNL     1      47.026   1.345   6.900  0.00  0.00    +0.000 A 
ATOM     14  N   UNL     1      46.468   0.773   7.988  0.00  0.00    +0.000 NA
ATOM     15  C   UNL     1      45.658   1.553   8.738  0.00  0.00    +0.000 A 
ENDBRANCH   9  10
ENDBRANCH   6   9
ENDBRANCH   2   3
BRANCH   2  16
ATOM     16  N   UNL     1      47.112   7.133  14.011  0.00  0.00    +0.000 N 
ATOM     17  C   UNL     1      48.394   6.740  14.249  0.00  0.00    +0.000 C 
ATOM     18  O   UNL     1      49.252   6.703  13.373  0.00  0.00    +0.000 OA
ATOM     19  H   UNL     1      46.448   7.226  14.774  0.00  0.00    +0.000 HD
BRANCH  17  20
ATOM     20  C   UNL     1      48.666   6.302  15.622  0.00  0.00    +0.000 A 
ATOM     21  C   UNL     1      49.438   7.084  16.469  0.00  0.00    +0.000 A 
ATOM     22  S   UNL     1      49.665   6.391  18.011  0.00  0.00    +0.000 S 
ATOM     23  C   UNL     1      48.713   5.038  17.608  0.00  0.00    +0.000 A 
ATOM     24  N   UNL     1      48.490   4.043  18.509  0.00  0.00    +0.000 NA
ATOM     25  C   UNL     1      47.735   3.090  18.073  0.00  0.00    +0.000 A 
ATOM     26  N   UNL     1      47.179   3.043  16.822  0.00  0.00    +0.000 N 
ATOM     27  C   UNL     1      47.379   4.021  15.878  0.00  0.00    +0.000 A 
ATOM     28  O   UNL     1      46.883   3.927  14.758  0.00  0.00    +0.000 OA
ATOM     29  C   UNL     1      48.232   5.111  16.314  0.00  0.00    +0.000 A 
ATOM     30  H   UNL     1      46.599   2.268  16.539  0.00  0.00    +0.000 HD
ENDBRANCH  17  20
ENDBRANCH   2  16
TORSDOF 5
ENDMDL
MODEL 2
REMARK VINA RESULT:    -8.032      2.730      4.117
REMARK INTER + INTRA:         -11.212
REMARK INTER:                 -10.250
REMARK INTRA:                  -0.962
REMARK UNBOUND:                -0.833
REMARK  Name = 
REMARK  6 active torsions:
REMARK  status: ('A' for Active; 'I' for Inactive)
REMARK    1  A    between atoms: C_1  and  C_2
REMARK    2  A    between atoms: C_2  and  N_3
REMARK    3  A    between atoms: C_2  and  C_16
REMARK    4  A    between atoms: C_4  and  C_6
REMARK    5  A    between atoms: C_19  and  C_20
REMARK    6  A    between atoms: C_20  and  C_21
REMARK                            x       y       z     vdW  Elec       q    Type
REMARK                         _______ _______ _______ _____ _____    ______ ____
ROOT
ATOM      1  C   UNL     1      46.744   4.552  14.492  0.00  0.00    +0.000 C 
ATOM      2  C   UNL     1      46.215   5.587  13.503  0.00  0.00    +0.000 C 
ENDROOT
BRANCH   2   3
ATOM      3  C   UNL     1      45.662   4.902  12.257  0.00  0.00    +0.000 A 
ATOM      4  N   UNL     1      45.648   5.598  11.104  0.00  0.00    +0.000 NA
ATOM      5  C   UNL     1      45.271   4.921  10.002  0.00  0.00    +0.000 A 
ATOM      6  C   UNL     1      44.900   3.593   9.997  0.00  0.00    +0.000 A 
ATOM      7  C   UNL     1      44.909   2.986  11.235  0.00  0.00    +0.000 A 
ATOM      8  N   UNL     1      45.277   3.608  12.370  0.00  0.00    +0.000 NA
BRANCH   6   9
ATOM      9  C   UNL     1      44.536   2.861   8.743  0.00  0.00    +0.000 C 
BRANCH   9  10
ATOM     10  C   UNL     1      45.703   2.545   7.846  0.00  0.00    +0.000 A 
ATOM     11  C   UNL     1      46.099   3.411   6.822  0.00  0.00    +0.000 A 
ATOM     12  C   UNL     1      47.146   3.051   5.976  0.00  0.00    +0.000 A 
ATOM     13  C   UNL     1      47.775   1.836   6.189  0.00  0.00    +0.000 A 
ATOM     14  N   UNL     1      47.443   0.987   7.185  0.00  0.00    +0.000 NA
ATOM     15  C   UNL     1      46.424   1.362   7.991  0.00  0.00    +0.000 A 
ENDBRANCH   9  10
ENDBRANCH   6   9
ENDBRANCH   2   3
BRANCH   2  16
ATOM     16  N   UNL     1      47.279   6.511  13.132  0.00  0.00    +0.000 N 
ATOM     17  C   UNL     1      47.162   7.868  13.139  0.00  0.00    +0.000 C 
ATOM     18  O   UNL     1      46.102   8.444  13.362  0.00  0.00    +0.000 OA
ATOM     19  H   UNL     1      48.186   6.069  13.022  0.00  0.00    +0.000 HD
BRANCH  17  20
ATOM     20  C   UNL     1      48.388   8.600  12.802  0.00  0.00    +0.000 A 
ATOM     21  C   UNL     1      48.360   9.625  11.868  0.00  0.00    +0.000 A 
ATOM     22  S   UNL     1      49.889  10.331  11.592  0.00  0.00    +0.000 S 
ATOM     23  C   UNL     1      50.632   9.312  12.736  0.00  0.00    +0.000 A 
ATOM     24  N   UNL     1      51.963   9.406  13.000  0.00  0.00    +0.000 NA
ATOM     25  C   UNL     1      52.386   8.584  13.903  0.00  0.00    +0.000 A 
ATOM     26  N   UNL     1      51.599   7.682  14.569  0.00  0.00    +0.000 N 
ATOM     27  C   UNL     1      50.252   7.548  14.334  0.00  0.00    +0.000 A 
ATOM     28  O   UNL     1      49.588   6.708  14.935  0.00  0.00    +0.000 OA
ATOM     29  C   UNL     1      49.728   8.442  13.318  0.00  0.00    +0.000 A 
ATOM     30  H   UNL     1      51.990   7.063  15.264  0.00  0.00    +0.000 HD
ENDBRANCH  17  20
ENDBRANCH   2  16
TORSDOF 5
ENDMDL
MODEL 3
REMARK VINA RESULT:    -7.770      3.155      7.683
REMARK INTER + INTRA:         -10.874
REMARK INTER:                  -9.916
REMARK INTRA:                  -0.958
REMARK UNBOUND:                -0.833
REMARK  Name = 
REMARK  6 active torsions:
REMARK  status: ('A' for Active; 'I' for Inactive)
REMARK    1  A    between atoms: C_1  and  C_2
REMARK    2  A    between atoms: C_2  and  N_3
REMARK    3  A    between atoms: C_2  and  C_16
REMARK    4  A    between atoms: C_4  and  C_6
REMARK    5  A    between atoms: C_19  and  C_20
REMARK    6  A    between atoms: C_20  and  C_21
REMARK                            x       y       z     vdW  Elec       q    Type
REMARK                         _______ _______ _______ _____ _____    ______ ____
ROOT
ATOM      1  C   UNL     1      49.649   7.474  12.282  0.00  0.00    +0.000 C 
ATOM      2  C   UNL     1      48.352   7.242  13.053  0.00  0.00    +0.000 C 
ENDROOT
BRANCH   2   3
ATOM      3  C   UNL     1      48.650   6.686  14.443  0.00  0.00    +0.000 A 
ATOM      4  N   UNL     1      47.869   5.692  14.909  0.00  0.00    +0.000 NA
ATOM      5  C   UNL     1      48.238   5.142  16.082  0.00  0.00    +0.000 A 
ATOM      6  C   UNL     1      49.336   5.542  16.814  0.00  0.00    +0.000 A 
ATOM      7  C   UNL     1      50.042   6.594  16.269  0.00  0.00    +0.000 A 
ATOM      8  N   UNL     1      49.724   7.182  15.102  0.00  0.00    +0.000 NA
BRANCH   6   9
ATOM      9  C   UNL     1      49.743   4.873  18.089  0.00  0.00    +0.000 C 
BRANCH   9  10
ATOM     10  C   UNL     1      50.577   3.632  17.902  0.00  0.00    +0.000 A 
ATOM     11  C   UNL     1      51.931   3.597  18.250  0.00  0.00    +0.000 A 
ATOM     12  C   UNL     1      52.679   2.449  18.004  0.00  0.00    +0.000 A 
ATOM     13  C   UNL     1      52.045   1.362  17.427  0.00  0.00    +0.000 A 
ATOM     14  N   UNL     1      50.734   1.345  17.106  0.00  0.00    +0.000 NA
ATOM     15  C   UNL     1      50.032   2.473  17.356  0.00  0.00    +0.000 A 
ENDBRANCH   9  10
ENDBRANCH   6   9
ENDBRANCH   2   3
BRANCH   2  16
ATOM     16  N   UNL     1      47.494   6.320  12.322  0.00  0.00    +0.000 N 
ATOM     17  C   UNL     1      46.362   6.679  11.656  0.00  0.00    +0.000 C 
ATOM     18  O   UNL     1      45.895   7.812  11.699  0.00  0.00    +0.000 OA
ATOM     19  H   UNL     1      47.895   5.395  12.201  0.00  0.00    +0.000 HD
BRANCH  17  20
ATOM     20  C   UNL     1      45.699   5.594  10.925  0.00  0.00    +0.000 A 
ATOM     21  C   UNL     1      45.789   5.520   9.543  0.00  0.00    +0.000 A 
ATOM     22  S   UNL     1      44.927   4.206   8.877  0.00  0.00    +0.000 S 
ATOM     23  C   UNL     1      44.432   3.674  10.417  0.00  0.00    +0.000 A 
ATOM     24  N   UNL     1      43.658   2.564  10.561  0.00  0.00    +0.000 NA
ATOM     25  C   UNL     1      43.376   2.269  11.786  0.00  0.00    +0.000 A 
ATOM     26  N   UNL     1      43.799   2.978  12.879  0.00  0.00    +0.000 N 
ATOM     27  C   UNL     1      44.576   4.107  12.783  0.00  0.00    +0.000 A 
ATOM     28  O   UNL     1      44.911   4.728  13.788  0.00  0.00    +0.000 OA
ATOM     29  C   UNL     1      44.913   4.490  11.425  0.00  0.00    +0.000 A 
ATOM     30  H   UNL     1      43.540   2.698  13.814  0.00  0.00    +0.000 HD
ENDBRANCH  17  20
ENDBRANCH   2  16
TORSDOF 5
ENDMDL
MODEL 4
REMARK VINA RESULT:    -7.284      2.135      3.925
REMARK INTER + INTRA:         -10.245
REMARK INTER:                  -9.763
REMARK INTRA:                  -0.483
REMARK UNBOUND:                -0.833
REMARK  Name = 
REMARK  6 active torsions:
REMARK  status: ('A' for Active; 'I' for Inactive)
REMARK    1  A    between atoms: C_1  and  C_2
REMARK    2  A    between atoms: C_2  and  N_3
REMARK    3  A    between atoms: C_2  and  C_16
REMARK    4  A    between atoms: C_4  and  C_6
REMARK    5  A    between atoms: C_19  and  C_20
REMARK    6  A    between atoms: C_20  and  C_21
REMARK                            x       y       z     vdW  Elec       q    Type
REMARK                         _______ _______ _______ _____ _____    ______ ____
ROOT
ATOM      1  C   UNL     1      47.479   3.611  14.752  0.00  0.00    +0.000 C 
ATOM      2  C   UNL     1      46.519   4.759  14.450  0.00  0.00    +0.000 C 
ENDROOT
BRANCH   2   3
ATOM      3  C   UNL     1      45.869   4.565  13.083  0.00  0.00    +0.000 A 
ATOM      4  N   UNL     1      46.066   5.513  12.147  0.00  0.00    +0.000 NA
ATOM      5  C   UNL     1      45.583   5.249  10.917  0.00  0.00    +0.000 A 
ATOM      6  C   UNL     1      44.907   4.094  10.582  0.00  0.00    +0.000 A 
ATOM      7  C   UNL     1      44.724   3.208  11.623  0.00  0.00    +0.000 A 
ATOM      8  N   UNL     1      45.183   3.416  12.870  0.00  0.00    +0.000 NA
BRANCH   6   9
ATOM      9  C   UNL     1      44.431   3.813   9.191  0.00  0.00    +0.000 C 
BRANCH   9  10
ATOM     10  C   UNL     1      45.394   3.017   8.351  0.00  0.00    +0.000 A 
ATOM     11  C   UNL     1      45.992   3.556   7.209  0.00  0.00    +0.000 A 
ATOM     12  C   UNL     1      46.830   2.765   6.426  0.00  0.00    +0.000 A 
ATOM     13  C   UNL     1      47.054   1.457   6.819  0.00  0.00    +0.000 A 
ATOM     14  N   UNL     1      46.521   0.909   7.932  0.00  0.00    +0.000 NA
ATOM     15  C   UNL     1      45.711   1.700   8.672  0.00  0.00    +0.000 A 
ENDBRANCH   9  10
ENDBRANCH   6   9
ENDBRANCH   2   3
BRANCH   2  16
ATOM     16  N   UNL     1      47.232   6.028  14.486  0.00  0.00    +0.000 N 
ATOM     17  C   UNL     1      48.117   6.392  15.456  0.00  0.00    +0.000 C 
ATOM     18  O   UNL     1      48.318   5.717  16.460  0.00  0.00    +0.000 OA
ATOM     19  H   UNL     1      47.148   6.570  13.632  0.00  0.00    +0.000 HD
BRANCH  17  20
ATOM     20  C   UNL     1      48.774   7.686  15.246  0.00  0.00    +0.000 A 
ATOM     21  C   UNL     1      48.834   8.619  16.270  0.00  0.00    +0.000 A 
ATOM     22  S   UNL     1      49.612  10.070  15.821  0.00  0.00    +0.000 S 
ATOM     23  C   UNL     1      49.922   9.486  14.251  0.00  0.00    +0.000 A 
ATOM     24  N   UNL     1      50.583  10.247  13.337  0.00  0.00    +0.000 NA
ATOM     25  C   UNL     1      50.764   9.670  12.196  0.00  0.00    +0.000 A 
ATOM     26  N   UNL     1      50.350   8.401  11.887  0.00  0.00    +0.000 N 
ATOM     27  C   UNL     1      49.676   7.598  12.774  0.00  0.00    +0.000 A 
ATOM     28  O   UNL     1      49.299   6.475  12.448  0.00  0.00    +0.000 OA
ATOM     29  C   UNL     1      49.436   8.204  14.071  0.00  0.00    +0.000 A 
ATOM     30  H   UNL     1      50.518   8.006  10.974  0.00  0.00    +0.000 HD
ENDBRANCH  17  20
ENDBRANCH   2  16
TORSDOF 5
ENDMDL
MODEL 5
REMARK VINA RESULT:    -7.242      3.726      5.663
REMARK INTER + INTRA:         -10.191
REMARK INTER:                  -9.320
REMARK INTRA:                  -0.871
REMARK UNBOUND:                -0.833
REMARK  Name = 
REMARK  6 active torsions:
REMARK  status: ('A' for Active; 'I' for Inactive)
REMARK    1  A    between atoms: C_1  and  C_2
REMARK    2  A    between atoms: C_2  and  N_3
REMARK    3  A    between atoms: C_2  and  C_16
REMARK    4  A    between atoms: C_4  and  C_6
REMARK    5  A    between atoms: C_19  and  C_20
REMARK    6  A    between atoms: C_20  and  C_21
REMARK                            x       y       z     vdW  Elec       q    Type
REMARK                         _______ _______ _______ _____ _____    ______ ____
ROOT
ATOM      1  C   UNL     1      47.706   2.889  17.736  0.00  0.00    +0.000 C 
ATOM      2  C   UNL     1      48.480   4.149  17.355  0.00  0.00    +0.000 C 
ENDROOT
BRANCH   2   3
ATOM      3  C   UNL     1      48.092   4.611  15.954  0.00  0.00    +0.000 A 
ATOM      4  N   UNL     1      47.376   3.768  15.183  0.00  0.00    +0.000 NA
ATOM      5  C   UNL     1      46.945   4.256  14.004  0.00  0.00    +0.000 A 
ATOM      6  C   UNL     1      47.202   5.535  13.554  0.00  0.00    +0.000 A 
ATOM      7  C   UNL     1      47.977   6.301  14.400  0.00  0.00    +0.000 A 
ATOM      8  N   UNL     1      48.435   5.870  15.589  0.00  0.00    +0.000 NA
BRANCH   6   9
ATOM      9  C   UNL     1      46.662   6.058  12.260  0.00  0.00    +0.000 C 
BRANCH   9  10
ATOM     10  C   UNL     1      45.267   5.594  11.934  0.00  0.00    +0.000 A 
ATOM     11  C   UNL     1      44.977   4.912  10.749  0.00  0.00    +0.000 A 
ATOM     12  C   UNL     1      43.662   4.555  10.459  0.00  0.00    +0.000 A 
ATOM     13  C   UNL     1      42.675   4.883  11.373  0.00  0.00    +0.000 A 
ATOM     14  N   UNL     1      42.918   5.513  12.541  0.00  0.00    +0.000 NA
ATOM     15  C   UNL     1      44.203   5.847  12.797  0.00  0.00    +0.000 A 
ENDBRANCH   9  10
ENDBRANCH   6   9
ENDBRANCH   2   3
BRANCH   2  16
ATOM     16  N   UNL     1      49.912   3.892  17.415  0.00  0.00    +0.000 N 
ATOM     17  C   UNL     1      50.699   4.140  18.499  0.00  0.00    +0.000 C 
ATOM     18  O   UNL     1      50.286   4.709  19.504  0.00  0.00    +0.000 OA
ATOM     19  H   UNL     1      50.265   3.350  16.632  0.00  0.00    +0.000 HD
BRANCH  17  20
ATOM     20  C   UNL     1      52.099   3.729  18.359  0.00  0.00    +0.000 A 
ATOM     21  C   UNL     1      53.125   4.603  18.690  0.00  0.00    +0.000 A 
ATOM     22  S   UNL     1      54.680   3.952  18.430  0.00  0.00    +0.000 S 
ATOM     23  C   UNL     1      54.035   2.468  17.898  0.00  0.00    +0.000 A 
ATOM     24  N   UNL     1      54.847   1.443  17.523  0.00  0.00    +0.000 NA
ATOM     25  C   UNL     1      54.220   0.373  17.161  0.00  0.00    +0.000 A 
ATOM     26  N   UNL     1      52.858   0.233  17.144  0.00  0.00    +0.000 N 
ATOM     27  C   UNL     1      51.998   1.240  17.508  0.00  0.00    +0.000 A 
ATOM     28  O   UNL     1      50.781   1.081  17.453  0.00  0.00    +0.000 OA
ATOM     29  C   UNL     1      52.652   2.471  17.914  0.00  0.00    +0.000 A 
ATOM     30  H   UNL     1      52.427  -0.630  16.847  0.00  0.00    +0.000 HD
ENDBRANCH  17  20
ENDBRANCH   2  16
TORSDOF 5
ENDMDL
MODEL 6
REMARK VINA RESULT:    -7.137      2.667      3.652
REMARK INTER + INTRA:         -10.056
REMARK INTER:                  -9.050
REMARK INTRA:                  -1.006
REMARK UNBOUND:                -0.833
REMARK  Name = 
REMARK  6 active torsions:
REMARK  status: ('A' for Active; 'I' for Inactive)
REMARK    1  A    between atoms: C_1  and  C_2
REMARK    2  A    between atoms: C_2  and  N_3
REMARK    3  A    between atoms: C_2  and  C_16
REMARK    4  A    between atoms: C_4  and  C_6
REMARK    5  A    between atoms: C_19  and  C_20
REMARK    6  A    between atoms: C_20  and  C_21
REMARK                            x       y       z     vdW  Elec       q    Type
REMARK                         _______ _______ _______ _____ _____    ______ ____
ROOT
ATOM      1  C   UNL     1      49.091   8.104  13.676  0.00  0.00    +0.000 C 
ATOM      2  C   UNL     1      48.634   6.729  14.158  0.00  0.00    +0.000 C 
ENDROOT
BRANCH   2   3
ATOM      3  C   UNL     1      47.452   6.238  13.327  0.00  0.00    +0.000 A 
ATOM      4  N   UNL     1      47.078   6.971  12.261  0.00  0.00    +0.000 NA
ATOM      5  C   UNL     1      46.115   6.444  11.481  0.00  0.00    +0.000 A 
ATOM      6  C   UNL     1      45.502   5.231  11.718  0.00  0.00    +0.000 A 
ATOM      7  C   UNL     1      45.929   4.581  12.858  0.00  0.00    +0.000 A 
ATOM      8  N   UNL     1      46.887   5.056  13.674  0.00  0.00    +0.000 NA
BRANCH   6   9
ATOM      9  C   UNL     1      44.472   4.654  10.800  0.00  0.00    +0.000 C 
BRANCH   9  10
ATOM     10  C   UNL     1      45.036   3.888   9.632  0.00  0.00    +0.000 A 
ATOM     11  C   UNL     1      45.078   2.491   9.621  0.00  0.00    +0.000 A 
ATOM     12  C   UNL     1      45.663   1.824   8.548  0.00  0.00    +0.000 A 
ATOM     13  C   UNL     1      46.181   2.578   7.509  0.00  0.00    +0.000 A 
ATOM     14  N   UNL     1      46.133   3.926   7.468  0.00  0.00    +0.000 NA
ATOM     15  C   UNL     1      45.558   4.547   8.523  0.00  0.00    +0.000 A 
ENDBRANCH   9  10
ENDBRANCH   6   9
ENDBRANCH   2   3
BRANCH   2  16
ATOM     16  N   UNL     1      48.262   6.791  15.564  0.00  0.00    +0.000 N 
ATOM     17  C   UNL     1      49.037   6.341  16.590  0.00  0.00    +0.000 C 
ATOM     18  O   UNL     1      50.089   5.737  16.414  0.00  0.00    +0.000 OA
ATOM     19  H   UNL     1      47.438   7.355  15.746  0.00  0.00    +0.000 HD
BRANCH  17  20
ATOM     20  C   UNL     1      48.492   6.578  17.932  0.00  0.00    +0.000 A 
ATOM     21  C   UNL     1      48.314   5.523  18.814  0.00  0.00    +0.000 A 
ATOM     22  S   UNL     1      47.643   5.997  20.310  0.00  0.00    +0.000 S 
ATOM     23  C   UNL     1      47.599   7.633  19.838  0.00  0.00    +0.000 A 
ATOM     24  N   UNL     1      47.132   8.594  20.681  0.00  0.00    +0.000 NA
ATOM     25  C   UNL     1      47.176   9.792  20.197  0.00  0.00    +0.000 A 
ATOM     26  N   UNL     1      47.647  10.116  18.952  0.00  0.00    +0.000 N 
ATOM     27  C   UNL     1      48.122   9.180  18.066  0.00  0.00    +0.000 A 
ATOM     28  O   UNL     1      48.511   9.511  16.949  0.00  0.00    +0.000 OA
ATOM     29  C   UNL     1      48.085   7.815  18.556  0.00  0.00    +0.000 A 
ATOM     30  H   UNL     1      47.651  11.072  18.630  0.00  0.00    +0.000 HD
ENDBRANCH  17  20
ENDBRANCH   2  16
TORSDOF 5
ENDMDL
MODEL 7
REMARK VINA RESULT:    -7.038      2.509      4.178
REMARK INTER + INTRA:          -9.928
REMARK INTER:                  -8.914
REMARK INTRA:                  -1.014
REMARK UNBOUND:                -0.833
REMARK  Name = 
REMARK  6 active torsions:
REMARK  status: ('A' for Active; 'I' for Inactive)
REMARK    1  A    between atoms: C_1  and  C_2
REMARK    2  A    between atoms: C_2  and  N_3
REMARK    3  A    between atoms: C_2  and  C_16
REMARK    4  A    between atoms: C_4  and  C_6
REMARK    5  A    between atoms: C_19  and  C_20
REMARK    6  A    between atoms: C_20  and  C_21
REMARK                            x       y       z     vdW  Elec       q    Type
REMARK                         _______ _______ _______ _____ _____    ______ ____
ROOT
ATOM      1  C   UNL     1      47.531   3.472  16.111  0.00  0.00    +0.000 C 
ATOM      2  C   UNL     1      47.231   4.811  15.442  0.00  0.00    +0.000 C 
ENDROOT
BRANCH   2   3
ATOM      3  C   UNL     1      46.543   4.595  14.098  0.00  0.00    +0.000 A 
ATOM      4  N   UNL     1      46.405   3.330  13.653  0.00  0.00    +0.000 NA
ATOM      5  C   UNL     1      45.684   3.169  12.527  0.00  0.00    +0.000 A 
ATOM      6  C   UNL     1      45.106   4.203  11.821  0.00  0.00    +0.000 A 
ATOM      7  C   UNL     1      45.343   5.459  12.339  0.00  0.00    +0.000 A 
ATOM      8  N   UNL     1      46.053   5.684  13.459  0.00  0.00    +0.000 NA
BRANCH   6   9
ATOM      9  C   UNL     1      44.269   3.979  10.601  0.00  0.00    +0.000 C 
BRANCH   9  10
ATOM     10  C   UNL     1      45.043   3.548   9.384  0.00  0.00    +0.000 A 
ATOM     11  C   UNL     1      45.311   2.201   9.122  0.00  0.00    +0.000 A 
ATOM     12  C   UNL     1      46.083   1.850   8.017  0.00  0.00    +0.000 A 
ATOM     13  C   UNL     1      46.556   2.861   7.198  0.00  0.00    +0.000 A 
ATOM     14  N   UNL     1      46.293   4.170   7.399  0.00  0.00    +0.000 NA
ATOM     15  C   UNL     1      45.542   4.481   8.479  0.00  0.00    +0.000 A 
ENDBRANCH   9  10
ENDBRANCH   6   9
ENDBRANCH   2   3
BRANCH   2  16
ATOM     16  N   UNL     1      48.464   5.563  15.255  0.00  0.00    +0.000 N 
ATOM     17  C   UNL     1      49.047   6.343  16.207  0.00  0.00    +0.000 C 
ATOM     18  O   UNL     1      48.524   6.571  17.293  0.00  0.00    +0.000 OA
ATOM     19  H   UNL     1      48.959   5.332  14.400  0.00  0.00    +0.000 HD
BRANCH  17  20
ATOM     20  C   UNL     1      50.328   6.945  15.820  0.00  0.00    +0.000 A 
ATOM     21  C   UNL     1      51.470   6.709  16.570  0.00  0.00    +0.000 A 
ATOM     22  S   UNL     1      52.850   7.520  15.976  0.00  0.00    +0.000 S 
ATOM     23  C   UNL     1      51.971   8.188  14.679  0.00  0.00    +0.000 A 
ATOM     24  N   UNL     1      52.574   8.994  13.764  0.00  0.00    +0.000 NA
ATOM     25  C   UNL     1      51.791   9.412  12.826  0.00  0.00    +0.000 A 
ATOM     26  N   UNL     1      50.463   9.095  12.716  0.00  0.00    +0.000 N 
ATOM     27  C   UNL     1      49.810   8.290  13.618  0.00  0.00    +0.000 A 
ATOM     28  O   UNL     1      48.611   8.052  13.497  0.00  0.00    +0.000 OA
ATOM     29  C   UNL     1      50.643   7.801  14.700  0.00  0.00    +0.000 A 
ATOM     30  H   UNL     1      49.901   9.457  11.960  0.00  0.00    +0.000 HD
ENDBRANCH  17  20
ENDBRANCH   2  16
TORSDOF 5
ENDMDL
MODEL 8
REMARK VINA RESULT:    -6.845      2.899      8.663
REMARK INTER + INTRA:          -9.679
REMARK INTER:                  -8.695
REMARK INTRA:                  -0.983
REMARK UNBOUND:                -0.833
REMARK  Name = 
REMARK  6 active torsions:
REMARK  status: ('A' for Active; 'I' for Inactive)
REMARK    1  A    between atoms: C_1  and  C_2
REMARK    2  A    between atoms: C_2  and  N_3
REMARK    3  A    between atoms: C_2  and  C_16
REMARK    4  A    between atoms: C_4  and  C_6
REMARK    5  A    between atoms: C_19  and  C_20
REMARK    6  A    between atoms: C_20  and  C_21
REMARK                            x       y       z     vdW  Elec       q    Type
REMARK                         _______ _______ _______ _____ _____    ______ ____
ROOT
ATOM      1  C   UNL     1      48.803   7.670  11.575  0.00  0.00    +0.000 C 
ATOM      2  C   UNL     1      47.877   7.336  12.742  0.00  0.00    +0.000 C 
ENDROOT
BRANCH   2   3
ATOM      3  C   UNL     1      48.690   6.988  13.985  0.00  0.00    +0.000 A 
ATOM      4  N   UNL     1      49.811   7.694  14.229  0.00  0.00    +0.000 NA
ATOM      5  C   UNL     1      50.432   7.445  15.397  0.00  0.00    +0.000 A 
ATOM      6  C   UNL     1      49.998   6.522  16.325  0.00  0.00    +0.000 A 
ATOM      7  C   UNL     1      48.865   5.824  15.959  0.00  0.00    +0.000 A 
ATOM      8  N   UNL     1      48.201   6.029  14.808  0.00  0.00    +0.000 NA
BRANCH   6   9
ATOM      9  C   UNL     1      50.688   6.309  17.636  0.00  0.00    +0.000 C 
BRANCH   9  10
ATOM     10  C   UNL     1      49.758   6.105  18.803  0.00  0.00    +0.000 A 
ATOM     11  C   UNL     1      49.631   4.864  19.434  0.00  0.00    +0.000 A 
ATOM     12  C   UNL     1      48.715   4.705  20.471  0.00  0.00    +0.000 A 
ATOM     13  C   UNL     1      47.959   5.799  20.854  0.00  0.00    +0.000 A 
ATOM     14  N   UNL     1      48.074   7.021  20.292  0.00  0.00    +0.000 NA
ATOM     15  C   UNL     1      48.971   7.147  19.288  0.00  0.00    +0.000 A 
ENDBRANCH   9  10
ENDBRANCH   6   9
ENDBRANCH   2   3
BRANCH   2  16
ATOM     16  N   UNL     1      47.008   6.222  12.387  0.00  0.00    +0.000 N 
ATOM     17  C   UNL     1      45.649   6.287  12.333  0.00  0.00    +0.000 C 
ATOM     18  O   UNL     1      45.015   7.277  12.686  0.00  0.00    +0.000 OA
ATOM     19  H   UNL     1      47.504   5.418  12.015  0.00  0.00    +0.000 HD
BRANCH  17  20
ATOM     20  C   UNL     1      44.984   5.062  11.877  0.00  0.00    +0.000 A 
ATOM     21  C   UNL     1      44.201   4.320  12.749  0.00  0.00    +0.000 A 
ATOM     22  S   UNL     1      43.540   2.917  12.038  0.00  0.00    +0.000 S 
ATOM     23  C   UNL     1      44.253   3.272  10.533  0.00  0.00    +0.000 A 
ATOM     24  N   UNL     1      44.070   2.455   9.460  0.00  0.00    +0.000 NA
ATOM     25  C   UNL     1      44.653   2.858   8.380  0.00  0.00    +0.000 A 
ATOM     26  N   UNL     1      45.397   4.003   8.274  0.00  0.00    +0.000 N 
ATOM     27  C   UNL     1      45.614   4.855   9.330  0.00  0.00    +0.000 A 
ATOM     28  O   UNL     1      46.310   5.858   9.197  0.00  0.00    +0.000 OA
ATOM     29  C   UNL     1      44.988   4.442  10.572  0.00  0.00    +0.000 A 
ATOM     30  H   UNL     1      45.832   4.263   7.401  0.00  0.00    +0.000 HD
ENDBRANCH  17  20
ENDBRANCH   2  16
TORSDOF 5
ENDMDL
MODEL 9
REMARK VINA RESULT:    -6.661      2.210      2.870
REMARK INTER + INTRA:          -9.441
REMARK INTER:                  -8.644
REMARK INTRA:                  -0.796
REMARK UNBOUND:                -0.833
REMARK  Name = 
REMARK  6 active torsions:
REMARK  status: ('A' for Active; 'I' for Inactive)
REMARK    1  A    between atoms: C_1  and  C_2
REMARK    2  A    between atoms: C_2  and  N_3
REMARK    3  A    between atoms: C_2  and  C_16
REMARK    4  A    between atoms: C_4  and  C_6
REMARK    5  A    between atoms: C_19  and  C_20
REMARK    6  A    between atoms: C_20  and  C_21
REMARK                            x       y       z     vdW  Elec       q    Type
REMARK                         _______ _______ _______ _____ _____    ______ ____
ROOT
ATOM      1  C   UNL     1      48.788   8.757  13.131  0.00  0.00    +0.000 C 
ATOM      2  C   UNL     1      48.524   7.412  13.803  0.00  0.00    +0.000 C 
ENDROOT
BRANCH   2   3
ATOM      3  C   UNL     1      47.345   6.706  13.138  0.00  0.00    +0.000 A 
ATOM      4  N   UNL     1      46.700   7.349  12.145  0.00  0.00    +0.000 NA
ATOM      5  C   UNL     1      45.748   6.647  11.499  0.00  0.00    +0.000 A 
ATOM      6  C   UNL     1      45.404   5.346  11.801  0.00  0.00    +0.000 A 
ATOM      7  C   UNL     1      46.096   4.797  12.860  0.00  0.00    +0.000 A 
ATOM      8  N   UNL     1      47.057   5.446  13.543  0.00  0.00    +0.000 NA
BRANCH   6   9
ATOM      9  C   UNL     1      44.377   4.582  11.027  0.00  0.00    +0.000 C 
BRANCH   9  10
ATOM     10  C   UNL     1      44.915   3.864   9.818  0.00  0.00    +0.000 A 
ATOM     11  C   UNL     1      44.992   2.469   9.765  0.00  0.00    +0.000 A 
ATOM     12  C   UNL     1      45.552   1.848   8.652  0.00  0.00    +0.000 A 
ATOM     13  C   UNL     1      46.009   2.644   7.615  0.00  0.00    +0.000 A 
ATOM     14  N   UNL     1      45.925   3.991   7.615  0.00  0.00    +0.000 NA
ATOM     15  C   UNL     1      45.376   4.567   8.708  0.00  0.00    +0.000 A 
ENDBRANCH   9  10
ENDBRANCH   6   9
ENDBRANCH   2   3
BRANCH   2  16
ATOM     16  N   UNL     1      48.251   7.607  15.220  0.00  0.00    +0.000 N 
ATOM     17  C   UNL     1      49.196   7.900  16.156  0.00  0.00    +0.000 C 
ATOM     18  O   UNL     1      50.397   7.925  15.905  0.00  0.00    +0.000 OA
ATOM     19  H   UNL     1      47.263   7.671  15.443  0.00  0.00    +0.000 HD
BRANCH  17  20
ATOM     20  C   UNL     1      48.681   8.129  17.510  0.00  0.00    +0.000 A 
ATOM     21  C   UNL     1      48.583   9.417  18.017  0.00  0.00    +0.000 A 
ATOM     22  S   UNL     1      47.990   9.472  19.616  0.00  0.00    +0.000 S 
ATOM     23  C   UNL     1      47.815   7.779  19.672  0.00  0.00    +0.000 A 
ATOM     24  N   UNL     1      47.333   7.160  20.784  0.00  0.00    +0.000 NA
ATOM     25  C   UNL     1      47.237   5.876  20.678  0.00  0.00    +0.000 A 
ATOM     26  N   UNL     1      47.574   5.156  19.562  0.00  0.00    +0.000 N 
ATOM     27  C   UNL     1      48.069   5.736  18.419  0.00  0.00    +0.000 A 
ATOM     28  O   UNL     1      48.383   5.051  17.450  0.00  0.00    +0.000 OA
ATOM     29  C   UNL     1      48.208   7.179  18.490  0.00  0.00    +0.000 A 
ATOM     30  H   UNL     1      47.479   4.152  19.542  0.00  0.00    +0.000 HD
ENDBRANCH  17  20
ENDBRANCH   2  16
TORSDOF 5
ENDMDL
