MODEL 1
REMARK VINA RESULT:    -9.655      0.000      0.000
REMARK INTER + INTRA:         -14.269
REMARK INTER:                 -13.324
REMARK INTRA:                  -0.945
REMARK UNBOUND:                -0.945
REMARK  Name = 
REMARK  7 active torsions:
REMARK  status: ('A' for Active; 'I' for Inactive)
REMARK    1  A    between atoms: C_2  and  C_4
REMARK    2  A    between atoms: N_8  and  C_9
REMARK    3  A    between atoms: C_9  and  C_10
REMARK    4  A    between atoms: C_10  and  C_13
REMARK    5  A    between atoms: C_17  and  O_18
REMARK    6  A    between atoms: O_18  and  C_19
REMARK    7  A    between atoms: C_21  and  N_22
REMARK                            x       y       z     vdW  Elec       q    Type
REMARK                         _______ _______ _______ _____ _____    ______ ____
ROOT
ATOM      1  C   UNL     1      43.425   5.490  12.182  0.00  0.00    +0.000 C 
ATOM      2  F   UNL     1      42.904   6.646  11.668  0.00  0.00    +0.000 F 
ATOM      3  F   UNL     1      42.652   5.198  13.270  0.00  0.00    +0.000 F 
ENDROOT
BRANCH   1   4
ATOM      4  C   UNL     1      44.890   5.639  12.555  0.00  0.00    +0.000 A 
ATOM      5  C   UNL     1      45.649   6.708  12.061  0.00  0.00    +0.000 A 
ATOM      6  C   UNL     1      46.994   6.836  12.411  0.00  0.00    +0.000 A 
ATOM      7  C   UNL     1      47.602   5.900  13.254  0.00  0.00    +0.000 A 
ATOM      8  C   UNL     1      46.864   4.823  13.739  0.00  0.00    +0.000 A 
ATOM      9  C   UNL     1      45.515   4.699  13.393  0.00  0.00    +0.000 A 
BRANCH   8  10
ATOM     10  O   UNL     1      47.339   3.855  14.590  0.00  0.00    +0.000 OA
BRANCH  10  11
ATOM     11  C   UNL     1      47.219   4.038  16.020  0.00  0.00    +0.000 C 
ATOM     12  C   UNL     1      48.188   5.050  16.679  0.00  0.00    +0.000 C 
ATOM     13  C   UNL     1      48.617   3.980  17.692  0.00  0.00    +0.000 C 
ATOM     14  C   UNL     1      47.880   2.918  16.866  0.00  0.00    +0.000 C 
BRANCH  13  15
ATOM     15  N   UNL     1      47.903   4.187  18.950  0.00  0.00    +0.000 NA
ATOM     16  H   UNL     1      48.307   4.866  19.590  0.00  0.00    +0.000 HD
ATOM     17  H   UNL     1      47.758   3.332  19.490  0.00  0.00    +0.000 HD
ENDBRANCH  13  15
ENDBRANCH  10  11
ENDBRANCH   8  10
ENDBRANCH   1   4
BRANCH   1  18
ATOM     18  C   UNL     1      43.251   4.369  11.124  0.00  0.00    +0.000 C 
BRANCH  18  23
ATOM     19  C   UNL     1      46.479   2.482   7.665  0.00  0.00    +0.000 A 
ATOM     20  C   UNL     1      45.629   1.829   8.549  0.00  0.00    +0.000 A 
ATOM     21  C   UNL     1      44.716   2.576   9.289  0.00  0.00    +0.000 A 
ATOM     22  C   UNL     1      44.668   3.960   9.148  0.00  0.00    +0.000 A 
ATOM     23  N   UNL     1      43.723   4.743   9.784  0.00  0.00    +0.000 N 
ATOM     24  N   UNL     1      45.510   4.608   8.318  0.00  0.00    +0.000 NA
ATOM     25  C   UNL     1      46.398   3.865   7.601  0.00  0.00    +0.000 A 
ATOM     26  H   UNL     1      43.947   5.727   9.643  0.00  0.00    +0.000 HD
BRANCH  19  28
ATOM     27  N   UNL     1      48.538   2.458   6.390  0.00  0.00    +0.000 N 
ATOM     28  C   UNL     1      47.445   1.759   6.821  0.00  0.00    +0.000 C 
ATOM     29  O   UNL     1      47.298   0.575   6.548  0.00  0.00    +0.000 OA
ATOM     30  H   UNL     1      49.249   1.931   5.899  0.00  0.00    +0.000 HD
ATOM     31  H   UNL     1      48.818   3.339   6.802  0.00  0.00    +0.000 HD
ENDBRANCH  19  28
ENDBRANCH  18  23
ENDBRANCH   1  18
TORSDOF 7
ENDMDL
MODEL 2
REMARK VINA RESULT:    -8.600      2.558      3.720
REMARK INTER + INTRA:         -12.813
REMARK INTER:                 -11.661
REMARK INTRA:                  -1.152
REMARK UNBOUND:                -0.945
REMARK  Name = 
REMARK  7 active torsions:
REMARK  status: ('A' for Active; 'I' for Inactive)
REMARK    1  A    between atoms: C_2  and  C_4
REMARK    2  A    between atoms: N_8  and  C_9
REMARK    3  A    between atoms: C_9  and  C_10
REMARK    4  A    between atoms: C_10  and  C_13
REMARK    5  A    between atoms: C_17  and  O_18
REMARK    6  A    between atoms: O_18  and  C_19
REMARK    7  A    between atoms: C_21  and  N_22
REMARK                            x       y       z     vdW  Elec       q    Type
REMARK                         _______ _______ _______ _____ _____    ______ ____
ROOT
ATOM      1  C   UNL     1      43.549   5.554  12.050  0.00  0.00    +0.000 C 
ATOM      2  F   UNL     1      43.402   6.789  11.480  0.00  0.00    +0.000 F 
ATOM      3  F   UNL     1      42.579   5.480  13.008  0.00  0.00    +0.000 F 
ENDROOT
BRANCH   1   4
ATOM      4  C   UNL     1      44.937   5.357  12.636  0.00  0.00    +0.000 A 
ATOM      5  C   UNL     1      45.385   4.082  13.003  0.00  0.00    +0.000 A 
ATOM      6  C   UNL     1      46.662   3.913  13.541  0.00  0.00    +0.000 A 
ATOM      7  C   UNL     1      47.509   5.012  13.723  0.00  0.00    +0.000 A 
ATOM      8  C   UNL     1      47.069   6.288  13.379  0.00  0.00    +0.000 A 
ATOM      9  C   UNL     1      45.793   6.455  12.834  0.00  0.00    +0.000 A 
BRANCH   8  10
ATOM     10  O   UNL     1      47.813   7.438  13.486  0.00  0.00    +0.000 OA
BRANCH  10  11
ATOM     11  C   UNL     1      47.748   8.433  12.439  0.00  0.00    +0.000 C 
ATOM     12  C   UNL     1      49.052   8.700  11.647  0.00  0.00    +0.000 C 
ATOM     13  C   UNL     1      48.921  10.202  11.936  0.00  0.00    +0.000 C 
ATOM     14  C   UNL     1      47.805   9.899  12.945  0.00  0.00    +0.000 C 
BRANCH  13  15
ATOM     15  N   UNL     1      48.342  10.872  10.772  0.00  0.00    +0.000 NA
ATOM     16  H   UNL     1      48.069  10.271   9.998  0.00  0.00    +0.000 HD
ATOM     17  H   UNL     1      48.937  11.601  10.376  0.00  0.00    +0.000 HD
ENDBRANCH  13  15
ENDBRANCH  10  11
ENDBRANCH   8  10
ENDBRANCH   1   4
BRANCH   1  18
ATOM     18  C   UNL     1      43.268   4.484  10.963  0.00  0.00    +0.000 C 
BRANCH  18  23
ATOM     19  C   UNL     1      46.649   2.562   7.672  0.00  0.00    +0.000 A 
ATOM     20  C   UNL     1      45.768   1.918   8.533  0.00  0.00    +0.000 A 
ATOM     21  C   UNL     1      44.820   2.670   9.221  0.00  0.00    +0.000 A 
ATOM     22  C   UNL     1      44.767   4.051   9.053  0.00  0.00    +0.000 A 
ATOM     23  N   UNL     1      43.791   4.837   9.635  0.00  0.00    +0.000 N 
ATOM     24  N   UNL     1      45.637   4.692   8.245  0.00  0.00    +0.000 NA
ATOM     25  C   UNL     1      46.559   3.944   7.579  0.00  0.00    +0.000 A 
ATOM     26  H   UNL     1      44.012   5.820   9.486  0.00  0.00    +0.000 HD
BRANCH  19  28
ATOM     27  N   UNL     1      48.522   2.583   6.137  0.00  0.00    +0.000 N 
ATOM     28  C   UNL     1      47.654   1.833   6.881  0.00  0.00    +0.000 C 
ATOM     29  O   UNL     1      47.734   0.612   6.915  0.00  0.00    +0.000 OA
ATOM     30  H   UNL     1      49.275   2.084   5.680  0.00  0.00    +0.000 HD
ATOM     31  H   UNL     1      48.649   3.576   6.286  0.00  0.00    +0.000 HD
ENDBRANCH  19  28
ENDBRANCH  18  23
ENDBRANCH   1  18
TORSDOF 7
ENDMDL
MODEL 3
REMARK VINA RESULT:    -8.349      2.347      8.054
REMARK INTER + INTRA:         -12.466
REMARK INTER:                 -11.529
REMARK INTRA:                  -0.937
REMARK UNBOUND:                -0.945
REMARK  Name = 
REMARK  7 active torsions:
REMARK  status: ('A' for Active; 'I' for Inactive)
REMARK    1  A    between atoms: C_2  and  C_4
REMARK    2  A    between atoms: N_8  and  C_9
REMARK    3  A    between atoms: C_9  and  C_10
REMARK    4  A    between atoms: C_10  and  C_13
REMARK    5  A    between atoms: C_17  and  O_18
REMARK    6  A    between atoms: O_18  and  C_19
REMARK    7  A    between atoms: C_21  and  N_22
REMARK                            x       y       z     vdW  Elec       q    Type
REMARK                         _______ _______ _______ _____ _____    ______ ____
ROOT
ATOM      1  C   UNL     1      46.054   6.666  11.667  0.00  0.00    +0.000 C 
ATOM      2  F   UNL     1      45.409   7.832  11.353  0.00  0.00    +0.000 F 
ATOM      3  F   UNL     1      47.335   6.832  11.223  0.00  0.00    +0.000 F 
ENDROOT
BRANCH   1   4
ATOM      4  C   UNL     1      45.389   5.457  11.032  0.00  0.00    +0.000 A 
ATOM      5  C   UNL     1      44.614   4.579  11.801  0.00  0.00    +0.000 A 
ATOM      6  C   UNL     1      44.007   3.471  11.207  0.00  0.00    +0.000 A 
ATOM      7  C   UNL     1      44.167   3.220   9.840  0.00  0.00    +0.000 A 
ATOM      8  C   UNL     1      44.949   4.075   9.067  0.00  0.00    +0.000 A 
ATOM      9  C   UNL     1      45.551   5.188   9.661  0.00  0.00    +0.000 A 
BRANCH   8  10
ATOM     10  O   UNL     1      45.161   3.950   7.715  0.00  0.00    +0.000 OA
BRANCH  10  11
ATOM     11  C   UNL     1      46.457   3.531   7.229  0.00  0.00    +0.000 C 
ATOM     12  C   UNL     1      46.580   3.261   5.710  0.00  0.00    +0.000 C 
ATOM     13  C   UNL     1      47.169   1.874   6.004  0.00  0.00    +0.000 C 
ATOM     14  C   UNL     1      46.782   2.035   7.480  0.00  0.00    +0.000 C 
BRANCH  13  15
ATOM     15  N   UNL     1      48.625   1.929   5.884  0.00  0.00    +0.000 NA
ATOM     16  H   UNL     1      48.991   2.188   4.971  0.00  0.00    +0.000 HD
ATOM     17  H   UNL     1      49.095   1.062   6.149  0.00  0.00    +0.000 HD
ENDBRANCH  13  15
ENDBRANCH  10  11
ENDBRANCH   8  10
ENDBRANCH   1   4
BRANCH   1  18
ATOM     18  C   UNL     1      46.069   6.523  13.211  0.00  0.00    +0.000 C 
BRANCH  18  23
ATOM     19  C   UNL     1      48.500   3.949  16.874  0.00  0.00    +0.000 A 
ATOM     20  C   UNL     1      47.522   3.530  15.980  0.00  0.00    +0.000 A 
ATOM     21  C   UNL     1      47.127   4.385  14.955  0.00  0.00    +0.000 A 
ATOM     22  C   UNL     1      47.701   5.649  14.839  0.00  0.00    +0.000 A 
ATOM     23  N   UNL     1      47.419   6.503  13.791  0.00  0.00    +0.000 N 
ATOM     24  N   UNL     1      48.628   6.080  15.719  0.00  0.00    +0.000 NA
ATOM     25  C   UNL     1      49.003   5.233  16.717  0.00  0.00    +0.000 A 
ATOM     26  H   UNL     1      47.846   7.411  13.968  0.00  0.00    +0.000 HD
BRANCH  19  28
ATOM     27  N   UNL     1      48.331   3.147  19.153  0.00  0.00    +0.000 N 
ATOM     28  C   UNL     1      48.997   3.090  17.960  0.00  0.00    +0.000 C 
ATOM     29  O   UNL     1      49.941   2.328  17.795  0.00  0.00    +0.000 OA
ATOM     30  H   UNL     1      48.609   2.480  19.861  0.00  0.00    +0.000 HD
ATOM     31  H   UNL     1      47.410   3.559  19.242  0.00  0.00    +0.000 HD
ENDBRANCH  19  28
ENDBRANCH  18  23
ENDBRANCH   1  18
TORSDOF 7
ENDMDL
MODEL 4
REMARK VINA RESULT:    -8.204      2.756      3.182
REMARK INTER + INTRA:         -12.266
REMARK INTER:                 -11.770
REMARK INTRA:                  -0.496
REMARK UNBOUND:                -0.945
REMARK  Name = 
REMARK  7 active torsions:
REMARK  status: ('A' for Active; 'I' for Inactive)
REMARK    1  A    between atoms: C_2  and  C_4
REMARK    2  A    between atoms: N_8  and  C_9
REMARK    3  A    between atoms: C_9  and  C_10
REMARK    4  A    between atoms: C_10  and  C_13
REMARK    5  A    between atoms: C_17  and  O_18
REMARK    6  A    between atoms: O_18  and  C_19
REMARK    7  A    between atoms: C_21  and  N_22
REMARK                            x       y       z     vdW  Elec       q    Type
REMARK                         _______ _______ _______ _____ _____    ______ ____
ROOT
ATOM      1  C   UNL     1      42.971   5.236  12.149  0.00  0.00    +0.000 C 
ATOM      2  F   UNL     1      41.756   5.719  11.747  0.00  0.00    +0.000 F 
ATOM      3  F   UNL     1      42.758   4.714  13.393  0.00  0.00    +0.000 F 
ENDROOT
BRANCH   1   4
ATOM      4  C   UNL     1      44.038   6.317  12.166  0.00  0.00    +0.000 A 
ATOM      5  C   UNL     1      43.854   7.516  11.465  0.00  0.00    +0.000 A 
ATOM      6  C   UNL     1      44.841   8.503  11.488  0.00  0.00    +0.000 A 
ATOM      7  C   UNL     1      46.026   8.308  12.206  0.00  0.00    +0.000 A 
ATOM      8  C   UNL     1      46.229   7.113  12.893  0.00  0.00    +0.000 A 
ATOM      9  C   UNL     1      45.237   6.129  12.875  0.00  0.00    +0.000 A 
BRANCH   8  10
ATOM     10  O   UNL     1      47.335   6.813  13.651  0.00  0.00    +0.000 OA
BRANCH  10  11
ATOM     11  C   UNL     1      48.632   6.717  13.019  0.00  0.00    +0.000 C 
ATOM     12  C   UNL     1      49.636   7.860  13.305  0.00  0.00    +0.000 C 
ATOM     13  C   UNL     1      49.841   8.058  11.796  0.00  0.00    +0.000 C 
ATOM     14  C   UNL     1      48.647   7.133  11.524  0.00  0.00    +0.000 C 
BRANCH  13  15
ATOM     15  N   UNL     1      51.070   7.385  11.381  0.00  0.00    +0.000 NA
ATOM     16  H   UNL     1      51.120   7.102  10.405  0.00  0.00    +0.000 HD
ATOM     17  H   UNL     1      51.298   6.558  11.934  0.00  0.00    +0.000 HD
ENDBRANCH  13  15
ENDBRANCH  10  11
ENDBRANCH   8  10
ENDBRANCH   1   4
BRANCH   1  18
ATOM     18  C   UNL     1      43.380   4.093  11.184  0.00  0.00    +0.000 C 
BRANCH  18  23
ATOM     19  C   UNL     1      46.615   2.668   7.516  0.00  0.00    +0.000 A 
ATOM     20  C   UNL     1      45.881   1.901   8.414  0.00  0.00    +0.000 A 
ATOM     21  C   UNL     1      44.932   2.523   9.220  0.00  0.00    +0.000 A 
ATOM     22  C   UNL     1      44.733   3.898   9.132  0.00  0.00    +0.000 A 
ATOM     23  N   UNL     1      43.744   4.556   9.838  0.00  0.00    +0.000 N 
ATOM     24  N   UNL     1      45.461   4.658   8.288  0.00  0.00    +0.000 NA
ATOM     25  C   UNL     1      46.386   4.036   7.506  0.00  0.00    +0.000 A 
ATOM     26  H   UNL     1      43.856   5.562   9.723  0.00  0.00    +0.000 HD
BRANCH  19  28
ATOM     27  N   UNL     1      48.139   2.900   5.648  0.00  0.00    +0.000 N 
ATOM     28  C   UNL     1      47.608   2.079   6.604  0.00  0.00    +0.000 C 
ATOM     29  O   UNL     1      47.973   0.916   6.718  0.00  0.00    +0.000 OA
ATOM     30  H   UNL     1      48.895   2.521   5.093  0.00  0.00    +0.000 HD
ATOM     31  H   UNL     1      48.057   3.908   5.691  0.00  0.00    +0.000 HD
ENDBRANCH  19  28
ENDBRANCH  18  23
ENDBRANCH   1  18
TORSDOF 7
ENDMDL
MODEL 5
REMARK VINA RESULT:    -7.192      3.653      8.293
REMARK INTER + INTRA:         -10.869
REMARK INTER:                 -10.142
REMARK INTRA:                  -0.727
REMARK UNBOUND:                -0.945
REMARK  Name = 
REMARK  7 active torsions:
REMARK  status: ('A' for Active; 'I' for Inactive)
REMARK    1  A    between atoms: C_2  and  C_4
REMARK    2  A    between atoms: N_8  and  C_9
REMARK    3  A    between atoms: C_9  and  C_10
REMARK    4  A    between atoms: C_10  and  C_13
REMARK    5  A    between atoms: C_17  and  O_18
REMARK    6  A    between atoms: O_18  and  C_19
REMARK    7  A    between atoms: C_21  and  N_22
REMARK                            x       y       z     vdW  Elec       q    Type
REMARK                         _______ _______ _______ _____ _____    ______ ____
ROOT
ATOM      1  C   UNL     1      45.892   6.606  11.560  0.00  0.00    +0.000 C 
ATOM      2  F   UNL     1      45.253   7.744  11.151  0.00  0.00    +0.000 F 
ATOM      3  F   UNL     1      47.204   6.787  11.225  0.00  0.00    +0.000 F 
ENDROOT
BRANCH   1   4
ATOM      4  C   UNL     1      45.312   5.361  10.911  0.00  0.00    +0.000 A 
ATOM      5  C   UNL     1      44.598   4.425  11.669  0.00  0.00    +0.000 A 
ATOM      6  C   UNL     1      44.068   3.284  11.063  0.00  0.00    +0.000 A 
ATOM      7  C   UNL     1      44.246   3.059   9.693  0.00  0.00    +0.000 A 
ATOM      8  C   UNL     1      44.969   3.973   8.930  0.00  0.00    +0.000 A 
ATOM      9  C   UNL     1      45.493   5.118   9.538  0.00  0.00    +0.000 A 
BRANCH   8  10
ATOM     10  O   UNL     1      45.190   3.877   7.578  0.00  0.00    +0.000 OA
BRANCH  10  11
ATOM     11  C   UNL     1      46.489   3.466   7.093  0.00  0.00    +0.000 C 
ATOM     12  C   UNL     1      46.582   3.063   5.601  0.00  0.00    +0.000 C 
ATOM     13  C   UNL     1      47.235   1.732   6.001  0.00  0.00    +0.000 C 
ATOM     14  C   UNL     1      46.881   2.012   7.467  0.00  0.00    +0.000 C 
BRANCH  13  15
ATOM     15  N   UNL     1      48.684   1.832   5.832  0.00  0.00    +0.000 NA
ATOM     16  H   UNL     1      49.229   1.033   6.149  0.00  0.00    +0.000 HD
ATOM     17  H   UNL     1      49.096   2.656   6.270  0.00  0.00    +0.000 HD
ENDBRANCH  13  15
ENDBRANCH  10  11
ENDBRANCH   8  10
ENDBRANCH   1   4
BRANCH   1  18
ATOM     18  C   UNL     1      45.773   6.513  13.103  0.00  0.00    +0.000 C 
BRANCH  18  23
ATOM     19  C   UNL     1      49.927   9.104  14.511  0.00  0.00    +0.000 A 
ATOM     20  C   UNL     1      48.593   9.493  14.483  0.00  0.00    +0.000 A 
ATOM     21  C   UNL     1      47.614   8.541  14.211  0.00  0.00    +0.000 A 
ATOM     22  C   UNL     1      47.974   7.220  13.961  0.00  0.00    +0.000 A 
ATOM     23  N   UNL     1      47.044   6.215  13.778  0.00  0.00    +0.000 N 
ATOM     24  N   UNL     1      49.267   6.836  13.954  0.00  0.00    +0.000 NA
ATOM     25  C   UNL     1      50.214   7.778  14.220  0.00  0.00    +0.000 A 
ATOM     26  H   UNL     1      47.519   5.361  13.488  0.00  0.00    +0.000 HD
BRANCH  19  28
ATOM     27  N   UNL     1      51.449  10.855  13.817  0.00  0.00    +0.000 N 
ATOM     28  C   UNL     1      51.016  10.042  14.827  0.00  0.00    +0.000 C 
ATOM     29  O   UNL     1      51.488  10.120  15.954  0.00  0.00    +0.000 OA
ATOM     30  H   UNL     1      52.123  11.568  14.065  0.00  0.00    +0.000 HD
ATOM     31  H   UNL     1      50.918  10.997  12.967  0.00  0.00    +0.000 HD
ENDBRANCH  19  28
ENDBRANCH  18  23
ENDBRANCH   1  18
TORSDOF 7
ENDMDL
MODEL 6
REMARK VINA RESULT:    -7.067      2.933      8.400
REMARK INTER + INTRA:         -10.697
REMARK INTER:                  -9.871
REMARK INTRA:                  -0.826
REMARK UNBOUND:                -0.945
REMARK  Name = 
REMARK  7 active torsions:
REMARK  status: ('A' for Active; 'I' for Inactive)
REMARK    1  A    between atoms: C_2  and  C_4
REMARK    2  A    between atoms: N_8  and  C_9
REMARK    3  A    between atoms: C_9  and  C_10
REMARK    4  A    between atoms: C_10  and  C_13
REMARK    5  A    between atoms: C_17  and  O_18
REMARK    6  A    between atoms: O_18  and  C_19
REMARK    7  A    between atoms: C_21  and  N_22
REMARK                            x       y       z     vdW  Elec       q    Type
REMARK                         _______ _______ _______ _____ _____    ______ ____
ROOT
ATOM      1  C   UNL     1      45.508   6.604  11.800  0.00  0.00    +0.000 C 
ATOM      2  F   UNL     1      45.130   6.738  13.108  0.00  0.00    +0.000 F 
ATOM      3  F   UNL     1      44.959   7.675  11.154  0.00  0.00    +0.000 F 
ENDROOT
BRANCH   1   4
ATOM      4  C   UNL     1      45.043   5.287  11.203  0.00  0.00    +0.000 A 
ATOM      5  C   UNL     1      44.427   4.316  12.003  0.00  0.00    +0.000 A 
ATOM      6  C   UNL     1      44.004   3.109  11.444  0.00  0.00    +0.000 A 
ATOM      7  C   UNL     1      44.192   2.851  10.082  0.00  0.00    +0.000 A 
ATOM      8  C   UNL     1      44.819   3.801   9.278  0.00  0.00    +0.000 A 
ATOM      9  C   UNL     1      45.236   5.011   9.838  0.00  0.00    +0.000 A 
BRANCH   8  10
ATOM     10  O   UNL     1      45.038   3.676   7.928  0.00  0.00    +0.000 OA
BRANCH  10  11
ATOM     11  C   UNL     1      46.360   3.347   7.444  0.00  0.00    +0.000 C 
ATOM     12  C   UNL     1      46.538   3.243   5.910  0.00  0.00    +0.000 C 
ATOM     13  C   UNL     1      47.159   1.850   6.075  0.00  0.00    +0.000 C 
ATOM     14  C   UNL     1      46.722   1.841   7.546  0.00  0.00    +0.000 C 
BRANCH  13  15
ATOM     15  N   UNL     1      48.616   1.956   6.010  0.00  0.00    +0.000 NA
ATOM     16  H   UNL     1      49.122   1.094   5.822  0.00  0.00    +0.000 HD
ATOM     17  H   UNL     1      49.039   2.363   6.846  0.00  0.00    +0.000 HD
ENDBRANCH  13  15
ENDBRANCH  10  11
ENDBRANCH   8  10
ENDBRANCH   1   4
BRANCH   1  18
ATOM     18  C   UNL     1      47.054   6.710  11.730  0.00  0.00    +0.000 C 
BRANCH  18  23
ATOM     19  C   UNL     1      48.855   7.954  16.330  0.00  0.00    +0.000 A 
ATOM     20  C   UNL     1      48.966   6.769  15.613  0.00  0.00    +0.000 A 
ATOM     21  C   UNL     1      48.523   6.729  14.294  0.00  0.00    +0.000 A 
ATOM     22  C   UNL     1      47.965   7.864  13.710  0.00  0.00    +0.000 A 
ATOM     23  N   UNL     1      47.594   7.913  12.380  0.00  0.00    +0.000 N 
ATOM     24  N   UNL     1      47.822   9.010  14.406  0.00  0.00    +0.000 NA
ATOM     25  C   UNL     1      48.259   9.034  15.695  0.00  0.00    +0.000 A 
ATOM     26  H   UNL     1      47.099   8.784  12.197  0.00  0.00    +0.000 HD
BRANCH  19  28
ATOM     27  N   UNL     1      49.061   7.053  18.569  0.00  0.00    +0.000 N 
ATOM     28  C   UNL     1      49.334   8.085  17.716  0.00  0.00    +0.000 C 
ATOM     29  O   UNL     1      49.982   9.058  18.081  0.00  0.00    +0.000 OA
ATOM     30  H   UNL     1      49.482   7.100  19.488  0.00  0.00    +0.000 HD
ATOM     31  H   UNL     1      48.765   6.141  18.242  0.00  0.00    +0.000 HD
ENDBRANCH  19  28
ENDBRANCH  18  23
ENDBRANCH   1  18
TORSDOF 7
ENDMDL
