MODEL 1
REMARK VINA RESULT:    -8.159      0.000      0.000
REMARK INTER + INTRA:         -11.691
REMARK INTER:                 -11.021
REMARK INTRA:                  -0.670
REMARK UNBOUND:                -0.670
REMARK  Name = 
REMARK  7 active torsions:
REMARK  status: ('A' for Active; 'I' for Inactive)
REMARK    1  A    between atoms: C_1  and  C_2
REMARK    2  A    between atoms: C_2  and  C_3
REMARK    3  A    between atoms: C_7  and  C_8
REMARK    4  A    between atoms: C_8  and  C_9
REMARK    5  A    between atoms: C_9  and  N_10
REMARK    6  A    between atoms: N_10  and  C_11
REMARK    7  A    between atoms: C_14  and  C_15
REMARK                            x       y       z     vdW  Elec       q    Type
REMARK                         _______ _______ _______ _____ _____    ______ ____
ROOT
ATOM      1  C   UNL     1      43.078   4.430  11.074  0.00  0.00    +0.000 C 
ENDROOT
BRANCH   1   2
ATOM      2  N   UNL     1      43.778   4.928   9.880  0.00  0.00    +0.000 N 
ATOM      3  H   UNL     1      44.279   5.798  10.055  0.00  0.00    +0.000 HD
BRANCH   2   4
ATOM      4  C   UNL     1      44.581   3.989   9.201  0.00  0.00    +0.000 A 
ATOM      5  C   UNL     1      45.570   4.361   8.288  0.00  0.00    +0.000 A 
ATOM      6  C   UNL     1      46.383   3.407   7.678  0.00  0.00    +0.000 A 
ATOM      7  C   UNL     1      46.211   2.079   8.028  0.00  0.00    +0.000 A 
ATOM      8  N   UNL     1      45.297   1.652   8.944  0.00  0.00    +0.000 NA
ATOM      9  C   UNL     1      44.528   2.622   9.512  0.00  0.00    +0.000 A 
BRANCH   7  10
ATOM     10  C   UNL     1      47.085   1.044   7.386  0.00  0.00    +0.000 C 
ATOM     11  N   UNL     1      46.779  -0.256   7.689  0.00  0.00    +0.000 N 
ATOM     12  O   UNL     1      48.014   1.328   6.643  0.00  0.00    +0.000 OA
ATOM     13  H   UNL     1      46.022  -0.457   8.328  0.00  0.00    +0.000 HD
ATOM     14  H   UNL     1      47.351  -0.997   7.310  0.00  0.00    +0.000 HD
ENDBRANCH   7  10
ENDBRANCH   2   4
ENDBRANCH   1   2
BRANCH   1  15
ATOM     15  C   UNL     1      43.284   5.339  12.293  0.00  0.00    +0.000 C 
BRANCH  15  20
ATOM     16  C   UNL     1      46.787   6.778  12.890  0.00  0.00    +0.000 A 
ATOM     17  C   UNL     1      47.403   5.666  13.500  0.00  0.00    +0.000 A 
ATOM     18  C   UNL     1      46.722   4.460  13.676  0.00  0.00    +0.000 A 
ATOM     19  C   UNL     1      45.399   4.337  13.259  0.00  0.00    +0.000 A 
ATOM     20  C   UNL     1      44.758   5.413  12.640  0.00  0.00    +0.000 A 
ATOM     21  C   UNL     1      45.467   6.613  12.439  0.00  0.00    +0.000 A 
BRANCH  16  23
ATOM     22  C   UNL     1      46.498   9.239  12.608  0.00  0.00    +0.000 C 
ATOM     23  C   UNL     1      47.533   8.123  12.839  0.00  0.00    +0.000 C 
ATOM     24  C   UNL     1      48.357   8.356  14.111  0.00  0.00    +0.000 C 
ATOM     25  C   UNL     1      49.766   7.899  13.755  0.00  0.00    +0.000 C 
ATOM     26  O   UNL     1      49.808   7.652  12.345  0.00  0.00    +0.000 OA
ATOM     27  C   UNL     1      48.639   8.250  11.779  0.00  0.00    +0.000 C 
ENDBRANCH  16  23
ENDBRANCH  15  20
ENDBRANCH   1  15
TORSDOF 6
ENDMDL
MODEL 2
REMARK VINA RESULT:    -8.000      1.243      1.730
REMARK INTER + INTRA:         -11.476
REMARK INTER:                 -10.580
REMARK INTRA:                  -0.896
REMARK UNBOUND:                -0.670
REMARK  Name = 
REMARK  7 active torsions:
REMARK  status: ('A' for Active; 'I' for Inactive)
REMARK    1  A    between atoms: C_1  and  C_2
REMARK    2  A    between atoms: C_2  and  C_3
REMARK    3  A    between atoms: C_7  and  C_8
REMARK    4  A    between atoms: C_8  and  C_9
REMARK    5  A    between atoms: C_9  and  N_10
REMARK    6  A    between atoms: N_10  and  C_11
REMARK    7  A    between atoms: C_14  and  C_15
REMARK                            x       y       z     vdW  Elec       q    Type
REMARK                         _______ _______ _______ _____ _____    ______ ____
ROOT
ATOM      1  C   UNL     1      43.799   4.901  11.230  0.00  0.00    +0.000 C 
ENDROOT
BRANCH   1   2
ATOM      2  N   UNL     1      43.627   4.822   9.771  0.00  0.00    +0.000 N 
ATOM      3  H   UNL     1      43.585   5.740   9.331  0.00  0.00    +0.000 HD
BRANCH   2   4
ATOM      4  C   UNL     1      44.511   3.957   9.093  0.00  0.00    +0.000 A 
ATOM      5  C   UNL     1      45.536   4.422   8.265  0.00  0.00    +0.000 A 
ATOM      6  C   UNL     1      46.427   3.539   7.657  0.00  0.00    +0.000 A 
ATOM      7  C   UNL     1      46.295   2.188   7.922  0.00  0.00    +0.000 A 
ATOM      8  N   UNL     1      45.347   1.671   8.755  0.00  0.00    +0.000 NA
ATOM      9  C   UNL     1      44.502   2.574   9.325  0.00  0.00    +0.000 A 
BRANCH   7  10
ATOM     10  C   UNL     1      47.251   1.228   7.281  0.00  0.00    +0.000 C 
ATOM     11  N   UNL     1      48.330   1.798   6.658  0.00  0.00    +0.000 N 
ATOM     12  O   UNL     1      47.089   0.016   7.302  0.00  0.00    +0.000 OA
ATOM     13  H   UNL     1      48.421   2.805   6.636  0.00  0.00    +0.000 HD
ATOM     14  H   UNL     1      48.993   1.204   6.183  0.00  0.00    +0.000 HD
ENDBRANCH   7  10
ENDBRANCH   2   4
ENDBRANCH   1   2
BRANCH   1  15
ATOM     15  C   UNL     1      44.257   6.291  11.689  0.00  0.00    +0.000 C 
BRANCH  15  20
ATOM     16  C   UNL     1      47.879   7.163  12.593  0.00  0.00    +0.000 A 
ATOM     17  C   UNL     1      48.099   6.232  13.628  0.00  0.00    +0.000 A 
ATOM     18  C   UNL     1      47.120   5.309  13.999  0.00  0.00    +0.000 A 
ATOM     19  C   UNL     1      45.886   5.301  13.355  0.00  0.00    +0.000 A 
ATOM     20  C   UNL     1      45.634   6.201  12.316  0.00  0.00    +0.000 A 
ATOM     21  C   UNL     1      46.642   7.106  11.929  0.00  0.00    +0.000 A 
BRANCH  16  23
ATOM     22  C   UNL     1      50.048   7.618  11.448  0.00  0.00    +0.000 C 
ATOM     23  C   UNL     1      48.937   8.245  12.311  0.00  0.00    +0.000 C 
ATOM     24  C   UNL     1      48.315   9.476  11.642  0.00  0.00    +0.000 C 
ATOM     25  C   UNL     1      48.052  10.452  12.782  0.00  0.00    +0.000 C 
ATOM     26  O   UNL     1      48.680   9.935  13.959  0.00  0.00    +0.000 OA
ATOM     27  C   UNL     1      49.581   8.906  13.539  0.00  0.00    +0.000 C 
ENDBRANCH  16  23
ENDBRANCH  15  20
ENDBRANCH   1  15
TORSDOF 6
ENDMDL
MODEL 3
REMARK VINA RESULT:    -7.729      1.364      2.343
REMARK INTER + INTRA:         -11.110
REMARK INTER:                 -10.425
REMARK INTRA:                  -0.685
REMARK UNBOUND:                -0.670
REMARK  Name = 
REMARK  7 active torsions:
REMARK  status: ('A' for Active; 'I' for Inactive)
REMARK    1  A    between atoms: C_1  and  C_2
REMARK    2  A    between atoms: C_2  and  C_3
REMARK    3  A    between atoms: C_7  and  C_8
REMARK    4  A    between atoms: C_8  and  C_9
REMARK    5  A    between atoms: C_9  and  N_10
REMARK    6  A    between atoms: N_10  and  C_11
REMARK    7  A    between atoms: C_14  and  C_15
REMARK                            x       y       z     vdW  Elec       q    Type
REMARK                         _______ _______ _______ _____ _____    ______ ____
ROOT
ATOM      1  C   UNL     1      44.493   5.596  11.020  0.00  0.00    +0.000 C 
ENDROOT
BRANCH   1   2
ATOM      2  N   UNL     1      43.851   4.958   9.860  0.00  0.00    +0.000 N 
ATOM      3  H   UNL     1      43.432   5.635   9.223  0.00  0.00    +0.000 HD
BRANCH   2   4
ATOM      4  C   UNL     1      44.629   4.004   9.173  0.00  0.00    +0.000 A 
ATOM      5  C   UNL     1      45.620   4.358   8.255  0.00  0.00    +0.000 A 
ATOM      6  C   UNL     1      46.410   3.389   7.637  0.00  0.00    +0.000 A 
ATOM      7  C   UNL     1      46.211   2.064   7.984  0.00  0.00    +0.000 A 
ATOM      8  N   UNL     1      45.294   1.654   8.904  0.00  0.00    +0.000 NA
ATOM      9  C   UNL     1      44.549   2.637   9.480  0.00  0.00    +0.000 A 
BRANCH   7  10
ATOM     10  C   UNL     1      47.059   1.012   7.334  0.00  0.00    +0.000 C 
ATOM     11  N   UNL     1      46.737  -0.282   7.646  0.00  0.00    +0.000 N 
ATOM     12  O   UNL     1      47.981   1.279   6.576  0.00  0.00    +0.000 OA
ATOM     13  H   UNL     1      45.986  -0.468   8.297  0.00  0.00    +0.000 HD
ATOM     14  H   UNL     1      47.291  -1.032   7.262  0.00  0.00    +0.000 HD
ENDBRANCH   7  10
ENDBRANCH   2   4
ENDBRANCH   1   2
BRANCH   1  15
ATOM     15  C   UNL     1      43.795   6.899  11.430  0.00  0.00    +0.000 C 
BRANCH  15  20
ATOM     16  C   UNL     1      47.141   8.531  12.345  0.00  0.00    +0.000 A 
ATOM     17  C   UNL     1      46.838   9.878  12.058  0.00  0.00    +0.000 A 
ATOM     18  C   UNL     1      45.569  10.263  11.622  0.00  0.00    +0.000 A 
ATOM     19  C   UNL     1      44.571   9.309  11.447  0.00  0.00    +0.000 A 
ATOM     20  C   UNL     1      44.828   7.966  11.733  0.00  0.00    +0.000 A 
ATOM     21  C   UNL     1      46.103   7.595  12.203  0.00  0.00    +0.000 A 
BRANCH  16  23
ATOM     22  C   UNL     1      49.534   8.892  11.741  0.00  0.00    +0.000 C 
ATOM     23  C   UNL     1      48.587   8.139  12.694  0.00  0.00    +0.000 C 
ATOM     24  C   UNL     1      48.906   8.425  14.167  0.00  0.00    +0.000 C 
ATOM     25  C   UNL     1      48.688   7.097  14.880  0.00  0.00    +0.000 C 
ATOM     26  O   UNL     1      48.497   6.086  13.885  0.00  0.00    +0.000 OA
ATOM     27  C   UNL     1      48.921   6.640  12.636  0.00  0.00    +0.000 C 
ENDBRANCH  16  23
ENDBRANCH  15  20
ENDBRANCH   1  15
TORSDOF 6
ENDMDL
MODEL 4
REMARK VINA RESULT:    -7.291      2.330      3.409
REMARK INTER + INTRA:         -10.519
REMARK INTER:                 -10.416
REMARK INTRA:                  -0.103
REMARK UNBOUND:                -0.670
REMARK  Name = 
REMARK  7 active torsions:
REMARK  status: ('A' for Active; 'I' for Inactive)
REMARK    1  A    between atoms: C_1  and  C_2
REMARK    2  A    between atoms: C_2  and  C_3
REMARK    3  A    between atoms: C_7  and  C_8
REMARK    4  A    between atoms: C_8  and  C_9
REMARK    5  A    between atoms: C_9  and  N_10
REMARK    6  A    between atoms: N_10  and  C_11
REMARK    7  A    between atoms: C_14  and  C_15
REMARK                            x       y       z     vdW  Elec       q    Type
REMARK                         _______ _______ _______ _____ _____    ______ ____
ROOT
ATOM      1  C   UNL     1      44.028   4.814  11.477  0.00  0.00    +0.000 C 
ENDROOT
BRANCH   1   2
ATOM      2  N   UNL     1      43.831   4.820  10.019  0.00  0.00    +0.000 N 
ATOM      3  H   UNL     1      43.880   5.758   9.622  0.00  0.00    +0.000 HD
BRANCH   2   4
ATOM      4  C   UNL     1      44.612   3.901   9.288  0.00  0.00    +0.000 A 
ATOM      5  C   UNL     1      45.649   4.297   8.442  0.00  0.00    +0.000 A 
ATOM      6  C   UNL     1      46.437   3.358   7.779  0.00  0.00    +0.000 A 
ATOM      7  C   UNL     1      46.190   2.016   8.009  0.00  0.00    +0.000 A 
ATOM      8  N   UNL     1      45.224   1.561   8.856  0.00  0.00    +0.000 NA
ATOM      9  C   UNL     1      44.483   2.518   9.480  0.00  0.00    +0.000 A 
BRANCH   7  10
ATOM     10  C   UNL     1      47.035   0.995   7.310  0.00  0.00    +0.000 C 
ATOM     11  N   UNL     1      46.815  -0.306   7.677  0.00  0.00    +0.000 N 
ATOM     12  O   UNL     1      47.871   1.291   6.467  0.00  0.00    +0.000 OA
ATOM     13  H   UNL     1      46.134  -0.515   8.396  0.00  0.00    +0.000 HD
ATOM     14  H   UNL     1      47.375  -1.036   7.262  0.00  0.00    +0.000 HD
ENDBRANCH   7  10
ENDBRANCH   2   4
ENDBRANCH   1   2
BRANCH   1  15
ATOM     15  C   UNL     1      45.226   3.954  11.900  0.00  0.00    +0.000 C 
BRANCH  15  20
ATOM     16  C   UNL     1      47.315   4.715  15.023  0.00  0.00    +0.000 A 
ATOM     17  C   UNL     1      47.853   5.965  14.654  0.00  0.00    +0.000 A 
ATOM     18  C   UNL     1      47.517   6.575  13.444  0.00  0.00    +0.000 A 
ATOM     19  C   UNL     1      46.643   5.945  12.563  0.00  0.00    +0.000 A 
ATOM     20  C   UNL     1      46.079   4.712  12.898  0.00  0.00    +0.000 A 
ATOM     21  C   UNL     1      46.401   4.122  14.136  0.00  0.00    +0.000 A 
BRANCH  16  23
ATOM     22  C   UNL     1      48.369   2.638  15.916  0.00  0.00    +0.000 C 
ATOM     23  C   UNL     1      47.818   4.024  16.302  0.00  0.00    +0.000 C 
ATOM     24  C   UNL     1      48.865   4.877  17.028  0.00  0.00    +0.000 C 
ATOM     25  C   UNL     1      48.084   5.630  18.097  0.00  0.00    +0.000 C 
ATOM     26  O   UNL     1      46.761   5.086  18.145  0.00  0.00    +0.000 OA
ATOM     27  C   UNL     1      46.790   3.847  17.432  0.00  0.00    +0.000 C 
ENDBRANCH  16  23
ENDBRANCH  15  20
ENDBRANCH   1  15
TORSDOF 6
ENDMDL
MODEL 5
REMARK VINA RESULT:    -6.895      4.869      7.695
REMARK INTER + INTRA:          -9.983
REMARK INTER:                  -9.293
REMARK INTRA:                  -0.689
REMARK UNBOUND:                -0.670
REMARK  Name = 
REMARK  7 active torsions:
REMARK  status: ('A' for Active; 'I' for Inactive)
REMARK    1  A    between atoms: C_1  and  C_2
REMARK    2  A    between atoms: C_2  and  C_3
REMARK    3  A    between atoms: C_7  and  C_8
REMARK    4  A    between atoms: C_8  and  C_9
REMARK    5  A    between atoms: C_9  and  N_10
REMARK    6  A    between atoms: N_10  and  C_11
REMARK    7  A    between atoms: C_14  and  C_15
REMARK                            x       y       z     vdW  Elec       q    Type
REMARK                         _______ _______ _______ _____ _____    ______ ____
ROOT
ATOM      1  C   UNL     1      47.086   4.661  15.117  0.00  0.00    +0.000 C 
ENDROOT
BRANCH   1   2
ATOM      2  N   UNL     1      47.482   4.580  16.532  0.00  0.00    +0.000 N 
ATOM      3  H   UNL     1      46.718   4.278  17.135  0.00  0.00    +0.000 HD
BRANCH   2   4
ATOM      4  C   UNL     1      48.671   3.872  16.799  0.00  0.00    +0.000 A 
ATOM      5  C   UNL     1      49.751   4.439  17.480  0.00  0.00    +0.000 A 
ATOM      6  C   UNL     1      50.889   3.691  17.776  0.00  0.00    +0.000 A 
ATOM      7  C   UNL     1      50.910   2.357  17.411  0.00  0.00    +0.000 A 
ATOM      8  N   UNL     1      49.874   1.730  16.785  0.00  0.00    +0.000 NA
ATOM      9  C   UNL     1      48.786   2.503  16.519  0.00  0.00    +0.000 A 
BRANCH   7  10
ATOM     10  C   UNL     1      52.124   1.538  17.731  0.00  0.00    +0.000 C 
ATOM     11  N   UNL     1      51.882   0.241  18.095  0.00  0.00    +0.000 N 
ATOM     12  O   UNL     1      53.260   1.989  17.678  0.00  0.00    +0.000 OA
ATOM     13  H   UNL     1      50.929  -0.094  18.154  0.00  0.00    +0.000 HD
ATOM     14  H   UNL     1      52.658  -0.351  18.351  0.00  0.00    +0.000 HD
ENDBRANCH   7  10
ENDBRANCH   2   4
ENDBRANCH   1   2
BRANCH   1  15
ATOM     15  C   UNL     1      47.677   5.889  14.414  0.00  0.00    +0.000 C 
BRANCH  15  20
ATOM     16  C   UNL     1      44.843   5.850  11.833  0.00  0.00    +0.000 A 
ATOM     17  C   UNL     1      44.881   7.195  11.414  0.00  0.00    +0.000 A 
ATOM     18  C   UNL     1      45.827   8.090  11.916  0.00  0.00    +0.000 A 
ATOM     19  C   UNL     1      46.755   7.666  12.864  0.00  0.00    +0.000 A 
ATOM     20  C   UNL     1      46.758   6.337  13.295  0.00  0.00    +0.000 A 
ATOM     21  C   UNL     1      45.819   5.437  12.756  0.00  0.00    +0.000 A 
BRANCH  16  23
ATOM     22  C   UNL     1      42.363   5.608  11.720  0.00  0.00    +0.000 C 
ATOM     23  C   UNL     1      43.701   4.939  11.351  0.00  0.00    +0.000 C 
ATOM     24  C   UNL     1      43.806   4.654   9.848  0.00  0.00    +0.000 C 
ATOM     25  C   UNL     1      44.519   3.311   9.752  0.00  0.00    +0.000 C 
ATOM     26  O   UNL     1      44.602   2.760  11.070  0.00  0.00    +0.000 OA
ATOM     27  C   UNL     1      43.699   3.501  11.895  0.00  0.00    +0.000 C 
ENDBRANCH  16  23
ENDBRANCH  15  20
ENDBRANCH   1  15
TORSDOF 6
ENDMDL
MODEL 6
REMARK VINA RESULT:    -6.842      3.780      5.931
REMARK INTER + INTRA:          -9.911
REMARK INTER:                  -9.046
REMARK INTRA:                  -0.866
REMARK UNBOUND:                -0.670
REMARK  Name = 
REMARK  7 active torsions:
REMARK  status: ('A' for Active; 'I' for Inactive)
REMARK    1  A    between atoms: C_1  and  C_2
REMARK    2  A    between atoms: C_2  and  C_3
REMARK    3  A    between atoms: C_7  and  C_8
REMARK    4  A    between atoms: C_8  and  C_9
REMARK    5  A    between atoms: C_9  and  N_10
REMARK    6  A    between atoms: N_10  and  C_11
REMARK    7  A    between atoms: C_14  and  C_15
REMARK                            x       y       z     vdW  Elec       q    Type
REMARK                         _______ _______ _______ _____ _____    ______ ____
ROOT
ATOM      1  C   UNL     1      48.435   7.040  13.570  0.00  0.00    +0.000 C 
ENDROOT
BRANCH   1   2
ATOM      2  N   UNL     1      46.972   7.143  13.684  0.00  0.00    +0.000 N 
ATOM      3  H   UNL     1      46.628   8.079  13.475  0.00  0.00    +0.000 HD
BRANCH   2   4
ATOM      4  C   UNL     1      46.230   6.150  13.012  0.00  0.00    +0.000 A 
ATOM      5  C   UNL     1      45.946   6.215  11.646  0.00  0.00    +0.000 A 
ATOM      6  C   UNL     1      45.259   5.187  11.003  0.00  0.00    +0.000 A 
ATOM      7  C   UNL     1      44.895   4.077  11.746  0.00  0.00    +0.000 A 
ATOM      8  N   UNL     1      45.180   3.929  13.071  0.00  0.00    +0.000 NA
ATOM      9  C   UNL     1      45.853   4.960  13.652  0.00  0.00    +0.000 A 
BRANCH   7  10
ATOM     10  C   UNL     1      44.163   2.960  11.066  0.00  0.00    +0.000 C 
ATOM     11  N   UNL     1      44.826   2.368  10.025  0.00  0.00    +0.000 N 
ATOM     12  O   UNL     1      43.046   2.595  11.406  0.00  0.00    +0.000 OA
ATOM     13  H   UNL     1      45.737   2.711   9.752  0.00  0.00    +0.000 HD
ATOM     14  H   UNL     1      44.371   1.630   9.509  0.00  0.00    +0.000 HD
ENDBRANCH   7  10
ENDBRANCH   2   4
ENDBRANCH   1   2
BRANCH   1  15
ATOM     15  C   UNL     1      49.164   7.922  14.590  0.00  0.00    +0.000 C 
BRANCH  15  20
ATOM     16  C   UNL     1      49.873   5.109  17.097  0.00  0.00    +0.000 A 
ATOM     17  C   UNL     1      51.264   5.273  17.256  0.00  0.00    +0.000 A 
ATOM     18  C   UNL     1      51.956   6.297  16.607  0.00  0.00    +0.000 A 
ATOM     19  C   UNL     1      51.279   7.177  15.768  0.00  0.00    +0.000 A 
ATOM     20  C   UNL     1      49.898   7.054  15.594  0.00  0.00    +0.000 A 
ATOM     21  C   UNL     1      49.205   6.037  16.280  0.00  0.00    +0.000 A 
BRANCH  16  23
ATOM     22  C   UNL     1      49.035   4.143  19.239  0.00  0.00    +0.000 C 
ATOM     23  C   UNL     1      49.178   3.889  17.727  0.00  0.00    +0.000 C 
ATOM     24  C   UNL     1      47.826   3.608  17.060  0.00  0.00    +0.000 C 
ATOM     25  C   UNL     1      48.117   2.533  16.021  0.00  0.00    +0.000 C 
ATOM     26  O   UNL     1      49.454   2.066  16.230  0.00  0.00    +0.000 OA
ATOM     27  C   UNL     1      49.865   2.530  17.519  0.00  0.00    +0.000 C 
ENDBRANCH  16  23
ENDBRANCH  15  20
ENDBRANCH   1  15
TORSDOF 6
ENDMDL
MODEL 7
REMARK VINA RESULT:    -6.815      4.284      7.208
REMARK INTER + INTRA:          -9.876
REMARK INTER:                  -8.608
REMARK INTRA:                  -1.267
REMARK UNBOUND:                -0.670
REMARK  Name = 
REMARK  7 active torsions:
REMARK  status: ('A' for Active; 'I' for Inactive)
REMARK    1  A    between atoms: C_1  and  C_2
REMARK    2  A    between atoms: C_2  and  C_3
REMARK    3  A    between atoms: C_7  and  C_8
REMARK    4  A    between atoms: C_8  and  C_9
REMARK    5  A    between atoms: C_9  and  N_10
REMARK    6  A    between atoms: N_10  and  C_11
REMARK    7  A    between atoms: C_14  and  C_15
REMARK                            x       y       z     vdW  Elec       q    Type
REMARK                         _______ _______ _______ _____ _____    ______ ____
ROOT
ATOM      1  C   UNL     1      49.598   7.294  12.854  0.00  0.00    +0.000 C 
ENDROOT
BRANCH   1   2
ATOM      2  N   UNL     1      49.161   7.712  14.194  0.00  0.00    +0.000 N 
ATOM      3  H   UNL     1      48.544   8.522  14.170  0.00  0.00    +0.000 HD
BRANCH   2   4
ATOM      4  C   UNL     1      48.651   6.690  15.022  0.00  0.00    +0.000 A 
ATOM      5  C   UNL     1      47.780   5.703  14.554  0.00  0.00    +0.000 A 
ATOM      6  C   UNL     1      47.341   4.675  15.386  0.00  0.00    +0.000 A 
ATOM      7  C   UNL     1      47.820   4.634  16.684  0.00  0.00    +0.000 A 
ATOM      8  N   UNL     1      48.706   5.537  17.191  0.00  0.00    +0.000 NA
ATOM      9  C   UNL     1      49.104   6.520  16.338  0.00  0.00    +0.000 A 
BRANCH   7  10
ATOM     10  C   UNL     1      47.363   3.529  17.588  0.00  0.00    +0.000 C 
ATOM     11  N   UNL     1      48.175   3.269  18.659  0.00  0.00    +0.000 N 
ATOM     12  O   UNL     1      46.337   2.892  17.390  0.00  0.00    +0.000 OA
ATOM     13  H   UNL     1      49.030   3.796  18.780  0.00  0.00    +0.000 HD
ATOM     14  H   UNL     1      47.934   2.516  19.287  0.00  0.00    +0.000 HD
ENDBRANCH   7  10
ENDBRANCH   2   4
ENDBRANCH   1   2
BRANCH   1  15
ATOM     15  C   UNL     1      48.975   8.149  11.743  0.00  0.00    +0.000 C 
BRANCH  15  20
ATOM     16  C   UNL     1      45.516   6.541  11.366  0.00  0.00    +0.000 A 
ATOM     17  C   UNL     1      44.721   7.536  11.970  0.00  0.00    +0.000 A 
ATOM     18  C   UNL     1      45.277   8.723  12.449  0.00  0.00    +0.000 A 
ATOM     19  C   UNL     1      46.648   8.942  12.351  0.00  0.00    +0.000 A 
ATOM     20  C   UNL     1      47.468   7.985  11.748  0.00  0.00    +0.000 A 
ATOM     21  C   UNL     1      46.890   6.805  11.239  0.00  0.00    +0.000 A 
BRANCH  16  23
ATOM     22  C   UNL     1      45.382   4.815   9.569  0.00  0.00    +0.000 C 
ATOM     23  C   UNL     1      44.878   5.196  10.974  0.00  0.00    +0.000 C 
ATOM     24  C   UNL     1      45.182   4.108  12.010  0.00  0.00    +0.000 C 
ATOM     25  C   UNL     1      43.963   4.082  12.923  0.00  0.00    +0.000 C 
ATOM     26  O   UNL     1      42.951   4.904  12.332  0.00  0.00    +0.000 OA
ATOM     27  C   UNL     1      43.341   5.144  10.977  0.00  0.00    +0.000 C 
ENDBRANCH  16  23
ENDBRANCH  15  20
ENDBRANCH   1  15
TORSDOF 6
ENDMDL
MODEL 8
REMARK VINA RESULT:    -6.632      5.016      7.751
REMARK INTER + INTRA:          -9.628
REMARK INTER:                  -8.813
REMARK INTRA:                  -0.816
REMARK UNBOUND:                -0.670
REMARK  Name = 
REMARK  7 active torsions:
REMARK  status: ('A' for Active; 'I' for Inactive)
REMARK    1  A    between atoms: C_1  and  C_2
REMARK    2  A    between atoms: C_2  and  C_3
REMARK    3  A    between atoms: C_7  and  C_8
REMARK    4  A    between atoms: C_8  and  C_9
REMARK    5  A    between atoms: C_9  and  N_10
REMARK    6  A    between atoms: N_10  and  C_11
REMARK    7  A    between atoms: C_14  and  C_15
REMARK                            x       y       z     vdW  Elec       q    Type
REMARK                         _______ _______ _______ _____ _____    ______ ____
ROOT
ATOM      1  C   UNL     1      48.661   7.469  15.493  0.00  0.00    +0.000 C 
ENDROOT
BRANCH   1   2
ATOM      2  N   UNL     1      48.237   6.706  16.677  0.00  0.00    +0.000 N 
ATOM      3  H   UNL     1      47.233   6.528  16.689  0.00  0.00    +0.000 HD
BRANCH   2   4
ATOM      4  C   UNL     1      48.979   5.539  16.955  0.00  0.00    +0.000 A 
ATOM      5  C   UNL     1      48.402   4.268  16.988  0.00  0.00    +0.000 A 
ATOM      6  C   UNL     1      49.176   3.130  17.210  0.00  0.00    +0.000 A 
ATOM      7  C   UNL     1      50.543   3.288  17.361  0.00  0.00    +0.000 A 
ATOM      8  N   UNL     1      51.176   4.493  17.294  0.00  0.00    +0.000 NA
ATOM      9  C   UNL     1      50.376   5.572  17.075  0.00  0.00    +0.000 A 
BRANCH   7  10
ATOM     10  C   UNL     1      51.389   2.072  17.591  0.00  0.00    +0.000 C 
ATOM     11  N   UNL     1      52.406   2.224  18.496  0.00  0.00    +0.000 N 
ATOM     12  O   UNL     1      51.197   1.011  17.014  0.00  0.00    +0.000 OA
ATOM     13  H   UNL     1      52.555   3.122  18.936  0.00  0.00    +0.000 HD
ATOM     14  H   UNL     1      53.028   1.449  18.670  0.00  0.00    +0.000 HD
ENDBRANCH   7  10
ENDBRANCH   2   4
ENDBRANCH   1   2
BRANCH   1  15
ATOM     15  C   UNL     1      48.647   6.621  14.215  0.00  0.00    +0.000 C 
BRANCH  15  20
ATOM     16  C   UNL     1      45.587   6.294  11.929  0.00  0.00    +0.000 A 
ATOM     17  C   UNL     1      45.125   7.626  11.954  0.00  0.00    +0.000 A 
ATOM     18  C   UNL     1      45.808   8.622  12.654  0.00  0.00    +0.000 A 
ATOM     19  C   UNL     1      46.965   8.310  13.362  0.00  0.00    +0.000 A 
ATOM     20  C   UNL     1      47.462   7.004  13.352  0.00  0.00    +0.000 A 
ATOM     21  C   UNL     1      46.781   6.015  12.615  0.00  0.00    +0.000 A 
BRANCH  16  23
ATOM     22  C   UNL     1      45.279   4.973   9.836  0.00  0.00    +0.000 C 
ATOM     23  C   UNL     1      44.730   5.208  11.255  0.00  0.00    +0.000 C 
ATOM     24  C   UNL     1      44.706   3.918  12.084  0.00  0.00    +0.000 C 
ATOM     25  C   UNL     1      43.424   4.002  12.903  0.00  0.00    +0.000 C 
ATOM     26  O   UNL     1      42.662   5.113  12.420  0.00  0.00    +0.000 OA
ATOM     27  C   UNL     1      43.222   5.491  11.159  0.00  0.00    +0.000 C 
ENDBRANCH  16  23
ENDBRANCH  15  20
ENDBRANCH   1  15
TORSDOF 6
ENDMDL
MODEL 9
REMARK VINA RESULT:    -6.092      5.102      8.469
REMARK INTER + INTRA:          -8.899
REMARK INTER:                  -8.170
REMARK INTRA:                  -0.729
REMARK UNBOUND:                -0.670
REMARK  Name = 
REMARK  7 active torsions:
REMARK  status: ('A' for Active; 'I' for Inactive)
REMARK    1  A    between atoms: C_1  and  C_2
REMARK    2  A    between atoms: C_2  and  C_3
REMARK    3  A    between atoms: C_7  and  C_8
REMARK    4  A    between atoms: C_8  and  C_9
REMARK    5  A    between atoms: C_9  and  N_10
REMARK    6  A    between atoms: N_10  and  C_11
REMARK    7  A    between atoms: C_14  and  C_15
REMARK                            x       y       z     vdW  Elec       q    Type
REMARK                         _______ _______ _______ _____ _____    ______ ____
ROOT
ATOM      1  C   UNL     1      47.234   3.857  14.767  0.00  0.00    +0.000 C 
ENDROOT
BRANCH   1   2
ATOM      2  N   UNL     1      46.791   3.680  16.159  0.00  0.00    +0.000 N 
ATOM      3  H   UNL     1      46.446   2.739  16.343  0.00  0.00    +0.000 HD
BRANCH   2   4
ATOM      4  C   UNL     1      47.693   4.112  17.152  0.00  0.00    +0.000 A 
ATOM      5  C   UNL     1      47.348   5.046  18.132  0.00  0.00    +0.000 A 
ATOM      6  C   UNL     1      48.249   5.406  19.133  0.00  0.00    +0.000 A 
ATOM      7  C   UNL     1      49.487   4.787  19.155  0.00  0.00    +0.000 A 
ATOM      8  N   UNL     1      49.871   3.836  18.257  0.00  0.00    +0.000 NA
ATOM      9  C   UNL     1      48.956   3.519  17.301  0.00  0.00    +0.000 A 
BRANCH   7  10
ATOM     10  C   UNL     1      50.462   5.159  20.230  0.00  0.00    +0.000 C 
ATOM     11  N   UNL     1      51.560   4.348  20.338  0.00  0.00    +0.000 N 
ATOM     12  O   UNL     1      50.297   6.118  20.972  0.00  0.00    +0.000 OA
ATOM     13  H   UNL     1      51.653   3.548  19.727  0.00  0.00    +0.000 HD
ATOM     14  H   UNL     1      52.237   4.531  21.063  0.00  0.00    +0.000 HD
ENDBRANCH   7  10
ENDBRANCH   2   4
ENDBRANCH   1   2
BRANCH   1  15
ATOM     15  C   UNL     1      47.649   5.302  14.465  0.00  0.00    +0.000 C 
BRANCH  15  20
ATOM     16  C   UNL     1      44.805   5.615  11.914  0.00  0.00    +0.000 A 
ATOM     17  C   UNL     1      44.889   6.993  11.628  0.00  0.00    +0.000 A 
ATOM     18  C   UNL     1      45.869   7.800  12.209  0.00  0.00    +0.000 A 
ATOM     19  C   UNL     1      46.785   7.254  13.103  0.00  0.00    +0.000 A 
ATOM     20  C   UNL     1      46.742   5.889  13.402  0.00  0.00    +0.000 A 
ATOM     21  C   UNL     1      45.769   5.079  12.785  0.00  0.00    +0.000 A 
BRANCH  16  23
ATOM     22  C   UNL     1      42.319   5.512  11.734  0.00  0.00    +0.000 C 
ATOM     23  C   UNL     1      43.629   4.796  11.354  0.00  0.00    +0.000 C 
ATOM     24  C   UNL     1      43.756   4.595   9.839  0.00  0.00    +0.000 C 
ATOM     25  C   UNL     1      44.400   3.225   9.677  0.00  0.00    +0.000 C 
ATOM     26  O   UNL     1      44.423   2.592  10.961  0.00  0.00    +0.000 OA
ATOM     27  C   UNL     1      43.539   3.331  11.810  0.00  0.00    +0.000 C 
ENDBRANCH  16  23
ENDBRANCH  15  20
ENDBRANCH   1  15
TORSDOF 6
ENDMDL
