MODEL 1
REMARK VINA RESULT:    -7.882      0.000      0.000
REMARK INTER + INTRA:         -10.982
REMARK INTER:                 -10.416
REMARK INTRA:                  -0.566
REMARK UNBOUND:                -0.566
REMARK  Name = 
REMARK  7 active torsions:
REMARK  status: ('A' for Active; 'I' for Inactive)
REMARK    1  A    between atoms: C_1  and  O_2
REMARK    2  A    between atoms: O_2  and  C_3
REMARK    3  A    between atoms: C_5  and  C_6
REMARK    4  A    between atoms: N_13  and  C_14
REMARK    5  A    between atoms: C_14  and  C_15
REMARK    6  A    between atoms: C_18  and  C_19
REMARK    7  A    between atoms: C_19  and  N_20
REMARK                            x       y       z     vdW  Elec       q    Type
REMARK                         _______ _______ _______ _____ _____    ______ ____
ROOT
ATOM      1  C   UNL     1      45.568   4.231  13.204  0.00  0.00    +0.000 A 
ATOM      2  C   UNL     1      46.283   4.050  14.401  0.00  0.00    +0.000 A 
ATOM      3  C   UNL     1      47.306   4.906  14.802  0.00  0.00    +0.000 A 
ATOM      4  C   UNL     1      47.703   5.935  13.948  0.00  0.00    +0.000 A 
ATOM      5  C   UNL     1      47.070   6.094  12.691  0.00  0.00    +0.000 A 
ATOM      6  C   UNL     1      47.281   7.007  11.626  0.00  0.00    +0.000 A 
ATOM      7  C   UNL     1      46.372   6.722  10.641  0.00  0.00    +0.000 A 
ATOM      8  N   UNL     1      45.586   5.671  11.065  0.00  0.00    +0.000 N 
ATOM      9  C   UNL     1      46.008   5.251  12.327  0.00  0.00    +0.000 A 
ENDROOT
BRANCH   3  10
ATOM     10  C   UNL     1      47.878   4.665  16.162  0.00  0.00    +0.000 C 
ATOM     11  N   UNL     1      47.541   5.514  17.176  0.00  0.00    +0.000 N 
ATOM     12  O   UNL     1      48.615   3.716  16.392  0.00  0.00    +0.000 OA
ATOM     13  H   UNL     1      46.876   6.268  17.106  0.00  0.00    +0.000 HD
ATOM     14  H   UNL     1      47.891   5.274  18.097  0.00  0.00    +0.000 HD
ENDBRANCH   3  10
BRANCH   1  16
ATOM     15  C   UNL     1      43.218   4.058  13.226  0.00  0.00    +0.000 C 
ATOM     16  O   UNL     1      44.474   3.450  12.895  0.00  0.00    +0.000 OA
ENDBRANCH   1  16
BRANCH   8  17
ATOM     17  C   UNL     1      44.532   5.100  10.217  0.00  0.00    +0.000 C 
BRANCH  17  18
ATOM     18  C   UNL     1      45.084   4.066   9.260  0.00  0.00    +0.000 A 
ATOM     19  C   UNL     1      44.933   2.690   9.493  0.00  0.00    +0.000 A 
ATOM     20  C   UNL     1      45.624   1.756   8.710  0.00  0.00    +0.000 A 
ATOM     21  C   UNL     1      46.481   2.178   7.683  0.00  0.00    +0.000 A 
ATOM     22  C   UNL     1      46.528   3.544   7.377  0.00  0.00    +0.000 A 
ATOM     23  C   UNL     1      45.832   4.474   8.151  0.00  0.00    +0.000 A 
BRANCH  21  24
ATOM     24  C   UNL     1      47.474   1.210   7.086  0.00  0.00    +0.000 C 
BRANCH  24  25
ATOM     25  N   UNL     1      48.409   1.817   6.145  0.00  0.00    +0.000 NA
ATOM     26  H   UNL     1      48.866   1.078   5.614  0.00  0.00    +0.000 HD
ATOM     27  H   UNL     1      49.140   2.292   6.672  0.00  0.00    +0.000 HD
ENDBRANCH  24  25
ENDBRANCH  21  24
ENDBRANCH  17  18
ENDBRANCH   8  17
TORSDOF 6
ENDMDL
MODEL 2
REMARK VINA RESULT:    -7.704      2.092      2.822
REMARK INTER + INTRA:         -10.747
REMARK INTER:                 -10.111
REMARK INTRA:                  -0.636
REMARK UNBOUND:                -0.566
REMARK  Name = 
REMARK  7 active torsions:
REMARK  status: ('A' for Active; 'I' for Inactive)
REMARK    1  A    between atoms: C_1  and  O_2
REMARK    2  A    between atoms: O_2  and  C_3
REMARK    3  A    between atoms: C_5  and  C_6
REMARK    4  A    between atoms: N_13  and  C_14
REMARK    5  A    between atoms: C_14  and  C_15
REMARK    6  A    between atoms: C_18  and  C_19
REMARK    7  A    between atoms: C_19  and  N_20
REMARK                            x       y       z     vdW  Elec       q    Type
REMARK                         _______ _______ _______ _____ _____    ______ ____
ROOT
ATOM      1  C   UNL     1      45.800   6.895  12.063  0.00  0.00    +0.000 A 
ATOM      2  C   UNL     1      46.505   7.831  12.839  0.00  0.00    +0.000 A 
ATOM      3  C   UNL     1      47.416   7.456  13.826  0.00  0.00    +0.000 A 
ATOM      4  C   UNL     1      47.576   6.102  14.121  0.00  0.00    +0.000 A 
ATOM      5  C   UNL     1      46.815   5.132  13.424  0.00  0.00    +0.000 A 
ATOM      6  C   UNL     1      46.743   3.719  13.532  0.00  0.00    +0.000 A 
ATOM      7  C   UNL     1      45.844   3.271  12.599  0.00  0.00    +0.000 A 
ATOM      8  N   UNL     1      45.366   4.359  11.899  0.00  0.00    +0.000 N 
ATOM      9  C   UNL     1      45.939   5.527  12.400  0.00  0.00    +0.000 A 
ENDROOT
BRANCH   3  10
ATOM     10  C   UNL     1      48.188   8.561  14.471  0.00  0.00    +0.000 C 
ATOM     11  N   UNL     1      47.635   9.216  15.533  0.00  0.00    +0.000 N 
ATOM     12  O   UNL     1      49.308   8.872  14.088  0.00  0.00    +0.000 OA
ATOM     13  H   UNL     1      46.762   8.975  15.974  0.00  0.00    +0.000 HD
ATOM     14  H   UNL     1      48.221   9.908  15.986  0.00  0.00    +0.000 HD
ENDBRANCH   3  10
BRANCH   1  16
ATOM     15  C   UNL     1      44.391   8.571  11.192  0.00  0.00    +0.000 C 
ATOM     16  O   UNL     1      45.007   7.290  11.006  0.00  0.00    +0.000 OA
ENDBRANCH   1  16
BRANCH   8  17
ATOM     17  C   UNL     1      44.352   4.217  10.845  0.00  0.00    +0.000 C 
BRANCH  17  18
ATOM     18  C   UNL     1      44.931   3.594   9.594  0.00  0.00    +0.000 A 
ATOM     19  C   UNL     1      44.944   2.203   9.400  0.00  0.00    +0.000 A 
ATOM     20  C   UNL     1      45.665   1.641   8.338  0.00  0.00    +0.000 A 
ATOM     21  C   UNL     1      46.387   2.454   7.453  0.00  0.00    +0.000 A 
ATOM     22  C   UNL     1      46.265   3.844   7.578  0.00  0.00    +0.000 A 
ATOM     23  C   UNL     1      45.540   4.405   8.630  0.00  0.00    +0.000 A 
BRANCH  21  24
ATOM     24  C   UNL     1      47.425   1.842   6.543  0.00  0.00    +0.000 C 
BRANCH  24  25
ATOM     25  N   UNL     1      48.654   2.619   6.429  0.00  0.00    +0.000 NA
ATOM     26  H   UNL     1      48.692   3.286   7.197  0.00  0.00    +0.000 HD
ATOM     27  H   UNL     1      48.618   3.164   5.570  0.00  0.00    +0.000 HD
ENDBRANCH  24  25
ENDBRANCH  21  24
ENDBRANCH  17  18
ENDBRANCH   8  17
TORSDOF 6
ENDMDL
MODEL 3
REMARK VINA RESULT:    -7.116      2.208      2.841
REMARK INTER + INTRA:          -9.970
REMARK INTER:                  -9.469
REMARK INTRA:                  -0.500
REMARK UNBOUND:                -0.566
REMARK  Name = 
REMARK  7 active torsions:
REMARK  status: ('A' for Active; 'I' for Inactive)
REMARK    1  A    between atoms: C_1  and  O_2
REMARK    2  A    between atoms: O_2  and  C_3
REMARK    3  A    between atoms: C_5  and  C_6
REMARK    4  A    between atoms: N_13  and  C_14
REMARK    5  A    between atoms: C_14  and  C_15
REMARK    6  A    between atoms: C_18  and  C_19
REMARK    7  A    between atoms: C_19  and  N_20
REMARK                            x       y       z     vdW  Elec       q    Type
REMARK                         _______ _______ _______ _____ _____    ______ ____
ROOT
ATOM      1  C   UNL     1      46.373   5.513  12.625  0.00  0.00    +0.000 A 
ATOM      2  C   UNL     1      47.165   6.561  13.125  0.00  0.00    +0.000 A 
ATOM      3  C   UNL     1      46.716   7.879  13.190  0.00  0.00    +0.000 A 
ATOM      4  C   UNL     1      45.465   8.195  12.660  0.00  0.00    +0.000 A 
ATOM      5  C   UNL     1      44.674   7.183  12.063  0.00  0.00    +0.000 A 
ATOM      6  C   UNL     1      43.407   7.216  11.426  0.00  0.00    +0.000 A 
ATOM      7  C   UNL     1      43.099   5.938  11.037  0.00  0.00    +0.000 A 
ATOM      8  N   UNL     1      44.126   5.105  11.428  0.00  0.00    +0.000 N 
ATOM      9  C   UNL     1      45.124   5.853  12.052  0.00  0.00    +0.000 A 
ENDROOT
BRANCH   3  10
ATOM     10  C   UNL     1      47.619   8.855  13.872  0.00  0.00    +0.000 C 
ATOM     11  N   UNL     1      47.500   9.028  15.221  0.00  0.00    +0.000 N 
ATOM     12  O   UNL     1      48.474   9.479  13.258  0.00  0.00    +0.000 OA
ATOM     13  H   UNL     1      46.890   8.499  15.823  0.00  0.00    +0.000 HD
ATOM     14  H   UNL     1      48.179   9.644  15.655  0.00  0.00    +0.000 HD
ENDBRANCH   3  10
BRANCH   1  16
ATOM     15  C   UNL     1      46.987   3.727  14.034  0.00  0.00    +0.000 C 
ATOM     16  O   UNL     1      46.789   4.201  12.696  0.00  0.00    +0.000 OA
ENDBRANCH   1  16
BRANCH   8  17
ATOM     17  C   UNL     1      44.116   3.667  11.125  0.00  0.00    +0.000 C 
BRANCH  17  18
ATOM     18  C   UNL     1      44.796   3.369   9.807  0.00  0.00    +0.000 A 
ATOM     19  C   UNL     1      45.071   2.054   9.399  0.00  0.00    +0.000 A 
ATOM     20  C   UNL     1      45.879   1.812   8.281  0.00  0.00    +0.000 A 
ATOM     21  C   UNL     1      46.430   2.875   7.552  0.00  0.00    +0.000 A 
ATOM     22  C   UNL     1      46.049   4.180   7.889  0.00  0.00    +0.000 A 
ATOM     23  C   UNL     1      45.236   4.422   8.997  0.00  0.00    +0.000 A 
BRANCH  21  24
ATOM     24  C   UNL     1      47.561   2.620   6.584  0.00  0.00    +0.000 C 
BRANCH  24  25
ATOM     25  N   UNL     1      48.097   1.264   6.634  0.00  0.00    +0.000 NA
ATOM     26  H   UNL     1      47.321   0.605   6.632  0.00  0.00    +0.000 HD
ATOM     27  H   UNL     1      48.584   1.138   7.519  0.00  0.00    +0.000 HD
ENDBRANCH  24  25
ENDBRANCH  21  24
ENDBRANCH  17  18
ENDBRANCH   8  17
TORSDOF 6
ENDMDL
MODEL 4
REMARK VINA RESULT:    -6.237      3.166      6.142
REMARK INTER + INTRA:          -8.809
REMARK INTER:                  -8.113
REMARK INTRA:                  -0.696
REMARK UNBOUND:                -0.566
REMARK  Name = 
REMARK  7 active torsions:
REMARK  status: ('A' for Active; 'I' for Inactive)
REMARK    1  A    between atoms: C_1  and  O_2
REMARK    2  A    between atoms: O_2  and  C_3
REMARK    3  A    between atoms: C_5  and  C_6
REMARK    4  A    between atoms: N_13  and  C_14
REMARK    5  A    between atoms: C_14  and  C_15
REMARK    6  A    between atoms: C_18  and  C_19
REMARK    7  A    between atoms: C_19  and  N_20
REMARK                            x       y       z     vdW  Elec       q    Type
REMARK                         _______ _______ _______ _____ _____    ______ ____
ROOT
ATOM      1  C   UNL     1      46.340   5.092  12.964  0.00  0.00    +0.000 A 
ATOM      2  C   UNL     1      45.580   4.003  12.502  0.00  0.00    +0.000 A 
ATOM      3  C   UNL     1      44.539   4.147  11.587  0.00  0.00    +0.000 A 
ATOM      4  C   UNL     1      44.174   5.428  11.171  0.00  0.00    +0.000 A 
ATOM      5  C   UNL     1      44.855   6.558  11.685  0.00  0.00    +0.000 A 
ATOM      6  C   UNL     1      44.683   7.951  11.475  0.00  0.00    +0.000 A 
ATOM      7  C   UNL     1      45.631   8.608  12.216  0.00  0.00    +0.000 A 
ATOM      8  N   UNL     1      46.401   7.668  12.869  0.00  0.00    +0.000 N 
ATOM      9  C   UNL     1      45.932   6.389  12.569  0.00  0.00    +0.000 A 
ENDROOT
BRANCH   3  10
ATOM     10  C   UNL     1      43.916   2.884  11.087  0.00  0.00    +0.000 C 
ATOM     11  N   UNL     1      44.477   2.254  10.014  0.00  0.00    +0.000 N 
ATOM     12  O   UNL     1      42.937   2.390  11.630  0.00  0.00    +0.000 OA
ATOM     13  H   UNL     1      45.331   2.533   9.557  0.00  0.00    +0.000 HD
ATOM     14  H   UNL     1      44.068   1.364   9.753  0.00  0.00    +0.000 HD
ENDBRANCH   3  10
BRANCH   1  16
ATOM     15  C   UNL     1      47.133   4.464  15.092  0.00  0.00    +0.000 C 
ATOM     16  O   UNL     1      47.447   4.907  13.765  0.00  0.00    +0.000 OA
ENDBRANCH   1  16
BRANCH   8  17
ATOM     17  C   UNL     1      47.489   8.053  13.778  0.00  0.00    +0.000 C 
BRANCH  17  18
ATOM     18  C   UNL     1      48.780   8.301  13.030  0.00  0.00    +0.000 A 
ATOM     19  C   UNL     1      49.093   7.610  11.849  0.00  0.00    +0.000 A 
ATOM     20  C   UNL     1      50.375   7.702  11.290  0.00  0.00    +0.000 A 
ATOM     21  C   UNL     1      51.367   8.483  11.899  0.00  0.00    +0.000 A 
ATOM     22  C   UNL     1      51.010   9.267  13.004  0.00  0.00    +0.000 A 
ATOM     23  C   UNL     1      49.731   9.182  13.556  0.00  0.00    +0.000 A 
BRANCH  21  24
ATOM     24  C   UNL     1      52.814   8.307  11.504  0.00  0.00    +0.000 C 
BRANCH  24  25
ATOM     25  N   UNL     1      53.116   7.014  10.900  0.00  0.00    +0.000 NA
ATOM     26  H   UNL     1      53.562   7.170   9.998  0.00  0.00    +0.000 HD
ATOM     27  H   UNL     1      52.241   6.529  10.713  0.00  0.00    +0.000 HD
ENDBRANCH  24  25
ENDBRANCH  21  24
ENDBRANCH  17  18
ENDBRANCH   8  17
TORSDOF 6
ENDMDL
MODEL 5
REMARK VINA RESULT:    -5.749      3.851      7.611
REMARK INTER + INTRA:          -8.165
REMARK INTER:                  -7.495
REMARK INTRA:                  -0.669
REMARK UNBOUND:                -0.566
REMARK  Name = 
REMARK  7 active torsions:
REMARK  status: ('A' for Active; 'I' for Inactive)
REMARK    1  A    between atoms: C_1  and  O_2
REMARK    2  A    between atoms: O_2  and  C_3
REMARK    3  A    between atoms: C_5  and  C_6
REMARK    4  A    between atoms: N_13  and  C_14
REMARK    5  A    between atoms: C_14  and  C_15
REMARK    6  A    between atoms: C_18  and  C_19
REMARK    7  A    between atoms: C_19  and  N_20
REMARK                            x       y       z     vdW  Elec       q    Type
REMARK                         _______ _______ _______ _____ _____    ______ ____
ROOT
ATOM      1  C   UNL     1      46.734   5.753  13.012  0.00  0.00    +0.000 A 
ATOM      2  C   UNL     1      45.473   5.365  12.527  0.00  0.00    +0.000 A 
ATOM      3  C   UNL     1      44.589   6.261  11.929  0.00  0.00    +0.000 A 
ATOM      4  C   UNL     1      44.924   7.615  11.883  0.00  0.00    +0.000 A 
ATOM      5  C   UNL     1      46.146   8.060  12.444  0.00  0.00    +0.000 A 
ATOM      6  C   UNL     1      46.722   9.350  12.572  0.00  0.00    +0.000 A 
ATOM      7  C   UNL     1      47.937   9.209  13.190  0.00  0.00    +0.000 A 
ATOM      8  N   UNL     1      48.146   7.868  13.436  0.00  0.00    +0.000 N 
ATOM      9  C   UNL     1      47.044   7.135  12.999  0.00  0.00    +0.000 A 
ENDROOT
BRANCH   3  10
ATOM     10  C   UNL     1      43.346   5.675  11.340  0.00  0.00    +0.000 C 
ATOM     11  N   UNL     1      42.137   6.173  11.729  0.00  0.00    +0.000 N 
ATOM     12  O   UNL     1      43.389   4.784  10.503  0.00  0.00    +0.000 OA
ATOM     13  H   UNL     1      42.003   6.962  12.343  0.00  0.00    +0.000 HD
ATOM     14  H   UNL     1      41.324   5.799  11.253  0.00  0.00    +0.000 HD
ENDBRANCH   3  10
BRANCH   1  16
ATOM     15  C   UNL     1      47.038   3.619  13.963  0.00  0.00    +0.000 C 
ATOM     16  O   UNL     1      47.642   4.825  13.477  0.00  0.00    +0.000 OA
ENDBRANCH   1  16
BRANCH   8  17
ATOM     17  C   UNL     1      49.351   7.386  14.126  0.00  0.00    +0.000 C 
BRANCH  17  18
ATOM     18  C   UNL     1      49.126   7.255  15.616  0.00  0.00    +0.000 A 
ATOM     19  C   UNL     1      49.072   6.002  16.247  0.00  0.00    +0.000 A 
ATOM     20  C   UNL     1      48.661   5.897  17.582  0.00  0.00    +0.000 A 
ATOM     21  C   UNL     1      48.294   7.037  18.311  0.00  0.00    +0.000 A 
ATOM     22  C   UNL     1      48.472   8.292  17.714  0.00  0.00    +0.000 A 
ATOM     23  C   UNL     1      48.890   8.399  16.387  0.00  0.00    +0.000 A 
BRANCH  21  24
ATOM     24  C   UNL     1      47.532   6.891  19.606  0.00  0.00    +0.000 C 
BRANCH  24  25
ATOM     25  N   UNL     1      46.939   5.574  19.807  0.00  0.00    +0.000 NA
ATOM     26  H   UNL     1      46.426   5.575  20.686  0.00  0.00    +0.000 HD
ATOM     27  H   UNL     1      47.688   4.891  19.907  0.00  0.00    +0.000 HD
ENDBRANCH  24  25
ENDBRANCH  21  24
ENDBRANCH  17  18
ENDBRANCH   8  17
TORSDOF 6
ENDMDL
MODEL 6
REMARK VINA RESULT:    -5.727      3.307      6.417
REMARK INTER + INTRA:          -8.135
REMARK INTER:                  -7.356
REMARK INTRA:                  -0.779
REMARK UNBOUND:                -0.566
REMARK  Name = 
REMARK  7 active torsions:
REMARK  status: ('A' for Active; 'I' for Inactive)
REMARK    1  A    between atoms: C_1  and  O_2
REMARK    2  A    between atoms: O_2  and  C_3
REMARK    3  A    between atoms: C_5  and  C_6
REMARK    4  A    between atoms: N_13  and  C_14
REMARK    5  A    between atoms: C_14  and  C_15
REMARK    6  A    between atoms: C_18  and  C_19
REMARK    7  A    between atoms: C_19  and  N_20
REMARK                            x       y       z     vdW  Elec       q    Type
REMARK                         _______ _______ _______ _____ _____    ______ ____
ROOT
ATOM      1  C   UNL     1      45.863   6.038  11.831  0.00  0.00    +0.000 A 
ATOM      2  C   UNL     1      45.146   5.028  11.166  0.00  0.00    +0.000 A 
ATOM      3  C   UNL     1      44.986   3.747  11.692  0.00  0.00    +0.000 A 
ATOM      4  C   UNL     1      45.630   3.420  12.886  0.00  0.00    +0.000 A 
ATOM      5  C   UNL     1      46.438   4.382  13.540  0.00  0.00    +0.000 A 
ATOM      6  C   UNL     1      47.223   4.324  14.720  0.00  0.00    +0.000 A 
ATOM      7  C   UNL     1      47.795   5.555  14.907  0.00  0.00    +0.000 A 
ATOM      8  N   UNL     1      47.377   6.388  13.889  0.00  0.00    +0.000 N 
ATOM      9  C   UNL     1      46.547   5.681  13.018  0.00  0.00    +0.000 A 
ENDROOT
BRANCH   3  10
ATOM     10  C   UNL     1      44.084   2.826  10.936  0.00  0.00    +0.000 C 
ATOM     11  N   UNL     1      44.555   2.232   9.801  0.00  0.00    +0.000 N 
ATOM     12  O   UNL     1      42.952   2.573  11.322  0.00  0.00    +0.000 OA
ATOM     13  H   UNL     1      45.498   2.308   9.453  0.00  0.00    +0.000 HD
ATOM     14  H   UNL     1      43.939   1.560   9.359  0.00  0.00    +0.000 HD
ENDBRANCH   3  10
BRANCH   1  16
ATOM     15  C   UNL     1      44.640   8.018  11.462  0.00  0.00    +0.000 C 
ATOM     16  O   UNL     1      45.894   7.331  11.353  0.00  0.00    +0.000 OA
ENDBRANCH   1  16
BRANCH   8  17
ATOM     17  C   UNL     1      47.844   7.776  13.782  0.00  0.00    +0.000 C 
BRANCH  17  18
ATOM     18  C   UNL     1      49.231   7.853  13.182  0.00  0.00    +0.000 A 
ATOM     19  C   UNL     1      50.335   8.291  13.930  0.00  0.00    +0.000 A 
ATOM     20  C   UNL     1      51.561   8.549  13.303  0.00  0.00    +0.000 A 
ATOM     21  C   UNL     1      51.707   8.379  11.919  0.00  0.00    +0.000 A 
ATOM     22  C   UNL     1      50.639   7.823  11.202  0.00  0.00    +0.000 A 
ATOM     23  C   UNL     1      49.421   7.557  11.828  0.00  0.00    +0.000 A 
BRANCH  21  24
ATOM     24  C   UNL     1      52.894   8.981  11.206  0.00  0.00    +0.000 C 
BRANCH  24  25
ATOM     25  N   UNL     1      52.590   9.518   9.885  0.00  0.00    +0.000 NA
ATOM     26  H   UNL     1      52.447   8.742   9.240  0.00  0.00    +0.000 HD
ATOM     27  H   UNL     1      53.401  10.033   9.546  0.00  0.00    +0.000 HD
ENDBRANCH  24  25
ENDBRANCH  21  24
ENDBRANCH  17  18
ENDBRANCH   8  17
TORSDOF 6
ENDMDL
MODEL 7
REMARK VINA RESULT:    -5.701      3.833      7.079
REMARK INTER + INTRA:          -8.100
REMARK INTER:                  -7.441
REMARK INTRA:                  -0.660
REMARK UNBOUND:                -0.566
REMARK  Name = 
REMARK  7 active torsions:
REMARK  status: ('A' for Active; 'I' for Inactive)
REMARK    1  A    between atoms: C_1  and  O_2
REMARK    2  A    between atoms: O_2  and  C_3
REMARK    3  A    between atoms: C_5  and  C_6
REMARK    4  A    between atoms: N_13  and  C_14
REMARK    5  A    between atoms: C_14  and  C_15
REMARK    6  A    between atoms: C_18  and  C_19
REMARK    7  A    between atoms: C_19  and  N_20
REMARK                            x       y       z     vdW  Elec       q    Type
REMARK                         _______ _______ _______ _____ _____    ______ ____
ROOT
ATOM      1  C   UNL     1      45.466   7.581  11.593  0.00  0.00    +0.000 A 
ATOM      2  C   UNL     1      44.256   8.220  11.268  0.00  0.00    +0.000 A 
ATOM      3  C   UNL     1      44.113   9.606  11.271  0.00  0.00    +0.000 A 
ATOM      4  C   UNL     1      45.181  10.397  11.696  0.00  0.00    +0.000 A 
ATOM      5  C   UNL     1      46.387   9.787  12.120  0.00  0.00    +0.000 A 
ATOM      6  C   UNL     1      47.600  10.323  12.624  0.00  0.00    +0.000 A 
ATOM      7  C   UNL     1      48.452   9.277  12.868  0.00  0.00    +0.000 A 
ATOM      8  N   UNL     1      47.816   8.105  12.515  0.00  0.00    +0.000 N 
ATOM      9  C   UNL     1      46.528   8.391  12.063  0.00  0.00    +0.000 A 
ENDROOT
BRANCH   3  10
ATOM     10  C   UNL     1      42.810  10.140  10.771  0.00  0.00    +0.000 C 
ATOM     11  N   UNL     1      41.672   9.423  11.006  0.00  0.00    +0.000 N 
ATOM     12  O   UNL     1      42.736  11.211  10.185  0.00  0.00    +0.000 OA
ATOM     13  H   UNL     1      41.620   8.579  11.554  0.00  0.00    +0.000 HD
ATOM     14  H   UNL     1      40.803   9.855  10.715  0.00  0.00    +0.000 HD
ENDBRANCH   3  10
BRANCH   1  16
ATOM     15  C   UNL     1      44.385   5.489  11.503  0.00  0.00    +0.000 C 
ATOM     16  O   UNL     1      45.619   6.218  11.454  0.00  0.00    +0.000 OA
ENDBRANCH   1  16
BRANCH   8  17
ATOM     17  C   UNL     1      48.453   6.794  12.691  0.00  0.00    +0.000 C 
BRANCH  17  18
ATOM     18  C   UNL     1      48.103   6.177  14.027  0.00  0.00    +0.000 A 
ATOM     19  C   UNL     1      48.737   6.578  15.214  0.00  0.00    +0.000 A 
ATOM     20  C   UNL     1      48.547   5.856  16.399  0.00  0.00    +0.000 A 
ATOM     21  C   UNL     1      47.724   4.720  16.422  0.00  0.00    +0.000 A 
ATOM     22  C   UNL     1      46.998   4.403  15.267  0.00  0.00    +0.000 A 
ATOM     23  C   UNL     1      47.180   5.128  14.088  0.00  0.00    +0.000 A 
BRANCH  21  24
ATOM     24  C   UNL     1      47.797   3.759  17.585  0.00  0.00    +0.000 C 
BRANCH  24  25
ATOM     25  N   UNL     1      46.660   2.850  17.682  0.00  0.00    +0.000 NA
ATOM     26  H   UNL     1      46.726   2.162  16.935  0.00  0.00    +0.000 HD
ATOM     27  H   UNL     1      45.805   3.378  17.519  0.00  0.00    +0.000 HD
ENDBRANCH  24  25
ENDBRANCH  21  24
ENDBRANCH  17  18
ENDBRANCH   8  17
TORSDOF 6
ENDMDL
MODEL 8
REMARK VINA RESULT:    -5.639      3.203      8.118
REMARK INTER + INTRA:          -8.018
REMARK INTER:                  -7.341
REMARK INTRA:                  -0.677
REMARK UNBOUND:                -0.566
REMARK  Name = 
REMARK  7 active torsions:
REMARK  status: ('A' for Active; 'I' for Inactive)
REMARK    1  A    between atoms: C_1  and  O_2
REMARK    2  A    between atoms: O_2  and  C_3
REMARK    3  A    between atoms: C_5  and  C_6
REMARK    4  A    between atoms: N_13  and  C_14
REMARK    5  A    between atoms: C_14  and  C_15
REMARK    6  A    between atoms: C_18  and  C_19
REMARK    7  A    between atoms: C_19  and  N_20
REMARK                            x       y       z     vdW  Elec       q    Type
REMARK                         _______ _______ _______ _____ _____    ______ ____
ROOT
ATOM      1  C   UNL     1      47.308   5.057  14.137  0.00  0.00    +0.000 A 
ATOM      2  C   UNL     1      46.223   4.360  13.576  0.00  0.00    +0.000 A 
ATOM      3  C   UNL     1      45.651   4.716  12.356  0.00  0.00    +0.000 A 
ATOM      4  C   UNL     1      46.109   5.860  11.701  0.00  0.00    +0.000 A 
ATOM      5  C   UNL     1      47.138   6.642  12.280  0.00  0.00    +0.000 A 
ATOM      6  C   UNL     1      47.766   7.845  11.868  0.00  0.00    +0.000 A 
ATOM      7  C   UNL     1      48.717   8.164  12.802  0.00  0.00    +0.000 A 
ATOM      8  N   UNL     1      48.716   7.187  13.776  0.00  0.00    +0.000 N 
ATOM      9  C   UNL     1      47.735   6.239  13.485  0.00  0.00    +0.000 A 
ENDROOT
BRANCH   3  10
ATOM     10  C   UNL     1      44.597   3.799  11.825  0.00  0.00    +0.000 C 
ATOM     11  N   UNL     1      44.336   2.640  12.496  0.00  0.00    +0.000 N 
ATOM     12  O   UNL     1      43.949   4.075  10.825  0.00  0.00    +0.000 OA
ATOM     13  H   UNL     1      44.753   2.369  13.372  0.00  0.00    +0.000 HD
ATOM     14  H   UNL     1      43.566   2.083  12.144  0.00  0.00    +0.000 HD
ENDBRANCH   3  10
BRANCH   1  16
ATOM     15  C   UNL     1      47.046   4.081  16.266  0.00  0.00    +0.000 C 
ATOM     16  O   UNL     1      47.941   4.605  15.276  0.00  0.00    +0.000 OA
ENDBRANCH   1  16
BRANCH   8  17
ATOM     17  C   UNL     1      49.603   7.255  14.944  0.00  0.00    +0.000 C 
BRANCH  17  18
ATOM     18  C   UNL     1      48.898   7.843  16.147  0.00  0.00    +0.000 A 
ATOM     19  C   UNL     1      48.369   9.143  16.129  0.00  0.00    +0.000 A 
ATOM     20  C   UNL     1      47.907   9.738  17.311  0.00  0.00    +0.000 A 
ATOM     21  C   UNL     1      47.966   9.048  18.530  0.00  0.00    +0.000 A 
ATOM     22  C   UNL     1      48.377   7.709  18.517  0.00  0.00    +0.000 A 
ATOM     23  C   UNL     1      48.829   7.113  17.338  0.00  0.00    +0.000 A 
BRANCH  21  24
ATOM     24  C   UNL     1      47.801   9.799  19.830  0.00  0.00    +0.000 C 
BRANCH  24  25
ATOM     25  N   UNL     1      47.186   9.019  20.898  0.00  0.00    +0.000 NA
ATOM     26  H   UNL     1      47.314   9.512  21.780  0.00  0.00    +0.000 HD
ATOM     27  H   UNL     1      47.682   8.134  20.984  0.00  0.00    +0.000 HD
ENDBRANCH  24  25
ENDBRANCH  21  24
ENDBRANCH  17  18
ENDBRANCH   8  17
TORSDOF 6
ENDMDL
MODEL 9
REMARK VINA RESULT:    -5.001      3.580      5.377
REMARK INTER + INTRA:          -7.175
REMARK INTER:                  -6.465
REMARK INTRA:                  -0.710
REMARK UNBOUND:                -0.566
REMARK  Name = 
REMARK  7 active torsions:
REMARK  status: ('A' for Active; 'I' for Inactive)
REMARK    1  A    between atoms: C_1  and  O_2
REMARK    2  A    between atoms: O_2  and  C_3
REMARK    3  A    between atoms: C_5  and  C_6
REMARK    4  A    between atoms: N_13  and  C_14
REMARK    5  A    between atoms: C_14  and  C_15
REMARK    6  A    between atoms: C_18  and  C_19
REMARK    7  A    between atoms: C_19  and  N_20
REMARK                            x       y       z     vdW  Elec       q    Type
REMARK                         _______ _______ _______ _____ _____    ______ ____
ROOT
ATOM      1  C   UNL     1      49.519   7.499  14.952  0.00  0.00    +0.000 A 
ATOM      2  C   UNL     1      50.855   7.349  15.366  0.00  0.00    +0.000 A 
ATOM      3  C   UNL     1      51.928   7.867  14.644  0.00  0.00    +0.000 A 
ATOM      4  C   UNL     1      51.685   8.484  13.416  0.00  0.00    +0.000 A 
ATOM      5  C   UNL     1      50.361   8.573  12.920  0.00  0.00    +0.000 A 
ATOM      6  C   UNL     1      49.828   9.101  11.716  0.00  0.00    +0.000 A 
ATOM      7  C   UNL     1      48.468   8.939  11.752  0.00  0.00    +0.000 A 
ATOM      8  N   UNL     1      48.132   8.341  12.949  0.00  0.00    +0.000 N 
ATOM      9  C   UNL     1      49.289   8.089  13.686  0.00  0.00    +0.000 A 
ENDROOT
BRANCH   3  10
ATOM     10  C   UNL     1      53.276   7.747  15.279  0.00  0.00    +0.000 C 
ATOM     11  N   UNL     1      54.109   6.746  14.870  0.00  0.00    +0.000 N 
ATOM     12  O   UNL     1      53.657   8.536  16.133  0.00  0.00    +0.000 OA
ATOM     13  H   UNL     1      53.920   6.105  14.115  0.00  0.00    +0.000 HD
ATOM     14  H   UNL     1      55.039   6.745  15.273  0.00  0.00    +0.000 HD
ENDBRANCH   3  10
BRANCH   1  16
ATOM     15  C   UNL     1      48.661   5.806  16.349  0.00  0.00    +0.000 C 
ATOM     16  O   UNL     1      48.470   7.095  15.751  0.00  0.00    +0.000 OA
ENDBRANCH   1  16
BRANCH   8  17
ATOM     17  C   UNL     1      46.743   7.997  13.281  0.00  0.00    +0.000 C 
BRANCH  17  18
ATOM     18  C   UNL     1      46.321   6.696  12.635  0.00  0.00    +0.000 A 
ATOM     19  C   UNL     1      45.778   6.655  11.342  0.00  0.00    +0.000 A 
ATOM     20  C   UNL     1      45.208   5.475  10.847  0.00  0.00    +0.000 A 
ATOM     21  C   UNL     1      45.166   4.315  11.634  0.00  0.00    +0.000 A 
ATOM     22  C   UNL     1      45.821   4.329  12.873  0.00  0.00    +0.000 A 
ATOM     23  C   UNL     1      46.398   5.502  13.362  0.00  0.00    +0.000 A 
BRANCH  21  24
ATOM     24  C   UNL     1      44.258   3.173  11.246  0.00  0.00    +0.000 C 
BRANCH  24  25
ATOM     25  N   UNL     1      42.839   3.441  11.448  0.00  0.00    +0.000 NA
ATOM     26  H   UNL     1      42.635   4.386  11.125  0.00  0.00    +0.000 HD
ATOM     27  H   UNL     1      42.642   3.425  12.447  0.00  0.00    +0.000 HD
ENDBRANCH  24  25
ENDBRANCH  21  24
ENDBRANCH  17  18
ENDBRANCH   8  17
TORSDOF 6
ENDMDL
