MODEL 1
REMARK VINA RESULT:    -7.924      0.000      0.000
REMARK INTER + INTRA:          -8.893
REMARK INTER:                  -8.850
REMARK INTRA:                  -0.042
REMARK UNBOUND:                -0.042
REMARK  Name = 
REMARK  4 active torsions:
REMARK  status: ('A' for Active; 'I' for Inactive)
REMARK    1  A    between atoms: C_1  and  C_2
REMARK    2  A    between atoms: C_4  and  C_5
REMARK    3  A    between atoms: N_8  and  C_9
REMARK    4  A    between atoms: C_9  and  C_10
REMARK                            x       y       z     vdW  Elec       q    Type
REMARK                         _______ _______ _______ _____ _____    ______ ____
ROOT
ATOM      1  C   UNL     1      44.650   3.942  10.686  0.00  0.00    +0.000 C 
ATOM      2  C   UNL     1      43.195   3.580  10.966  0.00  0.00    +0.000 C 
ATOM      3  C   UNL     1      44.285   2.899  11.723  0.00  0.00    +0.000 C 
ENDROOT
BRANCH   1  11
ATOM      4  C   UNL     1      47.202   4.471  15.236  0.00  0.00    +0.000 C 
ATOM      5  C   UNL     1      47.109   5.258  13.962  0.00  0.00    +0.000 A 
ATOM      6  C   UNL     1      47.921   6.349  13.743  0.00  0.00    +0.000 A 
ATOM      7  C   UNL     1      47.728   7.031  12.561  0.00  0.00    +0.000 A 
ATOM      8  C   UNL     1      48.555   8.225  12.205  0.00  0.00    +0.000 C 
ATOM      9  N   UNL     1      46.780   6.669  11.671  0.00  0.00    +0.000 NA
ATOM     10  C   UNL     1      46.032   5.593  11.960  0.00  0.00    +0.000 A 
ATOM     11  N   UNL     1      45.017   5.319  11.036  0.00  0.00    +0.000 N 
ATOM     12  N   UNL     1      46.176   4.858  13.072  0.00  0.00    +0.000 NA
ATOM     13  H   UNL     1      45.216   5.948  10.264  0.00  0.00    +0.000 HD
ENDBRANCH   1  11
BRANCH   1  14
ATOM     14  C   UNL     1      45.284   3.489   9.374  0.00  0.00    +0.000 A 
ATOM     15  C   UNL     1      45.752   4.419   8.428  0.00  0.00    +0.000 A 
ATOM     16  C   UNL     1      46.476   4.014   7.305  0.00  0.00    +0.000 A 
ATOM     17  C   UNL     1      46.752   2.662   7.099  0.00  0.00    +0.000 A 
ATOM     18 CL   UNL     1      47.725   2.238   5.737  0.00  0.00    +0.000 Cl
ATOM     19  C   UNL     1      46.264   1.713   8.003  0.00  0.00    +0.000 A 
ATOM     20 CL   UNL     1      46.566   0.022   7.818  0.00  0.00    +0.000 Cl
ATOM     21  C   UNL     1      45.532   2.127   9.121  0.00  0.00    +0.000 A 
ENDBRANCH   1  14
TORSDOF 2
ENDMDL
MODEL 2
REMARK VINA RESULT:    -6.586      1.807      2.155
REMARK INTER + INTRA:          -7.399
REMARK INTER:                  -7.739
REMARK INTRA:                   0.340
REMARK UNBOUND:                -0.042
REMARK  Name = 
REMARK  4 active torsions:
REMARK  status: ('A' for Active; 'I' for Inactive)
REMARK    1  A    between atoms: C_1  and  C_2
REMARK    2  A    between atoms: C_4  and  C_5
REMARK    3  A    between atoms: N_8  and  C_9
REMARK    4  A    between atoms: C_9  and  C_10
REMARK                            x       y       z     vdW  Elec       q    Type
REMARK                         _______ _______ _______ _____ _____    ______ ____
ROOT
ATOM      1  C   UNL     1      44.574   4.045  11.643  0.00  0.00    +0.000 C 
ATOM      2  C   UNL     1      43.890   2.927  12.423  0.00  0.00    +0.000 C 
ATOM      3  C   UNL     1      45.290   3.317  12.763  0.00  0.00    +0.000 C 
ENDROOT
BRANCH   1  11
ATOM      4  C   UNL     1      47.664   7.627  13.902  0.00  0.00    +0.000 C 
ATOM      5  C   UNL     1      46.484   7.662  12.977  0.00  0.00    +0.000 A 
ATOM      6  C   UNL     1      46.065   8.845  12.408  0.00  0.00    +0.000 A 
ATOM      7  C   UNL     1      44.945   8.777  11.608  0.00  0.00    +0.000 A 
ATOM      8  C   UNL     1      44.399   9.991  10.925  0.00  0.00    +0.000 C 
ATOM      9  N   UNL     1      44.275   7.623  11.407  0.00  0.00    +0.000 NA
ATOM     10  C   UNL     1      44.750   6.516  11.997  0.00  0.00    +0.000 A 
ATOM     11  N   UNL     1      43.967   5.370  11.814  0.00  0.00    +0.000 N 
ATOM     12  N   UNL     1      45.849   6.490  12.765  0.00  0.00    +0.000 NA
ATOM     13  H   UNL     1      43.285   5.652  11.115  0.00  0.00    +0.000 HD
ENDBRANCH   1  11
BRANCH   1  14
ATOM     14  C   UNL     1      45.001   3.785  10.200  0.00  0.00    +0.000 A 
ATOM     15  C   UNL     1      45.298   4.843   9.322  0.00  0.00    +0.000 A 
ATOM     16  C   UNL     1      45.843   4.610   8.059  0.00  0.00    +0.000 A 
ATOM     17  C   UNL     1      46.109   3.306   7.640  0.00  0.00    +0.000 A 
ATOM     18 CL   UNL     1      46.862   3.093   6.101  0.00  0.00    +0.000 Cl
ATOM     19  C   UNL     1      45.786   2.234   8.477  0.00  0.00    +0.000 A 
ATOM     20 CL   UNL     1      46.087   0.591   8.030  0.00  0.00    +0.000 Cl
ATOM     21  C   UNL     1      45.232   2.476   9.739  0.00  0.00    +0.000 A 
ENDBRANCH   1  14
TORSDOF 2
ENDMDL
MODEL 3
REMARK VINA RESULT:    -6.341      1.452      2.323
REMARK INTER + INTRA:          -7.125
REMARK INTER:                  -6.837
REMARK INTRA:                  -0.288
REMARK UNBOUND:                -0.042
REMARK  Name = 
REMARK  4 active torsions:
REMARK  status: ('A' for Active; 'I' for Inactive)
REMARK    1  A    between atoms: C_1  and  C_2
REMARK    2  A    between atoms: C_4  and  C_5
REMARK    3  A    between atoms: N_8  and  C_9
REMARK    4  A    between atoms: C_9  and  C_10
REMARK                            x       y       z     vdW  Elec       q    Type
REMARK                         _______ _______ _______ _____ _____    ______ ____
ROOT
ATOM      1  C   UNL     1      43.741   5.547  11.818  0.00  0.00    +0.000 C 
ATOM      2  C   UNL     1      42.275   5.903  11.594  0.00  0.00    +0.000 C 
ATOM      3  C   UNL     1      42.671   5.126  12.804  0.00  0.00    +0.000 C 
ENDROOT
BRANCH   1  11
ATOM      4  C   UNL     1      47.534   4.781  15.356  0.00  0.00    +0.000 C 
ATOM      5  C   UNL     1      47.337   5.687  14.176  0.00  0.00    +0.000 A 
ATOM      6  C   UNL     1      48.360   6.489  13.721  0.00  0.00    +0.000 A 
ATOM      7  C   UNL     1      48.065   7.317  12.660  0.00  0.00    +0.000 A 
ATOM      8  C   UNL     1      49.095   8.227  12.069  0.00  0.00    +0.000 C 
ATOM      9  N   UNL     1      46.834   7.361  12.106  0.00  0.00    +0.000 NA
ATOM     10  C   UNL     1      45.894   6.547  12.608  0.00  0.00    +0.000 A 
ATOM     11  N   UNL     1      44.623   6.698  12.043  0.00  0.00    +0.000 N 
ATOM     12  N   UNL     1      46.108   5.691  13.618  0.00  0.00    +0.000 NA
ATOM     13  H   UNL     1      44.782   7.312  11.248  0.00  0.00    +0.000 HD
ENDBRANCH   1  11
BRANCH   1  14
ATOM     14  C   UNL     1      44.387   4.486  10.931  0.00  0.00    +0.000 A 
ATOM     15  C   UNL     1      44.105   3.118  11.103  0.00  0.00    +0.000 A 
ATOM     16  C   UNL     1      44.563   2.161  10.195  0.00  0.00    +0.000 A 
ATOM     17  C   UNL     1      45.316   2.550   9.087  0.00  0.00    +0.000 A 
ATOM     18 CL   UNL     1      45.778   1.326   7.959  0.00  0.00    +0.000 Cl
ATOM     19  C   UNL     1      45.644   3.898   8.914  0.00  0.00    +0.000 A 
ATOM     20 CL   UNL     1      46.571   4.457   7.567  0.00  0.00    +0.000 Cl
ATOM     21  C   UNL     1      45.189   4.850   9.834  0.00  0.00    +0.000 A 
ENDBRANCH   1  14
TORSDOF 2
ENDMDL
MODEL 4
REMARK VINA RESULT:    -5.801      2.518      3.787
REMARK INTER + INTRA:          -6.522
REMARK INTER:                  -6.700
REMARK INTRA:                   0.178
REMARK UNBOUND:                -0.042
REMARK  Name = 
REMARK  4 active torsions:
REMARK  status: ('A' for Active; 'I' for Inactive)
REMARK    1  A    between atoms: C_1  and  C_2
REMARK    2  A    between atoms: C_4  and  C_5
REMARK    3  A    between atoms: N_8  and  C_9
REMARK    4  A    between atoms: C_9  and  C_10
REMARK                            x       y       z     vdW  Elec       q    Type
REMARK                         _______ _______ _______ _____ _____    ______ ____
ROOT
ATOM      1  C   UNL     1      45.771   5.769  12.738  0.00  0.00    +0.000 C 
ATOM      2  C   UNL     1      45.783   4.795  13.913  0.00  0.00    +0.000 C 
ATOM      3  C   UNL     1      47.059   5.418  13.456  0.00  0.00    +0.000 C 
ENDROOT
BRANCH   1  11
ATOM      4  C   UNL     1      48.631  10.146  12.350  0.00  0.00    +0.000 C 
ATOM      5  C   UNL     1      47.177   9.801  12.212  0.00  0.00    +0.000 A 
ATOM      6  C   UNL     1      46.266  10.734  11.769  0.00  0.00    +0.000 A 
ATOM      7  C   UNL     1      44.950  10.331  11.719  0.00  0.00    +0.000 A 
ATOM      8  C   UNL     1      43.869  11.251  11.244  0.00  0.00    +0.000 C 
ATOM      9  N   UNL     1      44.562   9.097  12.105  0.00  0.00    +0.000 NA
ATOM     10  C   UNL     1      45.512   8.248  12.524  0.00  0.00    +0.000 A 
ATOM     11  N   UNL     1      45.036   7.015  12.984  0.00  0.00    +0.000 N 
ATOM     12  N   UNL     1      46.817   8.550  12.574  0.00  0.00    +0.000 NA
ATOM     13  H   UNL     1      44.053   7.023  12.725  0.00  0.00    +0.000 HD
ENDBRANCH   1  11
BRANCH   1  14
ATOM     14  C   UNL     1      45.538   5.225  11.331  0.00  0.00    +0.000 A 
ATOM     15  C   UNL     1      46.041   5.890  10.197  0.00  0.00    +0.000 A 
ATOM     16  C   UNL     1      45.971   5.315   8.927  0.00  0.00    +0.000 A 
ATOM     17  C   UNL     1      45.396   4.055   8.757  0.00  0.00    +0.000 A 
ATOM     18 CL   UNL     1      45.420   3.367   7.174  0.00  0.00    +0.000 Cl
ATOM     19  C   UNL     1      44.853   3.391   9.861  0.00  0.00    +0.000 A 
ATOM     20 CL   UNL     1      44.126   1.829   9.732  0.00  0.00    +0.000 Cl
ATOM     21  C   UNL     1      44.919   3.978  11.130  0.00  0.00    +0.000 A 
ENDBRANCH   1  14
TORSDOF 2
ENDMDL
MODEL 5
REMARK VINA RESULT:    -5.780      3.882      5.681
REMARK INTER + INTRA:          -6.498
REMARK INTER:                  -6.133
REMARK INTRA:                  -0.366
REMARK UNBOUND:                -0.042
REMARK  Name = 
REMARK  4 active torsions:
REMARK  status: ('A' for Active; 'I' for Inactive)
REMARK    1  A    between atoms: C_1  and  C_2
REMARK    2  A    between atoms: C_4  and  C_5
REMARK    3  A    between atoms: N_8  and  C_9
REMARK    4  A    between atoms: C_9  and  C_10
REMARK                            x       y       z     vdW  Elec       q    Type
REMARK                         _______ _______ _______ _____ _____    ______ ____
ROOT
ATOM      1  C   UNL     1      48.459   7.476  12.626  0.00  0.00    +0.000 C 
ATOM      2  C   UNL     1      49.279   7.798  11.381  0.00  0.00    +0.000 C 
ATOM      3  C   UNL     1      48.753   8.908  12.228  0.00  0.00    +0.000 C 
ENDROOT
BRANCH   1  11
ATOM      4  C   UNL     1      48.302   9.761  17.342  0.00  0.00    +0.000 C 
ATOM      5  C   UNL     1      48.519   8.365  16.835  0.00  0.00    +0.000 A 
ATOM      6  C   UNL     1      48.597   7.300  17.704  0.00  0.00    +0.000 A 
ATOM      7  C   UNL     1      48.842   6.066  17.142  0.00  0.00    +0.000 A 
ATOM      8  C   UNL     1      48.938   4.831  17.981  0.00  0.00    +0.000 C 
ATOM      9  N   UNL     1      49.019   5.906  15.814  0.00  0.00    +0.000 NA
ATOM     10  C   UNL     1      48.926   6.995  15.036  0.00  0.00    +0.000 A 
ATOM     11  N   UNL     1      49.198   6.774  13.681  0.00  0.00    +0.000 N 
ATOM     12  N   UNL     1      48.662   8.224  15.499  0.00  0.00    +0.000 NA
ATOM     13  H   UNL     1      49.249   5.761  13.606  0.00  0.00    +0.000 HD
ENDBRANCH   1  11
BRANCH   1  14
ATOM     14  C   UNL     1      47.040   6.938  12.456  0.00  0.00    +0.000 A 
ATOM     15  C   UNL     1      45.983   7.777  12.058  0.00  0.00    +0.000 A 
ATOM     16  C   UNL     1      44.724   7.261  11.744  0.00  0.00    +0.000 A 
ATOM     17  C   UNL     1      44.490   5.888  11.820  0.00  0.00    +0.000 A 
ATOM     18 CL   UNL     1      42.936   5.309  11.336  0.00  0.00    +0.000 Cl
ATOM     19  C   UNL     1      45.511   5.037  12.252  0.00  0.00    +0.000 A 
ATOM     20 CL   UNL     1      45.299   3.326  12.369  0.00  0.00    +0.000 Cl
ATOM     21  C   UNL     1      46.768   5.563  12.572  0.00  0.00    +0.000 A 
ENDBRANCH   1  14
TORSDOF 2
ENDMDL
MODEL 6
REMARK VINA RESULT:    -5.604      4.875      8.178
REMARK INTER + INTRA:          -6.302
REMARK INTER:                  -6.302
REMARK INTRA:                   0.000
REMARK UNBOUND:                -0.042
REMARK  Name = 
REMARK  4 active torsions:
REMARK  status: ('A' for Active; 'I' for Inactive)
REMARK    1  A    between atoms: C_1  and  C_2
REMARK    2  A    between atoms: C_4  and  C_5
REMARK    3  A    between atoms: N_8  and  C_9
REMARK    4  A    between atoms: C_9  and  C_10
REMARK                            x       y       z     vdW  Elec       q    Type
REMARK                         _______ _______ _______ _____ _____    ______ ____
ROOT
ATOM      1  C   UNL     1      48.625   5.387  17.216  0.00  0.00    +0.000 C 
ATOM      2  C   UNL     1      48.425   6.367  18.368  0.00  0.00    +0.000 C 
ATOM      3  C   UNL     1      49.193   6.790  17.160  0.00  0.00    +0.000 C 
ENDROOT
BRANCH   1  11
ATOM      4  C   UNL     1      47.927   7.608  12.519  0.00  0.00    +0.000 C 
ATOM      5  C   UNL     1      47.454   6.352  13.190  0.00  0.00    +0.000 A 
ATOM      6  C   UNL     1      46.751   5.397  12.490  0.00  0.00    +0.000 A 
ATOM      7  C   UNL     1      46.325   4.301  13.208  0.00  0.00    +0.000 A 
ATOM      8  C   UNL     1      45.562   3.191  12.558  0.00  0.00    +0.000 C 
ATOM      9  N   UNL     1      46.559   4.175  14.532  0.00  0.00    +0.000 NA
ATOM     10  C   UNL     1      47.251   5.151  15.138  0.00  0.00    +0.000 A 
ATOM     11  N   UNL     1      47.391   4.998  16.522  0.00  0.00    +0.000 N 
ATOM     12  N   UNL     1      47.728   6.233  14.507  0.00  0.00    +0.000 NA
ATOM     13  H   UNL     1      47.045   4.059  16.699  0.00  0.00    +0.000 HD
ENDBRANCH   1  11
BRANCH   1  14
ATOM     14  C   UNL     1      49.578   4.210  17.406  0.00  0.00    +0.000 A 
ATOM     15  C   UNL     1      49.172   2.889  17.142  0.00  0.00    +0.000 A 
ATOM     16  C   UNL     1      50.083   1.831  17.157  0.00  0.00    +0.000 A 
ATOM     17  C   UNL     1      51.429   2.069  17.435  0.00  0.00    +0.000 A 
ATOM     18 CL   UNL     1      52.516   0.729  17.352  0.00  0.00    +0.000 Cl
ATOM     19  C   UNL     1      51.852   3.366  17.739  0.00  0.00    +0.000 A 
ATOM     20 CL   UNL     1      53.502   3.740  18.091  0.00  0.00    +0.000 Cl
ATOM     21  C   UNL     1      50.931   4.420  17.731  0.00  0.00    +0.000 A 
ENDBRANCH   1  14
TORSDOF 2
ENDMDL
MODEL 7
REMARK VINA RESULT:    -5.494      4.676      6.231
REMARK INTER + INTRA:          -6.178
REMARK INTER:                  -6.028
REMARK INTRA:                  -0.150
REMARK UNBOUND:                -0.042
REMARK  Name = 
REMARK  4 active torsions:
REMARK  status: ('A' for Active; 'I' for Inactive)
REMARK    1  A    between atoms: C_1  and  C_2
REMARK    2  A    between atoms: C_4  and  C_5
REMARK    3  A    between atoms: N_8  and  C_9
REMARK    4  A    between atoms: C_9  and  C_10
REMARK                            x       y       z     vdW  Elec       q    Type
REMARK                         _______ _______ _______ _____ _____    ______ ____
ROOT
ATOM      1  C   UNL     1      46.589   4.706  13.983  0.00  0.00    +0.000 C 
ATOM      2  C   UNL     1      45.504   4.035  13.145  0.00  0.00    +0.000 C 
ATOM      3  C   UNL     1      46.876   3.451  13.184  0.00  0.00    +0.000 C 
ENDROOT
BRANCH   1  11
ATOM      4  C   UNL     1      50.043   1.942  16.796  0.00  0.00    +0.000 C 
ATOM      5  C   UNL     1      49.115   3.089  17.067  0.00  0.00    +0.000 A 
ATOM      6  C   UNL     1      49.147   3.756  18.272  0.00  0.00    +0.000 A 
ATOM      7  C   UNL     1      48.225   4.766  18.438  0.00  0.00    +0.000 A 
ATOM      8  C   UNL     1      48.168   5.571  19.698  0.00  0.00    +0.000 C 
ATOM      9  N   UNL     1      47.319   5.074  17.486  0.00  0.00    +0.000 NA
ATOM     10  C   UNL     1      47.355   4.376  16.342  0.00  0.00    +0.000 A 
ATOM     11  N   UNL     1      46.341   4.690  15.430  0.00  0.00    +0.000 N 
ATOM     12  N   UNL     1      48.239   3.400  16.088  0.00  0.00    +0.000 NA
ATOM     13  H   UNL     1      45.907   5.519  15.826  0.00  0.00    +0.000 HD
ENDBRANCH   1  11
BRANCH   1  14
ATOM     14  C   UNL     1      47.172   6.034  13.509  0.00  0.00    +0.000 A 
ATOM     15  C   UNL     1      48.547   6.176  13.244  0.00  0.00    +0.000 A 
ATOM     16  C   UNL     1      49.059   7.335  12.657  0.00  0.00    +0.000 A 
ATOM     17  C   UNL     1      48.205   8.384  12.316  0.00  0.00    +0.000 A 
ATOM     18 CL   UNL     1      48.891   9.752  11.516  0.00  0.00    +0.000 Cl
ATOM     19  C   UNL     1      46.841   8.285  12.605  0.00  0.00    +0.000 A 
ATOM     20 CL   UNL     1      45.720   9.540  12.212  0.00  0.00    +0.000 Cl
ATOM     21  C   UNL     1      46.337   7.123  13.202  0.00  0.00    +0.000 A 
ENDBRANCH   1  14
TORSDOF 2
ENDMDL
MODEL 8
REMARK VINA RESULT:    -5.372      3.832      7.229
REMARK INTER + INTRA:          -6.043
REMARK INTER:                  -6.497
REMARK INTRA:                   0.454
REMARK UNBOUND:                -0.042
REMARK  Name = 
REMARK  4 active torsions:
REMARK  status: ('A' for Active; 'I' for Inactive)
REMARK    1  A    between atoms: C_1  and  C_2
REMARK    2  A    between atoms: C_4  and  C_5
REMARK    3  A    between atoms: N_8  and  C_9
REMARK    4  A    between atoms: C_9  and  C_10
REMARK                            x       y       z     vdW  Elec       q    Type
REMARK                         _______ _______ _______ _____ _____    ______ ____
ROOT
ATOM      1  C   UNL     1      47.222   6.524  13.658  0.00  0.00    +0.000 C 
ATOM      2  C   UNL     1      47.356   8.016  13.372  0.00  0.00    +0.000 C 
ATOM      3  C   UNL     1      48.048   7.030  12.492  0.00  0.00    +0.000 C 
ENDROOT
BRANCH   1  11
ATOM      4  C   UNL     1      45.929   5.166   8.762  0.00  0.00    +0.000 C 
ATOM      5  C   UNL     1      45.479   4.769  10.137  0.00  0.00    +0.000 A 
ATOM      6  C   UNL     1      44.598   3.727  10.321  0.00  0.00    +0.000 A 
ATOM      7  C   UNL     1      44.213   3.470  11.619  0.00  0.00    +0.000 A 
ATOM      8  C   UNL     1      43.270   2.357  11.948  0.00  0.00    +0.000 C 
ATOM      9  N   UNL     1      44.653   4.213  12.657  0.00  0.00    +0.000 NA
ATOM     10  C   UNL     1      45.510   5.210  12.392  0.00  0.00    +0.000 A 
ATOM     11  N   UNL     1      45.864   5.990  13.499  0.00  0.00    +0.000 N 
ATOM     12  N   UNL     1      45.957   5.506  11.164  0.00  0.00    +0.000 NA
ATOM     13  H   UNL     1      45.481   5.478  14.289  0.00  0.00    +0.000 HD
ENDBRANCH   1  11
BRANCH   1  14
ATOM     14  C   UNL     1      47.938   5.938  14.872  0.00  0.00    +0.000 A 
ATOM     15  C   UNL     1      49.019   6.605  15.476  0.00  0.00    +0.000 A 
ATOM     16  C   UNL     1      49.570   6.158  16.678  0.00  0.00    +0.000 A 
ATOM     17  C   UNL     1      49.050   5.030  17.311  0.00  0.00    +0.000 A 
ATOM     18 CL   UNL     1      49.721   4.582  18.838  0.00  0.00    +0.000 Cl
ATOM     19  C   UNL     1      48.001   4.325  16.713  0.00  0.00    +0.000 A 
ATOM     20 CL   UNL     1      47.302   2.920  17.436  0.00  0.00    +0.000 Cl
ATOM     21  C   UNL     1      47.460   4.775  15.502  0.00  0.00    +0.000 A 
ENDBRANCH   1  14
TORSDOF 2
ENDMDL
MODEL 9
REMARK VINA RESULT:    -5.037      4.760      7.030
REMARK INTER + INTRA:          -5.669
REMARK INTER:                  -5.310
REMARK INTRA:                  -0.358
REMARK UNBOUND:                -0.042
REMARK  Name = 
REMARK  4 active torsions:
REMARK  status: ('A' for Active; 'I' for Inactive)
REMARK    1  A    between atoms: C_1  and  C_2
REMARK    2  A    between atoms: C_4  and  C_5
REMARK    3  A    between atoms: N_8  and  C_9
REMARK    4  A    between atoms: C_9  and  C_10
REMARK                            x       y       z     vdW  Elec       q    Type
REMARK                         _______ _______ _______ _____ _____    ______ ____
ROOT
ATOM      1  C   UNL     1      49.511   8.153  14.403  0.00  0.00    +0.000 C 
ATOM      2  C   UNL     1      50.643   9.007  13.841  0.00  0.00    +0.000 C 
ATOM      3  C   UNL     1      49.720   9.581  14.864  0.00  0.00    +0.000 C 
ENDROOT
BRANCH   1  11
ATOM      4  C   UNL     1      47.560   7.879  19.262  0.00  0.00    +0.000 C 
ATOM      5  C   UNL     1      48.099   6.893  18.267  0.00  0.00    +0.000 A 
ATOM      6  C   UNL     1      48.023   5.538  18.501  0.00  0.00    +0.000 A 
ATOM      7  C   UNL     1      48.586   4.719  17.547  0.00  0.00    +0.000 A 
ATOM      8  C   UNL     1      48.558   3.229  17.682  0.00  0.00    +0.000 C 
ATOM      9  N   UNL     1      49.201   5.211  16.451  0.00  0.00    +0.000 NA
ATOM     10  C   UNL     1      49.231   6.544  16.298  0.00  0.00    +0.000 A 
ATOM     11  N   UNL     1      49.951   6.991  15.185  0.00  0.00    +0.000 N 
ATOM     12  N   UNL     1      48.681   7.408  17.163  0.00  0.00    +0.000 NA
ATOM     13  H   UNL     1      50.148   6.141  14.665  0.00  0.00    +0.000 HD
ENDBRANCH   1  11
BRANCH   1  14
ATOM     14  C   UNL     1      48.316   7.832  13.510  0.00  0.00    +0.000 A 
ATOM     15  C   UNL     1      48.132   6.547  12.967  0.00  0.00    +0.000 A 
ATOM     16  C   UNL     1      46.962   6.204  12.287  0.00  0.00    +0.000 A 
ATOM     17  C   UNL     1      45.940   7.142  12.133  0.00  0.00    +0.000 A 
ATOM     18 CL   UNL     1      44.486   6.627  11.357  0.00  0.00    +0.000 Cl
ATOM     19  C   UNL     1      46.114   8.438  12.628  0.00  0.00    +0.000 A 
ATOM     20 CL   UNL     1      44.895   9.654  12.478  0.00  0.00    +0.000 Cl
ATOM     21  C   UNL     1      47.294   8.776  13.301  0.00  0.00    +0.000 A 
ENDBRANCH   1  14
TORSDOF 2
ENDMDL
