MODEL 1
REMARK VINA RESULT:    -8.679      0.000      0.000
REMARK INTER + INTRA:         -13.123
REMARK INTER:                 -12.737
REMARK INTRA:                  -0.386
REMARK UNBOUND:                -0.386
REMARK  Name = 
REMARK  10 active torsions:
REMARK  status: ('A' for Active; 'I' for Inactive)
REMARK    1  A    between atoms: C_1  and  C_2
REMARK    2  A    between atoms: C_2  and  O_3
REMARK    3  A    between atoms: C_2  and  C_20
REMARK    4  A    between atoms: O_3  and  C_4
REMARK    5  A    between atoms: C_4  and  C_5
REMARK    6  A    between atoms: C_8  and  C_9
REMARK    7  A    between atoms: C_9  and  N_10
REMARK    8  A    between atoms: N_10  and  C_11
REMARK    9  A    between atoms: C_11  and  C_12
REMARK   10  A    between atoms: C_11  and  C_13
REMARK                            x       y       z     vdW  Elec       q    Type
REMARK                         _______ _______ _______ _____ _____    ______ ____
ROOT
ATOM      1  C   UNL     1      47.042   5.505  13.599  0.00  0.00    +0.000 A 
ATOM      2  C   UNL     1      46.167   4.409  13.628  0.00  0.00    +0.000 A 
ATOM      3  C   UNL     1      45.257   4.201  12.591  0.00  0.00    +0.000 A 
ATOM      4  C   UNL     1      45.210   5.085  11.505  0.00  0.00    +0.000 A 
ATOM      5  C   UNL     1      46.084   6.179  11.477  0.00  0.00    +0.000 A 
ATOM      6  C   UNL     1      46.993   6.387  12.513  0.00  0.00    +0.000 A 
ENDROOT
BRANCH   1   7
ATOM      7  C   UNL     1      47.949   5.786  14.767  0.00  0.00    +0.000 C 
BRANCH   7   8
ATOM      8  O   UNL     1      48.234   4.581  15.469  0.00  0.00    +0.000 OA
BRANCH   8  10
ATOM      9  C   UNL     1      47.062   3.551  17.346  0.00  0.00    +0.000 C 
ATOM     10  C   UNL     1      48.019   4.660  16.890  0.00  0.00    +0.000 C 
BRANCH  10  11
ATOM     11  C   UNL     1      49.350   4.509  17.606  0.00  0.00    +0.000 A 
ATOM     12  C   UNL     1      49.887   5.486  18.430  0.00  0.00    +0.000 A 
ATOM     13  S   UNL     1      51.440   5.099  19.022  0.00  0.00    +0.000 S 
ATOM     14  C   UNL     1      51.434   3.596  18.221  0.00  0.00    +0.000 A 
ATOM     15  N   UNL     1      52.503   2.758  18.301  0.00  0.00    +0.000 NA
ATOM     16  C   UNL     1      52.351   1.648  17.655  0.00  0.00    +0.000 A 
ATOM     17  N   UNL     1      51.231   1.296  16.946  0.00  0.00    +0.000 N 
ATOM     18  C   UNL     1      50.126   2.118  16.836  0.00  0.00    +0.000 A 
ATOM     19  O   UNL     1      49.131   1.774  16.200  0.00  0.00    +0.000 OA
ATOM     20  C   UNL     1      50.255   3.387  17.528  0.00  0.00    +0.000 A 
ATOM     21  H   UNL     1      51.173   0.403  16.482  0.00  0.00    +0.000 HD
ENDBRANCH  10  11
ENDBRANCH   8  10
ENDBRANCH   7   8
ENDBRANCH   1   7
BRANCH   4  22
ATOM     22  C   UNL     1      44.271   4.834  10.354  0.00  0.00    +0.000 C 
BRANCH  22  23
ATOM     23  N   UNL     1      44.982   4.707   9.079  0.00  0.00    +0.000 NA
ATOM     24  H   UNL     1      45.985   4.792   9.284  0.00  0.00    +0.000 HD
BRANCH  23  25
ATOM     25  C   UNL     1      44.810   3.379   8.450  0.00  0.00    +0.000 C 
ATOM     26  C   UNL     1      44.359   2.327   9.466  0.00  0.00    +0.000 C 
BRANCH  25  27
ATOM     27  C   UNL     1      46.056   3.006   7.669  0.00  0.00    +0.000 A 
ATOM     28  C   UNL     1      46.719   1.754   7.598  0.00  0.00    +0.000 A 
ATOM     29  C   UNL     1      47.849   1.988   6.855  0.00  0.00    +0.000 A 
ATOM     30  N   UNL     1      47.807   3.304   6.511  0.00  0.00    +0.000 N 
ATOM     31  N   UNL     1      46.730   3.949   6.988  0.00  0.00    +0.000 NA
ATOM     32  H   UNL     1      48.482   3.835   5.970  0.00  0.00    +0.000 HD
ENDBRANCH  25  27
ENDBRANCH  23  25
ENDBRANCH  22  23
ENDBRANCH   4  22
TORSDOF 8
ENDMDL
MODEL 2
REMARK VINA RESULT:    -8.400      2.194      2.894
REMARK INTER + INTRA:         -12.714
REMARK INTER:                 -11.286
REMARK INTRA:                  -1.428
REMARK UNBOUND:                -0.386
REMARK  Name = 
REMARK  10 active torsions:
REMARK  status: ('A' for Active; 'I' for Inactive)
REMARK    1  A    between atoms: C_1  and  C_2
REMARK    2  A    between atoms: C_2  and  O_3
REMARK    3  A    between atoms: C_2  and  C_20
REMARK    4  A    between atoms: O_3  and  C_4
REMARK    5  A    between atoms: C_4  and  C_5
REMARK    6  A    between atoms: C_8  and  C_9
REMARK    7  A    between atoms: C_9  and  N_10
REMARK    8  A    between atoms: N_10  and  C_11
REMARK    9  A    between atoms: C_11  and  C_12
REMARK   10  A    between atoms: C_11  and  C_13
REMARK                            x       y       z     vdW  Elec       q    Type
REMARK                         _______ _______ _______ _____ _____    ______ ____
ROOT
ATOM      1  C   UNL     1      46.490   7.546  12.397  0.00  0.00    +0.000 A 
ATOM      2  C   UNL     1      45.191   7.305  12.867  0.00  0.00    +0.000 A 
ATOM      3  C   UNL     1      44.360   6.393  12.215  0.00  0.00    +0.000 A 
ATOM      4  C   UNL     1      44.815   5.708  11.082  0.00  0.00    +0.000 A 
ATOM      5  C   UNL     1      46.112   5.949  10.612  0.00  0.00    +0.000 A 
ATOM      6  C   UNL     1      46.944   6.860  11.264  0.00  0.00    +0.000 A 
ENDROOT
BRANCH   1   7
ATOM      7  C   UNL     1      47.348   8.605  13.038  0.00  0.00    +0.000 C 
BRANCH   7   8
ATOM      8  O   UNL     1      47.747   8.192  14.341  0.00  0.00    +0.000 OA
BRANCH   8  10
ATOM      9  C   UNL     1      50.107   7.734  13.919  0.00  0.00    +0.000 C 
ATOM     10  C   UNL     1      48.750   7.161  14.351  0.00  0.00    +0.000 C 
BRANCH  10  11
ATOM     11  C   UNL     1      48.865   6.590  15.755  0.00  0.00    +0.000 A 
ATOM     12  C   UNL     1      49.635   7.168  16.752  0.00  0.00    +0.000 A 
ATOM     13  S   UNL     1      49.667   6.263  18.198  0.00  0.00    +0.000 S 
ATOM     14  C   UNL     1      48.625   5.082  17.550  0.00  0.00    +0.000 A 
ATOM     15  N   UNL     1      48.259   3.996  18.283  0.00  0.00    +0.000 NA
ATOM     16  C   UNL     1      47.454   3.191  17.668  0.00  0.00    +0.000 A 
ATOM     17  N   UNL     1      46.977   3.377  16.395  0.00  0.00    +0.000 N 
ATOM     18  C   UNL     1      47.325   4.462  15.616  0.00  0.00    +0.000 A 
ATOM     19  O   UNL     1      46.876   4.608  14.480  0.00  0.00    +0.000 OA
ATOM     20  C   UNL     1      48.245   5.385  16.255  0.00  0.00    +0.000 A 
ATOM     21  H   UNL     1      46.334   2.718  15.984  0.00  0.00    +0.000 HD
ENDBRANCH  10  11
ENDBRANCH   8  10
ENDBRANCH   7   8
ENDBRANCH   1   7
BRANCH   4  22
ATOM     22  C   UNL     1      43.944   4.679  10.408  0.00  0.00    +0.000 C 
BRANCH  22  23
ATOM     23  N   UNL     1      44.282   4.511   8.993  0.00  0.00    +0.000 NA
ATOM     24  H   UNL     1      45.169   5.003   8.834  0.00  0.00    +0.000 HD
BRANCH  23  25
ATOM     25  C   UNL     1      44.532   3.101   8.620  0.00  0.00    +0.000 C 
ATOM     26  C   UNL     1      44.440   2.172   9.834  0.00  0.00    +0.000 C 
BRANCH  25  27
ATOM     27  C   UNL     1      45.827   2.988   7.840  0.00  0.00    +0.000 A 
ATOM     28  C   UNL     1      46.625   1.840   7.602  0.00  0.00    +0.000 A 
ATOM     29  C   UNL     1      47.738   2.306   6.946  0.00  0.00    +0.000 A 
ATOM     30  N   UNL     1      47.558   3.648   6.807  0.00  0.00    +0.000 N 
ATOM     31  N   UNL     1      46.407   4.092   7.336  0.00  0.00    +0.000 NA
ATOM     32  H   UNL     1      48.181   4.324   6.379  0.00  0.00    +0.000 HD
ENDBRANCH  25  27
ENDBRANCH  23  25
ENDBRANCH  22  23
ENDBRANCH   4  22
TORSDOF 8
ENDMDL
MODEL 3
REMARK VINA RESULT:    -7.914      2.004      2.730
REMARK INTER + INTRA:         -12.001
REMARK INTER:                 -11.037
REMARK INTRA:                  -0.964
REMARK UNBOUND:                -0.386
REMARK  Name = 
REMARK  10 active torsions:
REMARK  status: ('A' for Active; 'I' for Inactive)
REMARK    1  A    between atoms: C_1  and  C_2
REMARK    2  A    between atoms: C_2  and  O_3
REMARK    3  A    between atoms: C_2  and  C_20
REMARK    4  A    between atoms: O_3  and  C_4
REMARK    5  A    between atoms: C_4  and  C_5
REMARK    6  A    between atoms: C_8  and  C_9
REMARK    7  A    between atoms: C_9  and  N_10
REMARK    8  A    between atoms: N_10  and  C_11
REMARK    9  A    between atoms: C_11  and  C_12
REMARK   10  A    between atoms: C_11  and  C_13
REMARK                            x       y       z     vdW  Elec       q    Type
REMARK                         _______ _______ _______ _____ _____    ______ ____
ROOT
ATOM      1  C   UNL     1      47.520   6.429  13.276  0.00  0.00    +0.000 A 
ATOM      2  C   UNL     1      47.277   7.053  12.044  0.00  0.00    +0.000 A 
ATOM      3  C   UNL     1      46.317   6.543  11.169  0.00  0.00    +0.000 A 
ATOM      4  C   UNL     1      45.582   5.401  11.515  0.00  0.00    +0.000 A 
ATOM      5  C   UNL     1      45.826   4.779  12.746  0.00  0.00    +0.000 A 
ATOM      6  C   UNL     1      46.785   5.289  13.620  0.00  0.00    +0.000 A 
ENDROOT
BRANCH   1   7
ATOM      7  C   UNL     1      48.628   6.918  14.171  0.00  0.00    +0.000 C 
BRANCH   7   8
ATOM      8  O   UNL     1      48.672   6.144  15.366  0.00  0.00    +0.000 OA
BRANCH   8  10
ATOM      9  C   UNL     1      50.823   7.294  15.443  0.00  0.00    +0.000 C 
ATOM     10  C   UNL     1      49.915   6.235  16.083  0.00  0.00    +0.000 C 
BRANCH  10  11
ATOM     11  C   UNL     1      49.632   6.616  17.527  0.00  0.00    +0.000 A 
ATOM     12  C   UNL     1      49.756   7.909  18.013  0.00  0.00    +0.000 A 
ATOM     13  S   UNL     1      49.479   8.034  19.691  0.00  0.00    +0.000 S 
ATOM     14  C   UNL     1      49.152   6.368  19.821  0.00  0.00    +0.000 A 
ATOM     15  N   UNL     1      48.855   5.806  21.024  0.00  0.00    +0.000 NA
ATOM     16  C   UNL     1      48.616   4.536  20.968  0.00  0.00    +0.000 A 
ATOM     17  N   UNL     1      48.639   3.781  19.823  0.00  0.00    +0.000 N 
ATOM     18  C   UNL     1      48.940   4.309  18.583  0.00  0.00    +0.000 A 
ATOM     19  O   UNL     1      48.947   3.610  17.571  0.00  0.00    +0.000 OA
ATOM     20  C   UNL     1      49.236   5.730  18.596  0.00  0.00    +0.000 A 
ATOM     21  H   UNL     1      48.422   2.796  19.850  0.00  0.00    +0.000 HD
ENDBRANCH  10  11
ENDBRANCH   8  10
ENDBRANCH   7   8
ENDBRANCH   1   7
BRANCH   4  22
ATOM     22  C   UNL     1      44.503   4.880  10.602  0.00  0.00    +0.000 C 
BRANCH  22  23
ATOM     23  N   UNL     1      44.944   4.814   9.207  0.00  0.00    +0.000 NA
ATOM     24  H   UNL     1      45.958   4.974   9.203  0.00  0.00    +0.000 HD
BRANCH  23  25
ATOM     25  C   UNL     1      44.745   3.480   8.599  0.00  0.00    +0.000 C 
ATOM     26  C   UNL     1      44.373   2.430   9.650  0.00  0.00    +0.000 C 
BRANCH  25  27
ATOM     27  C   UNL     1      45.940   3.113   7.740  0.00  0.00    +0.000 A 
ATOM     28  C   UNL     1      46.660   1.892   7.694  0.00  0.00    +0.000 A 
ATOM     29  C   UNL     1      47.711   2.127   6.842  0.00  0.00    +0.000 A 
ATOM     30  N   UNL     1      47.571   3.413   6.419  0.00  0.00    +0.000 N 
ATOM     31  N   UNL     1      46.504   4.038   6.944  0.00  0.00    +0.000 NA
ATOM     32  H   UNL     1      48.170   3.936   5.788  0.00  0.00    +0.000 HD
ENDBRANCH  25  27
ENDBRANCH  23  25
ENDBRANCH  22  23
ENDBRANCH   4  22
TORSDOF 8
ENDMDL
MODEL 4
REMARK VINA RESULT:    -7.810      1.560      2.411
REMARK INTER + INTRA:         -11.849
REMARK INTER:                 -11.007
REMARK INTRA:                  -0.842
REMARK UNBOUND:                -0.386
REMARK  Name = 
REMARK  10 active torsions:
REMARK  status: ('A' for Active; 'I' for Inactive)
REMARK    1  A    between atoms: C_1  and  C_2
REMARK    2  A    between atoms: C_2  and  O_3
REMARK    3  A    between atoms: C_2  and  C_20
REMARK    4  A    between atoms: O_3  and  C_4
REMARK    5  A    between atoms: C_4  and  C_5
REMARK    6  A    between atoms: C_8  and  C_9
REMARK    7  A    between atoms: C_9  and  N_10
REMARK    8  A    between atoms: N_10  and  C_11
REMARK    9  A    between atoms: C_11  and  C_12
REMARK   10  A    between atoms: C_11  and  C_13
REMARK                            x       y       z     vdW  Elec       q    Type
REMARK                         _______ _______ _______ _____ _____    ______ ____
ROOT
ATOM      1  C   UNL     1      46.761   5.203  13.635  0.00  0.00    +0.000 A 
ATOM      2  C   UNL     1      46.134   3.970  13.405  0.00  0.00    +0.000 A 
ATOM      3  C   UNL     1      45.269   3.806  12.322  0.00  0.00    +0.000 A 
ATOM      4  C   UNL     1      45.020   4.873  11.449  0.00  0.00    +0.000 A 
ATOM      5  C   UNL     1      45.647   6.103  11.679  0.00  0.00    +0.000 A 
ATOM      6  C   UNL     1      46.511   6.268  12.761  0.00  0.00    +0.000 A 
ENDROOT
BRANCH   1   7
ATOM      7  C   UNL     1      47.610   5.409  14.861  0.00  0.00    +0.000 C 
BRANCH   7   8
ATOM      8  O   UNL     1      47.882   4.159  15.486  0.00  0.00    +0.000 OA
BRANCH   8  10
ATOM      9  C   UNL     1      47.263   2.941  17.509  0.00  0.00    +0.000 C 
ATOM     10  C   UNL     1      47.899   4.209  16.924  0.00  0.00    +0.000 C 
BRANCH  10  11
ATOM     11  C   UNL     1      49.337   4.323  17.402  0.00  0.00    +0.000 A 
ATOM     12  C   UNL     1      50.233   3.265  17.381  0.00  0.00    +0.000 A 
ATOM     13  S   UNL     1      51.746   3.641  18.072  0.00  0.00    +0.000 S 
ATOM     14  C   UNL     1      51.266   5.242  18.396  0.00  0.00    +0.000 A 
ATOM     15  N   UNL     1      52.110   6.114  19.012  0.00  0.00    +0.000 NA
ATOM     16  C   UNL     1      51.616   7.297  19.179  0.00  0.00    +0.000 A 
ATOM     17  N   UNL     1      50.362   7.690  18.782  0.00  0.00    +0.000 N 
ATOM     18  C   UNL     1      49.473   6.838  18.157  0.00  0.00    +0.000 A 
ATOM     19  O   UNL     1      48.358   7.218  17.805  0.00  0.00    +0.000 OA
ATOM     20  C   UNL     1      49.975   5.490  17.965  0.00  0.00    +0.000 A 
ATOM     21  H   UNL     1      50.049   8.638  18.927  0.00  0.00    +0.000 HD
ENDBRANCH  10  11
ENDBRANCH   8  10
ENDBRANCH   7   8
ENDBRANCH   1   7
BRANCH   4  22
ATOM     22  C   UNL     1      44.135   4.685  10.245  0.00  0.00    +0.000 C 
BRANCH  22  23
ATOM     23  N   UNL     1      44.906   4.579   9.004  0.00  0.00    +0.000 NA
ATOM     24  H   UNL     1      45.894   4.712   9.250  0.00  0.00    +0.000 HD
BRANCH  23  25
ATOM     25  C   UNL     1      44.823   3.239   8.382  0.00  0.00    +0.000 C 
ATOM     26  C   UNL     1      44.387   2.175   9.393  0.00  0.00    +0.000 C 
BRANCH  25  27
ATOM     27  C   UNL     1      46.113   2.920   7.652  0.00  0.00    +0.000 A 
ATOM     28  C   UNL     1      46.755   1.667   7.487  0.00  0.00    +0.000 A 
ATOM     29  C   UNL     1      47.939   1.950   6.852  0.00  0.00    +0.000 A 
ATOM     30  N   UNL     1      47.947   3.297   6.655  0.00  0.00    +0.000 N 
ATOM     31  N   UNL     1      46.851   3.914   7.127  0.00  0.00    +0.000 NA
ATOM     32  H   UNL     1      48.668   3.865   6.223  0.00  0.00    +0.000 HD
ENDBRANCH  25  27
ENDBRANCH  23  25
ENDBRANCH  22  23
ENDBRANCH   4  22
TORSDOF 8
ENDMDL
MODEL 5
REMARK VINA RESULT:    -7.340      1.998      2.535
REMARK INTER + INTRA:         -11.159
REMARK INTER:                 -10.097
REMARK INTRA:                  -1.062
REMARK UNBOUND:                -0.386
REMARK  Name = 
REMARK  10 active torsions:
REMARK  status: ('A' for Active; 'I' for Inactive)
REMARK    1  A    between atoms: C_1  and  C_2
REMARK    2  A    between atoms: C_2  and  O_3
REMARK    3  A    between atoms: C_2  and  C_20
REMARK    4  A    between atoms: O_3  and  C_4
REMARK    5  A    between atoms: C_4  and  C_5
REMARK    6  A    between atoms: C_8  and  C_9
REMARK    7  A    between atoms: C_9  and  N_10
REMARK    8  A    between atoms: N_10  and  C_11
REMARK    9  A    between atoms: C_11  and  C_12
REMARK   10  A    between atoms: C_11  and  C_13
REMARK                            x       y       z     vdW  Elec       q    Type
REMARK                         _______ _______ _______ _____ _____    ______ ____
ROOT
ATOM      1  C   UNL     1      47.841   6.678  13.011  0.00  0.00    +0.000 A 
ATOM      2  C   UNL     1      47.466   7.118  11.733  0.00  0.00    +0.000 A 
ATOM      3  C   UNL     1      46.379   6.540  11.076  0.00  0.00    +0.000 A 
ATOM      4  C   UNL     1      45.647   5.515  11.689  0.00  0.00    +0.000 A 
ATOM      5  C   UNL     1      46.021   5.077  12.965  0.00  0.00    +0.000 A 
ATOM      6  C   UNL     1      47.108   5.654  13.622  0.00  0.00    +0.000 A 
ENDROOT
BRANCH   1   7
ATOM      7  C   UNL     1      49.076   7.228  13.674  0.00  0.00    +0.000 C 
BRANCH   7   8
ATOM      8  O   UNL     1      49.397   6.459  14.829  0.00  0.00    +0.000 OA
BRANCH   8  10
ATOM      9  C   UNL     1      48.658   8.329  16.213  0.00  0.00    +0.000 C 
ATOM     10  C   UNL     1      49.721   7.244  15.990  0.00  0.00    +0.000 C 
BRANCH  10  11
ATOM     11  C   UNL     1      49.783   6.336  17.206  0.00  0.00    +0.000 A 
ATOM     12  C   UNL     1      48.675   6.021  17.979  0.00  0.00    +0.000 A 
ATOM     13  S   UNL     1      49.047   5.067  19.343  0.00  0.00    +0.000 S 
ATOM     14  C   UNL     1      50.698   5.016  18.930  0.00  0.00    +0.000 A 
ATOM     15  N   UNL     1      51.595   4.358  19.715  0.00  0.00    +0.000 NA
ATOM     16  C   UNL     1      52.809   4.391  19.270  0.00  0.00    +0.000 A 
ATOM     17  N   UNL     1      53.206   5.012  18.113  0.00  0.00    +0.000 N 
ATOM     18  C   UNL     1      52.331   5.692  17.290  0.00  0.00    +0.000 A 
ATOM     19  O   UNL     1      52.713   6.234  16.254  0.00  0.00    +0.000 OA
ATOM     20  C   UNL     1      50.957   5.702  17.757  0.00  0.00    +0.000 A 
ATOM     21  H   UNL     1      54.169   4.980  17.815  0.00  0.00    +0.000 HD
ENDBRANCH  10  11
ENDBRANCH   8  10
ENDBRANCH   7   8
ENDBRANCH   1   7
BRANCH   4  22
ATOM     22  C   UNL     1      44.436   4.929  11.010  0.00  0.00    +0.000 C 
BRANCH  22  23
ATOM     23  N   UNL     1      44.560   4.942   9.551  0.00  0.00    +0.000 NA
ATOM     24  H   UNL     1      45.492   5.312   9.331  0.00  0.00    +0.000 HD
BRANCH  23  25
ATOM     25  C   UNL     1      44.511   3.591   8.952  0.00  0.00    +0.000 C 
ATOM     26  C   UNL     1      44.299   2.510  10.016  0.00  0.00    +0.000 C 
BRANCH  25  27
ATOM     27  C   UNL     1      45.719   3.368   8.063  0.00  0.00    +0.000 A 
ATOM     28  C   UNL     1      46.359   2.150   7.720  0.00  0.00    +0.000 A 
ATOM     29  C   UNL     1      47.463   2.517   6.991  0.00  0.00    +0.000 A 
ATOM     30  N   UNL     1      47.429   3.875   6.915  0.00  0.00    +0.000 N 
ATOM     31  N   UNL     1      46.382   4.422   7.554  0.00  0.00    +0.000 NA
ATOM     32  H   UNL     1      48.091   4.496   6.462  0.00  0.00    +0.000 HD
ENDBRANCH  25  27
ENDBRANCH  23  25
ENDBRANCH  22  23
ENDBRANCH   4  22
TORSDOF 8
ENDMDL
MODEL 6
REMARK VINA RESULT:    -7.091      4.276      8.886
REMARK INTER + INTRA:         -10.794
REMARK INTER:                  -9.033
REMARK INTRA:                  -1.761
REMARK UNBOUND:                -0.386
REMARK  Name = 
REMARK  10 active torsions:
REMARK  status: ('A' for Active; 'I' for Inactive)
REMARK    1  A    between atoms: C_1  and  C_2
REMARK    2  A    between atoms: C_2  and  O_3
REMARK    3  A    between atoms: C_2  and  C_20
REMARK    4  A    between atoms: O_3  and  C_4
REMARK    5  A    between atoms: C_4  and  C_5
REMARK    6  A    between atoms: C_8  and  C_9
REMARK    7  A    between atoms: C_9  and  N_10
REMARK    8  A    between atoms: N_10  and  C_11
REMARK    9  A    between atoms: C_11  and  C_12
REMARK   10  A    between atoms: C_11  and  C_13
REMARK                            x       y       z     vdW  Elec       q    Type
REMARK                         _______ _______ _______ _____ _____    ______ ____
ROOT
ATOM      1  C   UNL     1      48.915   8.610  15.194  0.00  0.00    +0.000 A 
ATOM      2  C   UNL     1      48.262   9.300  16.225  0.00  0.00    +0.000 A 
ATOM      3  C   UNL     1      48.296   8.817  17.533  0.00  0.00    +0.000 A 
ATOM      4  C   UNL     1      48.987   7.635  17.832  0.00  0.00    +0.000 A 
ATOM      5  C   UNL     1      49.639   6.946  16.802  0.00  0.00    +0.000 A 
ATOM      6  C   UNL     1      49.605   7.429  15.494  0.00  0.00    +0.000 A 
ENDROOT
BRANCH   1   7
ATOM      7  C   UNL     1      48.790   9.074  13.767  0.00  0.00    +0.000 C 
BRANCH   7   8
ATOM      8  O   UNL     1      47.456   8.887  13.305  0.00  0.00    +0.000 OA
BRANCH   8  10
ATOM      9  C   UNL     1      48.739   7.601  11.675  0.00  0.00    +0.000 C 
ATOM     10  C   UNL     1      47.347   8.056  12.135  0.00  0.00    +0.000 C 
BRANCH  10  11
ATOM     11  C   UNL     1      46.497   6.841  12.463  0.00  0.00    +0.000 A 
ATOM     12  C   UNL     1      46.984   5.730  13.136  0.00  0.00    +0.000 A 
ATOM     13  S   UNL     1      45.844   4.468  13.279  0.00  0.00    +0.000 S 
ATOM     14  C   UNL     1      44.651   5.376  12.473  0.00  0.00    +0.000 A 
ATOM     15  N   UNL     1      43.415   4.856  12.242  0.00  0.00    +0.000 NA
ATOM     16  C   UNL     1      42.608   5.664  11.634  0.00  0.00    +0.000 A 
ATOM     17  N   UNL     1      42.920   6.942  11.244  0.00  0.00    +0.000 N 
ATOM     18  C   UNL     1      44.162   7.508  11.455  0.00  0.00    +0.000 A 
ATOM     19  O   UNL     1      44.412   8.659  11.102  0.00  0.00    +0.000 OA
ATOM     20  C   UNL     1      45.111   6.632  12.117  0.00  0.00    +0.000 A 
ATOM     21  H   UNL     1      42.233   7.525  10.791  0.00  0.00    +0.000 HD
ENDBRANCH  10  11
ENDBRANCH   8  10
ENDBRANCH   7   8
ENDBRANCH   1   7
BRANCH   4  22
ATOM     22  C   UNL     1      49.077   7.140  19.252  0.00  0.00    +0.000 C 
BRANCH  22  23
ATOM     23  N   UNL     1      48.006   6.196  19.578  0.00  0.00    +0.000 NA
ATOM     24  H   UNL     1      47.331   6.228  18.804  0.00  0.00    +0.000 HD
BRANCH  23  25
ATOM     25  C   UNL     1      48.471   4.794  19.651  0.00  0.00    +0.000 C 
ATOM     26  C   UNL     1      49.951   4.710  20.034  0.00  0.00    +0.000 C 
BRANCH  25  27
ATOM     27  C   UNL     1      48.108   4.056  18.378  0.00  0.00    +0.000 A 
ATOM     28  C   UNL     1      48.867   3.098  17.657  0.00  0.00    +0.000 A 
ATOM     29  C   UNL     1      48.134   2.835  16.527  0.00  0.00    +0.000 A 
ATOM     30  N   UNL     1      47.009   3.595  16.623  0.00  0.00    +0.000 N 
ATOM     31  N   UNL     1      46.962   4.345  17.736  0.00  0.00    +0.000 NA
ATOM     32  H   UNL     1      46.241   3.667  15.964  0.00  0.00    +0.000 HD
ENDBRANCH  25  27
ENDBRANCH  23  25
ENDBRANCH  22  23
ENDBRANCH   4  22
TORSDOF 8
ENDMDL
MODEL 7
REMARK VINA RESULT:    -7.056      2.818      3.853
REMARK INTER + INTRA:         -10.742
REMARK INTER:                  -9.767
REMARK INTRA:                  -0.975
REMARK UNBOUND:                -0.386
REMARK  Name = 
REMARK  10 active torsions:
REMARK  status: ('A' for Active; 'I' for Inactive)
REMARK    1  A    between atoms: C_1  and  C_2
REMARK    2  A    between atoms: C_2  and  O_3
REMARK    3  A    between atoms: C_2  and  C_20
REMARK    4  A    between atoms: O_3  and  C_4
REMARK    5  A    between atoms: C_4  and  C_5
REMARK    6  A    between atoms: C_8  and  C_9
REMARK    7  A    between atoms: C_9  and  N_10
REMARK    8  A    between atoms: N_10  and  C_11
REMARK    9  A    between atoms: C_11  and  C_12
REMARK   10  A    between atoms: C_11  and  C_13
REMARK                            x       y       z     vdW  Elec       q    Type
REMARK                         _______ _______ _______ _____ _____    ______ ____
ROOT
ATOM      1  C   UNL     1      46.280   7.645  12.597  0.00  0.00    +0.000 A 
ATOM      2  C   UNL     1      46.525   6.265  12.655  0.00  0.00    +0.000 A 
ATOM      3  C   UNL     1      45.663   5.366  12.026  0.00  0.00    +0.000 A 
ATOM      4  C   UNL     1      44.542   5.833  11.327  0.00  0.00    +0.000 A 
ATOM      5  C   UNL     1      44.298   7.211  11.271  0.00  0.00    +0.000 A 
ATOM      6  C   UNL     1      45.160   8.110  11.899  0.00  0.00    +0.000 A 
ENDROOT
BRANCH   1   7
ATOM      7  C   UNL     1      47.151   8.605  13.363  0.00  0.00    +0.000 C 
BRANCH   7   8
ATOM      8  O   UNL     1      48.343   8.876  12.633  0.00  0.00    +0.000 OA
BRANCH   8  10
ATOM      9  C   UNL     1      50.246   7.787  11.560  0.00  0.00    +0.000 C 
ATOM     10  C   UNL     1      49.388   7.906  12.827  0.00  0.00    +0.000 C 
BRANCH  10  11
ATOM     11  C   UNL     1      50.261   8.340  13.993  0.00  0.00    +0.000 A 
ATOM     12  C   UNL     1      51.131   9.418  13.933  0.00  0.00    +0.000 A 
ATOM     13  S   UNL     1      52.065   9.617  15.347  0.00  0.00    +0.000 S 
ATOM     14  C   UNL     1      51.315   8.286  16.100  0.00  0.00    +0.000 A 
ATOM     15  N   UNL     1      51.678   7.896  17.352  0.00  0.00    +0.000 NA
ATOM     16  C   UNL     1      51.014   6.881  17.801  0.00  0.00    +0.000 A 
ATOM     17  N   UNL     1      50.019   6.228  17.119  0.00  0.00    +0.000 N 
ATOM     18  C   UNL     1      49.622   6.588  15.846  0.00  0.00    +0.000 A 
ATOM     19  O   UNL     1      48.722   5.989  15.261  0.00  0.00    +0.000 OA
ATOM     20  C   UNL     1      50.353   7.711  15.289  0.00  0.00    +0.000 A 
ATOM     21  H   UNL     1      49.528   5.453  17.540  0.00  0.00    +0.000 HD
ENDBRANCH  10  11
ENDBRANCH   8  10
ENDBRANCH   7   8
ENDBRANCH   1   7
BRANCH   4  22
ATOM     22  C   UNL     1      43.640   4.873  10.597  0.00  0.00    +0.000 C 
BRANCH  22  23
ATOM     23  N   UNL     1      44.091   4.627   9.224  0.00  0.00    +0.000 NA
ATOM     24  H   UNL     1      44.926   5.206   9.074  0.00  0.00    +0.000 HD
BRANCH  23  25
ATOM     25  C   UNL     1      44.522   3.231   8.997  0.00  0.00    +0.000 C 
ATOM     26  C   UNL     1      44.698   2.472  10.315  0.00  0.00    +0.000 C 
BRANCH  25  27
ATOM     27  C   UNL     1      45.734   3.199   8.088  0.00  0.00    +0.000 A 
ATOM     28  C   UNL     1      46.468   2.078   7.621  0.00  0.00    +0.000 A 
ATOM     29  C   UNL     1      47.530   2.605   6.931  0.00  0.00    +0.000 A 
ATOM     30  N   UNL     1      47.385   3.957   6.993  0.00  0.00    +0.000 N 
ATOM     31  N   UNL     1      46.303   4.349   7.685  0.00  0.00    +0.000 NA
ATOM     32  H   UNL     1      47.989   4.673   6.602  0.00  0.00    +0.000 HD
ENDBRANCH  25  27
ENDBRANCH  23  25
ENDBRANCH  22  23
ENDBRANCH   4  22
TORSDOF 8
ENDMDL
MODEL 8
REMARK VINA RESULT:    -7.018      1.332      2.017
REMARK INTER + INTRA:         -10.686
REMARK INTER:                 -10.551
REMARK INTRA:                  -0.135
REMARK UNBOUND:                -0.386
REMARK  Name = 
REMARK  10 active torsions:
REMARK  status: ('A' for Active; 'I' for Inactive)
REMARK    1  A    between atoms: C_1  and  C_2
REMARK    2  A    between atoms: C_2  and  O_3
REMARK    3  A    between atoms: C_2  and  C_20
REMARK    4  A    between atoms: O_3  and  C_4
REMARK    5  A    between atoms: C_4  and  C_5
REMARK    6  A    between atoms: C_8  and  C_9
REMARK    7  A    between atoms: C_9  and  N_10
REMARK    8  A    between atoms: N_10  and  C_11
REMARK    9  A    between atoms: C_11  and  C_12
REMARK   10  A    between atoms: C_11  and  C_13
REMARK                            x       y       z     vdW  Elec       q    Type
REMARK                         _______ _______ _______ _____ _____    ______ ____
ROOT
ATOM      1  C   UNL     1      47.885   6.341  14.183  0.00  0.00    +0.000 A 
ATOM      2  C   UNL     1      47.981   7.305  13.170  0.00  0.00    +0.000 A 
ATOM      3  C   UNL     1      47.308   7.129  11.960  0.00  0.00    +0.000 A 
ATOM      4  C   UNL     1      46.527   5.986  11.745  0.00  0.00    +0.000 A 
ATOM      5  C   UNL     1      46.433   5.024  12.758  0.00  0.00    +0.000 A 
ATOM      6  C   UNL     1      47.104   5.199  13.967  0.00  0.00    +0.000 A 
ENDROOT
BRANCH   1   7
ATOM      7  C   UNL     1      48.694   6.480  15.446  0.00  0.00    +0.000 C 
BRANCH   7   8
ATOM      8  O   UNL     1      48.224   5.568  16.433  0.00  0.00    +0.000 OA
BRANCH   8  10
ATOM      9  C   UNL     1      47.620   5.383  18.791  0.00  0.00    +0.000 C 
ATOM     10  C   UNL     1      48.659   5.870  17.771  0.00  0.00    +0.000 C 
BRANCH  10  11
ATOM     11  C   UNL     1      49.988   5.183  18.032  0.00  0.00    +0.000 A 
ATOM     12  C   UNL     1      51.080   5.824  18.596  0.00  0.00    +0.000 A 
ATOM     13  S   UNL     1      52.476   4.847  18.678  0.00  0.00    +0.000 S 
ATOM     14  C   UNL     1      51.659   3.521  17.990  0.00  0.00    +0.000 A 
ATOM     15  N   UNL     1      52.303   2.344  17.762  0.00  0.00    +0.000 NA
ATOM     16  C   UNL     1      51.554   1.423  17.250  0.00  0.00    +0.000 A 
ATOM     17  N   UNL     1      50.222   1.567  16.952  0.00  0.00    +0.000 N 
ATOM     18  C   UNL     1      49.531   2.743  17.163  0.00  0.00    +0.000 A 
ATOM     19  O   UNL     1      48.335   2.842  16.894  0.00  0.00    +0.000 OA
ATOM     20  C   UNL     1      50.334   3.816  17.719  0.00  0.00    +0.000 A 
ATOM     21  H   UNL     1      49.693   0.797  16.572  0.00  0.00    +0.000 HD
ENDBRANCH  10  11
ENDBRANCH   8  10
ENDBRANCH   7   8
ENDBRANCH   1   7
BRANCH   4  22
ATOM     22  C   UNL     1      45.752   5.819  10.464  0.00  0.00    +0.000 C 
BRANCH  22  23
ATOM     23  N   UNL     1      44.307   5.943  10.673  0.00  0.00    +0.000 NA
ATOM     24  H   UNL     1      43.958   6.610   9.975  0.00  0.00    +0.000 HD
BRANCH  23  25
ATOM     25  C   UNL     1      43.575   4.681  10.429  0.00  0.00    +0.000 C 
ATOM     26  C   UNL     1      43.181   3.994  11.739  0.00  0.00    +0.000 C 
BRANCH  25  27
ATOM     27  C   UNL     1      44.354   3.804   9.469  0.00  0.00    +0.000 A 
ATOM     28  C   UNL     1      44.983   2.556   9.714  0.00  0.00    +0.000 A 
ATOM     29  C   UNL     1      45.641   2.250   8.550  0.00  0.00    +0.000 A 
ATOM     30  N   UNL     1      45.375   3.270   7.688  0.00  0.00    +0.000 N 
ATOM     31  N   UNL     1      44.595   4.227   8.215  0.00  0.00    +0.000 NA
ATOM     32  H   UNL     1      45.703   3.389   6.735  0.00  0.00    +0.000 HD
ENDBRANCH  25  27
ENDBRANCH  23  25
ENDBRANCH  22  23
ENDBRANCH   4  22
TORSDOF 8
ENDMDL
MODEL 9
REMARK VINA RESULT:    -6.987      3.715      8.711
REMARK INTER + INTRA:         -10.640
REMARK INTER:                  -9.345
REMARK INTRA:                  -1.295
REMARK UNBOUND:                -0.386
REMARK  Name = 
REMARK  10 active torsions:
REMARK  status: ('A' for Active; 'I' for Inactive)
REMARK    1  A    between atoms: C_1  and  C_2
REMARK    2  A    between atoms: C_2  and  O_3
REMARK    3  A    between atoms: C_2  and  C_20
REMARK    4  A    between atoms: O_3  and  C_4
REMARK    5  A    between atoms: C_4  and  C_5
REMARK    6  A    between atoms: C_8  and  C_9
REMARK    7  A    between atoms: C_9  and  N_10
REMARK    8  A    between atoms: N_10  and  C_11
REMARK    9  A    between atoms: C_11  and  C_12
REMARK   10  A    between atoms: C_11  and  C_13
REMARK                            x       y       z     vdW  Elec       q    Type
REMARK                         _______ _______ _______ _____ _____    ______ ____
ROOT
ATOM      1  C   UNL     1      48.512   8.153  13.525  0.00  0.00    +0.000 A 
ATOM      2  C   UNL     1      48.213   9.204  14.404  0.00  0.00    +0.000 A 
ATOM      3  C   UNL     1      48.277   9.013  15.785  0.00  0.00    +0.000 A 
ATOM      4  C   UNL     1      48.643   7.767  16.309  0.00  0.00    +0.000 A 
ATOM      5  C   UNL     1      48.940   6.717  15.431  0.00  0.00    +0.000 A 
ATOM      6  C   UNL     1      48.877   6.908  14.051  0.00  0.00    +0.000 A 
ENDROOT
BRANCH   1   7
ATOM      7  C   UNL     1      48.341   8.330  12.040  0.00  0.00    +0.000 C 
BRANCH   7   8
ATOM      8  O   UNL     1      47.757   7.163  11.470  0.00  0.00    +0.000 OA
BRANCH   8  10
ATOM      9  C   UNL     1      45.552   8.182  11.705  0.00  0.00    +0.000 C 
ATOM     10  C   UNL     1      46.402   6.918  11.886  0.00  0.00    +0.000 C 
BRANCH  10  11
ATOM     11  C   UNL     1      45.819   5.790  11.051  0.00  0.00    +0.000 A 
ATOM     12  C   UNL     1      46.000   5.685   9.680  0.00  0.00    +0.000 A 
ATOM     13  S   UNL     1      45.150   4.382   8.980  0.00  0.00    +0.000 S 
ATOM     14  C   UNL     1      44.536   3.894  10.491  0.00  0.00    +0.000 A 
ATOM     15  N   UNL     1      43.701   2.825  10.594  0.00  0.00    +0.000 NA
ATOM     16  C   UNL     1      43.326   2.562  11.803  0.00  0.00    +0.000 A 
ATOM     17  N   UNL     1      43.714   3.264  12.917  0.00  0.00    +0.000 N 
ATOM     18  C   UNL     1      44.556   4.357  12.858  0.00  0.00    +0.000 A 
ATOM     19  O   UNL     1      44.894   4.963  13.873  0.00  0.00    +0.000 OA
ATOM     20  C   UNL     1      44.989   4.704  11.517  0.00  0.00    +0.000 A 
ATOM     21  H   UNL     1      43.398   2.990  13.835  0.00  0.00    +0.000 HD
ENDBRANCH  10  11
ENDBRANCH   8  10
ENDBRANCH   7   8
ENDBRANCH   1   7
BRANCH   4  22
ATOM     22  C   UNL     1      48.771   7.570  17.797  0.00  0.00    +0.000 C 
BRANCH  22  23
ATOM     23  N   UNL     1      47.541   7.044  18.393  0.00  0.00    +0.000 NA
ATOM     24  H   UNL     1      46.929   6.759  17.619  0.00  0.00    +0.000 HD
BRANCH  23  25
ATOM     25  C   UNL     1      47.764   5.825  19.201  0.00  0.00    +0.000 C 
ATOM     26  C   UNL     1      48.786   6.065  20.315  0.00  0.00    +0.000 C 
BRANCH  25  27
ATOM     27  C   UNL     1      48.084   4.651  18.297  0.00  0.00    +0.000 A 
ATOM     28  C   UNL     1      47.239   3.979  17.378  0.00  0.00    +0.000 A 
ATOM     29  C   UNL     1      47.982   2.925  16.909  0.00  0.00    +0.000 A 
ATOM     30  N   UNL     1      49.193   3.016  17.524  0.00  0.00    +0.000 N 
ATOM     31  N   UNL     1      49.288   4.055  18.370  0.00  0.00    +0.000 NA
ATOM     32  H   UNL     1      49.995   2.402  17.429  0.00  0.00    +0.000 HD
ENDBRANCH  25  27
ENDBRANCH  23  25
ENDBRANCH  22  23
ENDBRANCH   4  22
TORSDOF 8
ENDMDL
