MODEL 1
REMARK VINA RESULT:    -7.792      0.000      0.000
REMARK INTER + INTRA:         -12.305
REMARK INTER:                 -11.437
REMARK INTRA:                  -0.868
REMARK UNBOUND:                -0.868
REMARK  Name = 
REMARK  10 active torsions:
REMARK  status: ('A' for Active; 'I' for Inactive)
REMARK    1  A    between atoms: C_1  and  N_2
REMARK    2  A    between atoms: N_2  and  C_3
REMARK    3  A    between atoms: N_2  and  C_4
REMARK    4  A    between atoms: C_4  and  C_5
REMARK    5  A    between atoms: C_5  and  O_6
REMARK    6  A    between atoms: O_6  and  C_7
REMARK    7  A    between atoms: C_10  and  C_11
REMARK    8  A    between atoms: C_11  and  O_12
REMARK    9  A    between atoms: O_12  and  C_13
REMARK   10  A    between atoms: C_16  and  C_17
REMARK                            x       y       z     vdW  Elec       q    Type
REMARK                         _______ _______ _______ _____ _____    ______ ____
ROOT
ATOM      1  C   UNL     1      43.798   5.534  10.796  0.00  0.00    +0.000 C 
ENDROOT
BRANCH   1   5
ATOM      2  C   UNL     1      46.989   5.253  13.716  0.00  0.00    +0.000 A 
ATOM      3  C   UNL     1      47.110   6.107  12.617  0.00  0.00    +0.000 A 
ATOM      4  C   UNL     1      46.088   6.189  11.663  0.00  0.00    +0.000 A 
ATOM      5  C   UNL     1      44.928   5.415  11.793  0.00  0.00    +0.000 A 
ATOM      6  C   UNL     1      44.830   4.532  12.875  0.00  0.00    +0.000 A 
ATOM      7  C   UNL     1      45.852   4.453  13.828  0.00  0.00    +0.000 A 
BRANCH   2   8
ATOM      8  O   UNL     1      47.926   5.103  14.704  0.00  0.00    +0.000 OA
BRANCH   8   9
ATOM      9  C   UNL     1      47.455   4.452  15.890  0.00  0.00    +0.000 C 
BRANCH   9  10
ATOM     10  C   UNL     1      48.417   4.741  17.055  0.00  0.00    +0.000 C 
BRANCH  10  12
ATOM     11  C   UNL     1      50.531   4.329  18.138  0.00  0.00    +0.000 C 
ATOM     12  N   UNL     1      49.664   3.946  17.019  0.00  0.00    +0.000 NA
ATOM     13  C   UNL     1      49.411   2.504  17.069  0.00  0.00    +0.000 C 
ENDBRANCH  10  12
ENDBRANCH   9  10
ENDBRANCH   8   9
ENDBRANCH   2   8
ENDBRANCH   1   5
BRANCH   1  14
ATOM     14  O   UNL     1      43.521   4.257  10.220  0.00  0.00    +0.000 OA
BRANCH  14  15
ATOM     15  C   UNL     1      44.467   3.743   9.373  0.00  0.00    +0.000 A 
ATOM     16  C   UNL     1      45.220   4.462   8.444  0.00  0.00    +0.000 A 
ATOM     17  C   UNL     1      46.167   3.805   7.644  0.00  0.00    +0.000 A 
ATOM     18  C   UNL     1      46.380   2.426   7.771  0.00  0.00    +0.000 A 
ATOM     19  C   UNL     1      45.636   1.706   8.711  0.00  0.00    +0.000 A 
ATOM     20  C   UNL     1      44.680   2.366   9.497  0.00  0.00    +0.000 A 
BRANCH  18  21
ATOM     21  C   UNL     1      47.374   1.785   6.874  0.00  0.00    +0.000 C 
ATOM     22  N   UNL     1      48.453   2.517   6.468  0.00  0.00    +0.000 N 
ATOM     23  O   UNL     1      47.230   0.626   6.487  0.00  0.00    +0.000 OA
ATOM     24  H   UNL     1      48.626   3.479   6.727  0.00  0.00    +0.000 HD
ATOM     25  H   UNL     1      49.112   2.061   5.848  0.00  0.00    +0.000 HD
ENDBRANCH  18  21
ENDBRANCH  14  15
ENDBRANCH   1  14
TORSDOF 8
ENDMDL
MODEL 2
REMARK VINA RESULT:    -7.770      0.983      1.794
REMARK INTER + INTRA:         -12.272
REMARK INTER:                 -11.280
REMARK INTRA:                  -0.992
REMARK UNBOUND:                -0.868
REMARK  Name = 
REMARK  10 active torsions:
REMARK  status: ('A' for Active; 'I' for Inactive)
REMARK    1  A    between atoms: C_1  and  N_2
REMARK    2  A    between atoms: N_2  and  C_3
REMARK    3  A    between atoms: N_2  and  C_4
REMARK    4  A    between atoms: C_4  and  C_5
REMARK    5  A    between atoms: C_5  and  O_6
REMARK    6  A    between atoms: O_6  and  C_7
REMARK    7  A    between atoms: C_10  and  C_11
REMARK    8  A    between atoms: C_11  and  O_12
REMARK    9  A    between atoms: O_12  and  C_13
REMARK   10  A    between atoms: C_16  and  C_17
REMARK                            x       y       z     vdW  Elec       q    Type
REMARK                         _______ _______ _______ _____ _____    ______ ____
ROOT
ATOM      1  C   UNL     1      43.704   4.311  11.518  0.00  0.00    +0.000 C 
ENDROOT
BRANCH   1   5
ATOM      2  C   UNL     1      47.445   5.587  13.297  0.00  0.00    +0.000 A 
ATOM      3  C   UNL     1      46.907   4.334  13.604  0.00  0.00    +0.000 A 
ATOM      4  C   UNL     1      45.691   3.925  13.044  0.00  0.00    +0.000 A 
ATOM      5  C   UNL     1      44.991   4.764  12.167  0.00  0.00    +0.000 A 
ATOM      6  C   UNL     1      45.516   6.034  11.895  0.00  0.00    +0.000 A 
ATOM      7  C   UNL     1      46.732   6.440  12.456  0.00  0.00    +0.000 A 
BRANCH   2   8
ATOM      8  O   UNL     1      48.625   6.079  13.788  0.00  0.00    +0.000 OA
BRANCH   8   9
ATOM      9  C   UNL     1      48.499   6.897  14.958  0.00  0.00    +0.000 C 
BRANCH   9  10
ATOM     10  C   UNL     1      49.451   6.385  16.052  0.00  0.00    +0.000 C 
BRANCH  10  12
ATOM     11  C   UNL     1      50.210   4.549  17.417  0.00  0.00    +0.000 C 
ATOM     12  N   UNL     1      49.139   5.022  16.534  0.00  0.00    +0.000 NA
ATOM     13  C   UNL     1      47.859   4.957  17.243  0.00  0.00    +0.000 C 
ENDBRANCH  10  12
ENDBRANCH   9  10
ENDBRANCH   8   9
ENDBRANCH   2   8
ENDBRANCH   1   5
BRANCH   1  14
ATOM     14  O   UNL     1      43.748   4.575  10.116  0.00  0.00    +0.000 OA
BRANCH  14  15
ATOM     15  C   UNL     1      44.609   3.813   9.371  0.00  0.00    +0.000 A 
ATOM     16  C   UNL     1      44.740   2.425   9.425  0.00  0.00    +0.000 A 
ATOM     17  C   UNL     1      45.661   1.772   8.592  0.00  0.00    +0.000 A 
ATOM     18  C   UNL     1      46.451   2.495   7.689  0.00  0.00    +0.000 A 
ATOM     19  C   UNL     1      46.311   3.885   7.624  0.00  0.00    +0.000 A 
ATOM     20  C   UNL     1      45.400   4.534   8.470  0.00  0.00    +0.000 A 
BRANCH  18  21
ATOM     21  C   UNL     1      47.428   1.748   6.857  0.00  0.00    +0.000 C 
ATOM     22  N   UNL     1      48.542   2.402   6.416  0.00  0.00    +0.000 N 
ATOM     23  O   UNL     1      47.239   0.571   6.553  0.00  0.00    +0.000 OA
ATOM     24  H   UNL     1      48.754   3.372   6.607  0.00  0.00    +0.000 HD
ATOM     25  H   UNL     1      49.189   1.874   5.841  0.00  0.00    +0.000 HD
ENDBRANCH  18  21
ENDBRANCH  14  15
ENDBRANCH   1  14
TORSDOF 8
ENDMDL
MODEL 3
REMARK VINA RESULT:    -7.649      2.264      3.173
REMARK INTER + INTRA:         -12.095
REMARK INTER:                 -10.938
REMARK INTRA:                  -1.156
REMARK UNBOUND:                -0.868
REMARK  Name = 
REMARK  10 active torsions:
REMARK  status: ('A' for Active; 'I' for Inactive)
REMARK    1  A    between atoms: C_1  and  N_2
REMARK    2  A    between atoms: N_2  and  C_3
REMARK    3  A    between atoms: N_2  and  C_4
REMARK    4  A    between atoms: C_4  and  C_5
REMARK    5  A    between atoms: C_5  and  O_6
REMARK    6  A    between atoms: O_6  and  C_7
REMARK    7  A    between atoms: C_10  and  C_11
REMARK    8  A    between atoms: C_11  and  O_12
REMARK    9  A    between atoms: O_12  and  C_13
REMARK   10  A    between atoms: C_16  and  C_17
REMARK                            x       y       z     vdW  Elec       q    Type
REMARK                         _______ _______ _______ _____ _____    ______ ____
ROOT
ATOM      1  C   UNL     1      43.502   3.546  11.524  0.00  0.00    +0.000 C 
ENDROOT
BRANCH   1   5
ATOM      2  C   UNL     1      46.884   5.190  13.681  0.00  0.00    +0.000 A 
ATOM      3  C   UNL     1      45.896   6.033  13.167  0.00  0.00    +0.000 A 
ATOM      4  C   UNL     1      44.810   5.508  12.456  0.00  0.00    +0.000 A 
ATOM      5  C   UNL     1      44.696   4.127  12.246  0.00  0.00    +0.000 A 
ATOM      6  C   UNL     1      45.710   3.291  12.729  0.00  0.00    +0.000 A 
ATOM      7  C   UNL     1      46.793   3.819  13.440  0.00  0.00    +0.000 A 
BRANCH   2   8
ATOM      8  O   UNL     1      47.981   5.602  14.391  0.00  0.00    +0.000 OA
BRANCH   8   9
ATOM      9  C   UNL     1      48.242   7.009  14.334  0.00  0.00    +0.000 C 
BRANCH   9  10
ATOM     10  C   UNL     1      49.536   7.263  13.540  0.00  0.00    +0.000 C 
BRANCH  10  12
ATOM     11  C   UNL     1      48.345   8.619  11.941  0.00  0.00    +0.000 C 
ATOM     12  N   UNL     1      49.318   7.533  12.102  0.00  0.00    +0.000 NA
ATOM     13  C   UNL     1      50.556   7.880  11.403  0.00  0.00    +0.000 C 
ENDBRANCH  10  12
ENDBRANCH   9  10
ENDBRANCH   8   9
ENDBRANCH   2   8
ENDBRANCH   1   5
BRANCH   1  14
ATOM     14  O   UNL     1      43.510   3.962  10.159  0.00  0.00    +0.000 OA
BRANCH  14  15
ATOM     15  C   UNL     1      44.484   3.429   9.356  0.00  0.00    +0.000 A 
ATOM     16  C   UNL     1      44.807   2.077   9.238  0.00  0.00    +0.000 A 
ATOM     17  C   UNL     1      45.827   1.670   8.365  0.00  0.00    +0.000 A 
ATOM     18  C   UNL     1      46.526   2.606   7.592  0.00  0.00    +0.000 A 
ATOM     19  C   UNL     1      46.194   3.961   7.698  0.00  0.00    +0.000 A 
ATOM     20  C   UNL     1      45.184   4.363   8.585  0.00  0.00    +0.000 A 
BRANCH  18  21
ATOM     21  C   UNL     1      47.614   2.115   6.709  0.00  0.00    +0.000 C 
ATOM     22  N   UNL     1      48.003   2.896   5.659  0.00  0.00    +0.000 N 
ATOM     23  O   UNL     1      48.148   1.023   6.902  0.00  0.00    +0.000 OA
ATOM     24  H   UNL     1      47.597   3.792   5.426  0.00  0.00    +0.000 HD
ATOM     25  H   UNL     1      48.740   2.534   5.064  0.00  0.00    +0.000 HD
ENDBRANCH  18  21
ENDBRANCH  14  15
ENDBRANCH   1  14
TORSDOF 8
ENDMDL
MODEL 4
REMARK VINA RESULT:    -6.661      1.952      2.514
REMARK INTER + INTRA:         -10.644
REMARK INTER:                  -9.686
REMARK INTRA:                  -0.958
REMARK UNBOUND:                -0.868
REMARK  Name = 
REMARK  10 active torsions:
REMARK  status: ('A' for Active; 'I' for Inactive)
REMARK    1  A    between atoms: C_1  and  N_2
REMARK    2  A    between atoms: N_2  and  C_3
REMARK    3  A    between atoms: N_2  and  C_4
REMARK    4  A    between atoms: C_4  and  C_5
REMARK    5  A    between atoms: C_5  and  O_6
REMARK    6  A    between atoms: O_6  and  C_7
REMARK    7  A    between atoms: C_10  and  C_11
REMARK    8  A    between atoms: C_11  and  O_12
REMARK    9  A    between atoms: O_12  and  C_13
REMARK   10  A    between atoms: C_16  and  C_17
REMARK                            x       y       z     vdW  Elec       q    Type
REMARK                         _______ _______ _______ _____ _____    ______ ____
ROOT
ATOM      1  C   UNL     1      43.977   3.919  11.953  0.00  0.00    +0.000 C 
ENDROOT
BRANCH   1   5
ATOM      2  C   UNL     1      46.612   7.283  12.674  0.00  0.00    +0.000 A 
ATOM      3  C   UNL     1      47.065   5.976  12.873  0.00  0.00    +0.000 A 
ATOM      4  C   UNL     1      46.211   4.887  12.656  0.00  0.00    +0.000 A 
ATOM      5  C   UNL     1      44.890   5.089  12.239  0.00  0.00    +0.000 A 
ATOM      6  C   UNL     1      44.432   6.403  12.080  0.00  0.00    +0.000 A 
ATOM      7  C   UNL     1      45.286   7.489  12.296  0.00  0.00    +0.000 A 
BRANCH   2   8
ATOM      8  O   UNL     1      47.366   8.414  12.855  0.00  0.00    +0.000 OA
BRANCH   8   9
ATOM      9  C   UNL     1      48.524   8.242  13.680  0.00  0.00    +0.000 C 
BRANCH   9  10
ATOM     10  C   UNL     1      48.229   8.756  15.100  0.00  0.00    +0.000 C 
BRANCH  10  12
ATOM     11  C   UNL     1      48.547   8.525  17.478  0.00  0.00    +0.000 C 
ATOM     12  N   UNL     1      49.020   8.093  16.159  0.00  0.00    +0.000 NA
ATOM     13  C   UNL     1      48.958   6.632  16.074  0.00  0.00    +0.000 C 
ENDBRANCH  10  12
ENDBRANCH   9  10
ENDBRANCH   8   9
ENDBRANCH   2   8
ENDBRANCH   1   5
BRANCH   1  14
ATOM     14  O   UNL     1      43.538   3.965  10.596  0.00  0.00    +0.000 OA
BRANCH  14  15
ATOM     15  C   UNL     1      44.453   3.612   9.639  0.00  0.00    +0.000 A 
ATOM     16  C   UNL     1      45.137   4.483   8.791  0.00  0.00    +0.000 A 
ATOM     17  C   UNL     1      46.058   3.982   7.860  0.00  0.00    +0.000 A 
ATOM     18  C   UNL     1      46.315   2.607   7.773  0.00  0.00    +0.000 A 
ATOM     19  C   UNL     1      45.639   1.734   8.631  0.00  0.00    +0.000 A 
ATOM     20  C   UNL     1      44.708   2.240   9.549  0.00  0.00    +0.000 A 
BRANCH  18  21
ATOM     21  C   UNL     1      47.279   2.137   6.746  0.00  0.00    +0.000 C 
ATOM     22  N   UNL     1      47.509   2.929   5.658  0.00  0.00    +0.000 N 
ATOM     23  O   UNL     1      47.849   1.052   6.856  0.00  0.00    +0.000 OA
ATOM     24  H   UNL     1      47.062   3.820   5.490  0.00  0.00    +0.000 HD
ATOM     25  H   UNL     1      48.163   2.582   4.966  0.00  0.00    +0.000 HD
ENDBRANCH  18  21
ENDBRANCH  14  15
ENDBRANCH   1  14
TORSDOF 8
ENDMDL
MODEL 5
REMARK VINA RESULT:    -6.348      1.846      8.828
REMARK INTER + INTRA:         -10.184
REMARK INTER:                  -9.585
REMARK INTRA:                  -0.600
REMARK UNBOUND:                -0.868
REMARK  Name = 
REMARK  10 active torsions:
REMARK  status: ('A' for Active; 'I' for Inactive)
REMARK    1  A    between atoms: C_1  and  N_2
REMARK    2  A    between atoms: N_2  and  C_3
REMARK    3  A    between atoms: N_2  and  C_4
REMARK    4  A    between atoms: C_4  and  C_5
REMARK    5  A    between atoms: C_5  and  O_6
REMARK    6  A    between atoms: O_6  and  C_7
REMARK    7  A    between atoms: C_10  and  C_11
REMARK    8  A    between atoms: C_11  and  O_12
REMARK    9  A    between atoms: O_12  and  C_13
REMARK   10  A    between atoms: C_16  and  C_17
REMARK                            x       y       z     vdW  Elec       q    Type
REMARK                         _______ _______ _______ _____ _____    ______ ____
ROOT
ATOM      1  C   UNL     1      45.954   4.685  14.042  0.00  0.00    +0.000 C 
ENDROOT
BRANCH   1   5
ATOM      2  C   UNL     1      45.039   4.441   9.812  0.00  0.00    +0.000 A 
ATOM      3  C   UNL     1      44.850   3.332  10.641  0.00  0.00    +0.000 A 
ATOM      4  C   UNL     1      45.159   3.402  12.005  0.00  0.00    +0.000 A 
ATOM      5  C   UNL     1      45.665   4.584  12.562  0.00  0.00    +0.000 A 
ATOM      6  C   UNL     1      45.888   5.679  11.718  0.00  0.00    +0.000 A 
ATOM      7  C   UNL     1      45.578   5.606  10.356  0.00  0.00    +0.000 A 
BRANCH   2   8
ATOM      8  O   UNL     1      44.765   4.477   8.470  0.00  0.00    +0.000 OA
BRANCH   8   9
ATOM      9  C   UNL     1      45.290   3.377   7.717  0.00  0.00    +0.000 C 
BRANCH   9  10
ATOM     10  C   UNL     1      46.741   3.678   7.304  0.00  0.00    +0.000 C 
BRANCH  10  12
ATOM     11  C   UNL     1      46.878   1.287   7.573  0.00  0.00    +0.000 C 
ATOM     12  N   UNL     1      47.555   2.473   7.038  0.00  0.00    +0.000 NA
ATOM     13  C   UNL     1      47.823   2.280   5.612  0.00  0.00    +0.000 C 
ENDBRANCH  10  12
ENDBRANCH   9  10
ENDBRANCH   8   9
ENDBRANCH   2   8
ENDBRANCH   1   5
BRANCH   1  14
ATOM     14  O   UNL     1      46.988   3.768  14.399  0.00  0.00    +0.000 OA
BRANCH  14  15
ATOM     15  C   UNL     1      47.503   3.880  15.663  0.00  0.00    +0.000 A 
ATOM     16  C   UNL     1      47.679   2.840  16.577  0.00  0.00    +0.000 A 
ATOM     17  C   UNL     1      48.231   3.099  17.841  0.00  0.00    +0.000 A 
ATOM     18  C   UNL     1      48.625   4.395  18.200  0.00  0.00    +0.000 A 
ATOM     19  C   UNL     1      48.461   5.435  17.280  0.00  0.00    +0.000 A 
ATOM     20  C   UNL     1      47.894   5.173  16.025  0.00  0.00    +0.000 A 
BRANCH  18  21
ATOM     21  C   UNL     1      49.174   4.608  19.563  0.00  0.00    +0.000 C 
ATOM     22  N   UNL     1      48.634   3.904  20.600  0.00  0.00    +0.000 N 
ATOM     23  O   UNL     1      50.085   5.411  19.765  0.00  0.00    +0.000 OA
ATOM     24  H   UNL     1      47.872   3.245  20.514  0.00  0.00    +0.000 HD
ATOM     25  H   UNL     1      49.019   4.075  21.522  0.00  0.00    +0.000 HD
ENDBRANCH  18  21
ENDBRANCH  14  15
ENDBRANCH   1  14
TORSDOF 8
ENDMDL
MODEL 6
REMARK VINA RESULT:    -6.175      2.370      2.803
REMARK INTER + INTRA:          -9.931
REMARK INTER:                  -9.342
REMARK INTRA:                  -0.589
REMARK UNBOUND:                -0.868
REMARK  Name = 
REMARK  10 active torsions:
REMARK  status: ('A' for Active; 'I' for Inactive)
REMARK    1  A    between atoms: C_1  and  N_2
REMARK    2  A    between atoms: N_2  and  C_3
REMARK    3  A    between atoms: N_2  and  C_4
REMARK    4  A    between atoms: C_4  and  C_5
REMARK    5  A    between atoms: C_5  and  O_6
REMARK    6  A    between atoms: O_6  and  C_7
REMARK    7  A    between atoms: C_10  and  C_11
REMARK    8  A    between atoms: C_11  and  O_12
REMARK    9  A    between atoms: O_12  and  C_13
REMARK   10  A    between atoms: C_16  and  C_17
REMARK                            x       y       z     vdW  Elec       q    Type
REMARK                         _______ _______ _______ _____ _____    ______ ____
ROOT
ATOM      1  C   UNL     1      44.743   3.500  11.966  0.00  0.00    +0.000 C 
ENDROOT
BRANCH   1   5
ATOM      2  C   UNL     1      47.303   6.570  13.641  0.00  0.00    +0.000 A 
ATOM      3  C   UNL     1      47.339   5.268  14.146  0.00  0.00    +0.000 A 
ATOM      4  C   UNL     1      46.502   4.277  13.618  0.00  0.00    +0.000 A 
ATOM      5  C   UNL     1      45.614   4.574  12.576  0.00  0.00    +0.000 A 
ATOM      6  C   UNL     1      45.555   5.891  12.103  0.00  0.00    +0.000 A 
ATOM      7  C   UNL     1      46.393   6.879  12.631  0.00  0.00    +0.000 A 
BRANCH   2   8
ATOM      8  O   UNL     1      48.080   7.608  14.085  0.00  0.00    +0.000 OA
BRANCH   8   9
ATOM      9  C   UNL     1      49.453   7.549  13.682  0.00  0.00    +0.000 C 
BRANCH   9  10
ATOM     10  C   UNL     1      50.350   7.390  14.921  0.00  0.00    +0.000 C 
BRANCH  10  12
ATOM     11  C   UNL     1      51.574   9.451  15.169  0.00  0.00    +0.000 C 
ATOM     12  N   UNL     1      51.674   8.036  14.796  0.00  0.00    +0.000 NA
ATOM     13  C   UNL     1      52.696   7.387  15.619  0.00  0.00    +0.000 C 
ENDBRANCH  10  12
ENDBRANCH   9  10
ENDBRANCH   8   9
ENDBRANCH   2   8
ENDBRANCH   1   5
BRANCH   1  14
ATOM     14  O   UNL     1      44.215   3.953  10.719  0.00  0.00    +0.000 OA
BRANCH  14  15
ATOM     15  C   UNL     1      44.969   3.705   9.602  0.00  0.00    +0.000 A 
ATOM     16  C   UNL     1      45.554   4.662   8.773  0.00  0.00    +0.000 A 
ATOM     17  C   UNL     1      46.312   4.263   7.662  0.00  0.00    +0.000 A 
ATOM     18  C   UNL     1      46.505   2.905   7.376  0.00  0.00    +0.000 A 
ATOM     19  C   UNL     1      45.931   1.945   8.214  0.00  0.00    +0.000 A 
ATOM     20  C   UNL     1      45.161   2.350   9.314  0.00  0.00    +0.000 A 
BRANCH  18  21
ATOM     21  C   UNL     1      47.294   2.548   6.169  0.00  0.00    +0.000 C 
ATOM     22  N   UNL     1      48.580   2.123   6.335  0.00  0.00    +0.000 N 
ATOM     23  O   UNL     1      46.812   2.646   5.041  0.00  0.00    +0.000 OA
ATOM     24  H   UNL     1      49.049   2.039   7.226  0.00  0.00    +0.000 HD
ATOM     25  H   UNL     1      49.101   1.896   5.495  0.00  0.00    +0.000 HD
ENDBRANCH  18  21
ENDBRANCH  14  15
ENDBRANCH   1  14
TORSDOF 8
ENDMDL
MODEL 7
REMARK VINA RESULT:    -5.716      2.263      8.932
REMARK INTER + INTRA:          -9.257
REMARK INTER:                  -8.536
REMARK INTRA:                  -0.721
REMARK UNBOUND:                -0.868
REMARK  Name = 
REMARK  10 active torsions:
REMARK  status: ('A' for Active; 'I' for Inactive)
REMARK    1  A    between atoms: C_1  and  N_2
REMARK    2  A    between atoms: N_2  and  C_3
REMARK    3  A    between atoms: N_2  and  C_4
REMARK    4  A    between atoms: C_4  and  C_5
REMARK    5  A    between atoms: C_5  and  O_6
REMARK    6  A    between atoms: O_6  and  C_7
REMARK    7  A    between atoms: C_10  and  C_11
REMARK    8  A    between atoms: C_11  and  O_12
REMARK    9  A    between atoms: O_12  and  C_13
REMARK   10  A    between atoms: C_16  and  C_17
REMARK                            x       y       z     vdW  Elec       q    Type
REMARK                         _______ _______ _______ _____ _____    ______ ____
ROOT
ATOM      1  C   UNL     1      47.847   6.853  14.006  0.00  0.00    +0.000 C 
ENDROOT
BRANCH   1   5
ATOM      2  C   UNL     1      45.162   5.001  11.152  0.00  0.00    +0.000 A 
ATOM      3  C   UNL     1      45.959   6.083  10.772  0.00  0.00    +0.000 A 
ATOM      4  C   UNL     1      46.817   6.694  11.695  0.00  0.00    +0.000 A 
ATOM      5  C   UNL     1      46.888   6.233  13.016  0.00  0.00    +0.000 A 
ATOM      6  C   UNL     1      46.056   5.173  13.400  0.00  0.00    +0.000 A 
ATOM      7  C   UNL     1      45.202   4.564  12.475  0.00  0.00    +0.000 A 
BRANCH   2   8
ATOM      8  O   UNL     1      44.295   4.333  10.327  0.00  0.00    +0.000 OA
BRANCH   8   9
ATOM      9  C   UNL     1      44.457   2.910  10.306  0.00  0.00    +0.000 C 
BRANCH   9  10
ATOM     10  C   UNL     1      44.639   2.431   8.855  0.00  0.00    +0.000 C 
BRANCH  10  12
ATOM     11  C   UNL     1      46.483   1.227   7.875  0.00  0.00    +0.000 C 
ATOM     12  N   UNL     1      46.027   2.535   8.356  0.00  0.00    +0.000 NA
ATOM     13  C   UNL     1      46.165   3.524   7.284  0.00  0.00    +0.000 C 
ENDBRANCH  10  12
ENDBRANCH   9  10
ENDBRANCH   8   9
ENDBRANCH   2   8
ENDBRANCH   1   5
BRANCH   1  14
ATOM     14  O   UNL     1      48.571   5.829  14.687  0.00  0.00    +0.000 OA
BRANCH  14  15
ATOM     15  C   UNL     1      48.509   5.835  16.056  0.00  0.00    +0.000 A 
ATOM     16  C   UNL     1      49.029   6.815  16.901  0.00  0.00    +0.000 A 
ATOM     17  C   UNL     1      48.884   6.696  18.291  0.00  0.00    +0.000 A 
ATOM     18  C   UNL     1      48.207   5.605  18.852  0.00  0.00    +0.000 A 
ATOM     19  C   UNL     1      47.673   4.628  18.005  0.00  0.00    +0.000 A 
ATOM     20  C   UNL     1      47.836   4.744  16.617  0.00  0.00    +0.000 A 
BRANCH  18  21
ATOM     21  C   UNL     1      48.113   5.522  20.331  0.00  0.00    +0.000 C 
ATOM     22  N   UNL     1      46.881   5.621  20.911  0.00  0.00    +0.000 N 
ATOM     23  O   UNL     1      49.117   5.383  21.027  0.00  0.00    +0.000 OA
ATOM     24  H   UNL     1      46.016   5.757  20.406  0.00  0.00    +0.000 HD
ATOM     25  H   UNL     1      46.843   5.573  21.923  0.00  0.00    +0.000 HD
ENDBRANCH  18  21
ENDBRANCH  14  15
ENDBRANCH   1  14
TORSDOF 8
ENDMDL
MODEL 8
REMARK VINA RESULT:    -5.562      3.720      7.563
REMARK INTER + INTRA:          -9.030
REMARK INTER:                  -8.320
REMARK INTRA:                  -0.710
REMARK UNBOUND:                -0.868
REMARK  Name = 
REMARK  10 active torsions:
REMARK  status: ('A' for Active; 'I' for Inactive)
REMARK    1  A    between atoms: C_1  and  N_2
REMARK    2  A    between atoms: N_2  and  C_3
REMARK    3  A    between atoms: N_2  and  C_4
REMARK    4  A    between atoms: C_4  and  C_5
REMARK    5  A    between atoms: C_5  and  O_6
REMARK    6  A    between atoms: O_6  and  C_7
REMARK    7  A    between atoms: C_10  and  C_11
REMARK    8  A    between atoms: C_11  and  O_12
REMARK    9  A    between atoms: O_12  and  C_13
REMARK   10  A    between atoms: C_16  and  C_17
REMARK                            x       y       z     vdW  Elec       q    Type
REMARK                         _______ _______ _______ _____ _____    ______ ____
ROOT
ATOM      1  C   UNL     1      46.410   7.540  13.068  0.00  0.00    +0.000 C 
ENDROOT
BRANCH   1   5
ATOM      2  C   UNL     1      44.804   3.947  11.251  0.00  0.00    +0.000 A 
ATOM      3  C   UNL     1      45.128   3.967  12.610  0.00  0.00    +0.000 A 
ATOM      4  C   UNL     1      45.662   5.121  13.197  0.00  0.00    +0.000 A 
ATOM      5  C   UNL     1      45.882   6.274  12.432  0.00  0.00    +0.000 A 
ATOM      6  C   UNL     1      45.591   6.234  11.063  0.00  0.00    +0.000 A 
ATOM      7  C   UNL     1      45.057   5.080  10.479  0.00  0.00    +0.000 A 
BRANCH   2   8
ATOM      8  O   UNL     1      44.275   2.874  10.583  0.00  0.00    +0.000 OA
BRANCH   8   9
ATOM      9  C   UNL     1      44.479   2.885   9.165  0.00  0.00    +0.000 C 
BRANCH   9  10
ATOM     10  C   UNL     1      45.472   1.776   8.777  0.00  0.00    +0.000 C 
BRANCH  10  12
ATOM     11  C   UNL     1      47.135   1.118   7.161  0.00  0.00    +0.000 C 
ATOM     12  N   UNL     1      46.596   2.241   7.936  0.00  0.00    +0.000 NA
ATOM     13  C   UNL     1      46.207   3.319   7.025  0.00  0.00    +0.000 C 
ENDBRANCH  10  12
ENDBRANCH   9  10
ENDBRANCH   8   9
ENDBRANCH   2   8
ENDBRANCH   1   5
BRANCH   1  14
ATOM     14  O   UNL     1      46.787   8.472  12.054  0.00  0.00    +0.000 OA
BRANCH  14  15
ATOM     15  C   UNL     1      48.127   8.601  11.801  0.00  0.00    +0.000 A 
ATOM     16  C   UNL     1      49.053   7.561  11.710  0.00  0.00    +0.000 A 
ATOM     17  C   UNL     1      50.400   7.840  11.434  0.00  0.00    +0.000 A 
ATOM     18  C   UNL     1      50.834   9.157  11.235  0.00  0.00    +0.000 A 
ATOM     19  C   UNL     1      49.904  10.199  11.312  0.00  0.00    +0.000 A 
ATOM     20  C   UNL     1      48.562   9.915  11.604  0.00  0.00    +0.000 A 
BRANCH  18  21
ATOM     21  C   UNL     1      52.278   9.388  10.976  0.00  0.00    +0.000 C 
ATOM     22  N   UNL     1      52.879  10.468  11.558  0.00  0.00    +0.000 N 
ATOM     23  O   UNL     1      52.922   8.639  10.243  0.00  0.00    +0.000 OA
ATOM     24  H   UNL     1      52.409  11.137  12.153  0.00  0.00    +0.000 HD
ATOM     25  H   UNL     1      53.862  10.610  11.357  0.00  0.00    +0.000 HD
ENDBRANCH  18  21
ENDBRANCH  14  15
ENDBRANCH   1  14
TORSDOF 8
ENDMDL
MODEL 9
REMARK VINA RESULT:    -5.475      3.224      8.840
REMARK INTER + INTRA:          -8.903
REMARK INTER:                  -8.189
REMARK INTRA:                  -0.714
REMARK UNBOUND:                -0.868
REMARK  Name = 
REMARK  10 active torsions:
REMARK  status: ('A' for Active; 'I' for Inactive)
REMARK    1  A    between atoms: C_1  and  N_2
REMARK    2  A    between atoms: N_2  and  C_3
REMARK    3  A    between atoms: N_2  and  C_4
REMARK    4  A    between atoms: C_4  and  C_5
REMARK    5  A    between atoms: C_5  and  O_6
REMARK    6  A    between atoms: O_6  and  C_7
REMARK    7  A    between atoms: C_10  and  C_11
REMARK    8  A    between atoms: C_11  and  O_12
REMARK    9  A    between atoms: O_12  and  C_13
REMARK   10  A    between atoms: C_16  and  C_17
REMARK                            x       y       z     vdW  Elec       q    Type
REMARK                         _______ _______ _______ _____ _____    ______ ____
ROOT
ATOM      1  C   UNL     1      48.769   4.857  17.753  0.00  0.00    +0.000 C 
ENDROOT
BRANCH   1   5
ATOM      2  C   UNL     1      47.288   5.656  13.759  0.00  0.00    +0.000 A 
ATOM      3  C   UNL     1      48.183   6.538  14.370  0.00  0.00    +0.000 A 
ATOM      4  C   UNL     1      48.652   6.291  15.666  0.00  0.00    +0.000 A 
ATOM      5  C   UNL     1      48.230   5.158  16.373  0.00  0.00    +0.000 A 
ATOM      6  C   UNL     1      47.302   4.300  15.770  0.00  0.00    +0.000 A 
ATOM      7  C   UNL     1      46.836   4.548  14.474  0.00  0.00    +0.000 A 
BRANCH   2   8
ATOM      8  O   UNL     1      46.774   5.804  12.497  0.00  0.00    +0.000 OA
BRANCH   8   9
ATOM      9  C   UNL     1      45.396   5.439  12.360  0.00  0.00    +0.000 C 
BRANCH   9  10
ATOM     10  C   UNL     1      45.187   4.697  11.028  0.00  0.00    +0.000 C 
BRANCH  10  12
ATOM     11  C   UNL     1      43.624   3.227  12.128  0.00  0.00    +0.000 C 
ATOM     12  N   UNL     1      44.744   3.294  11.182  0.00  0.00    +0.000 NA
ATOM     13  C   UNL     1      44.344   2.690   9.910  0.00  0.00    +0.000 C 
ENDBRANCH  10  12
ENDBRANCH   9  10
ENDBRANCH   8   9
ENDBRANCH   2   8
ENDBRANCH   1   5
BRANCH   1  14
ATOM     14  O   UNL     1      50.194   4.937  17.746  0.00  0.00    +0.000 OA
BRANCH  14  15
ATOM     15  C   UNL     1      50.880   3.751  17.733  0.00  0.00    +0.000 A 
ATOM     16  C   UNL     1      50.367   2.506  17.369  0.00  0.00    +0.000 A 
ATOM     17  C   UNL     1      51.190   1.370  17.393  0.00  0.00    +0.000 A 
ATOM     18  C   UNL     1      52.537   1.468  17.767  0.00  0.00    +0.000 A 
ATOM     19  C   UNL     1      53.056   2.718  18.119  0.00  0.00    +0.000 A 
ATOM     20  C   UNL     1      52.224   3.847  18.108  0.00  0.00    +0.000 A 
BRANCH  18  21
ATOM     21  C   UNL     1      53.347   0.224  17.801  0.00  0.00    +0.000 C 
ATOM     22  N   UNL     1      53.873  -0.242  16.630  0.00  0.00    +0.000 N 
ATOM     23  O   UNL     1      53.533  -0.388  18.852  0.00  0.00    +0.000 OA
ATOM     24  H   UNL     1      53.744   0.195  15.727  0.00  0.00    +0.000 HD
ATOM     25  H   UNL     1      54.413  -1.098  16.677  0.00  0.00    +0.000 HD
ENDBRANCH  18  21
ENDBRANCH  14  15
ENDBRANCH   1  14
TORSDOF 8
ENDMDL
