MODEL 1
REMARK VINA RESULT:    -8.596      0.000      0.000
REMARK INTER + INTRA:         -11.710
REMARK INTER:                 -11.108
REMARK INTRA:                  -0.602
REMARK UNBOUND:                -0.602
REMARK  Name = 
REMARK  5 active torsions:
REMARK  status: ('A' for Active; 'I' for Inactive)
REMARK    1  A    between atoms: C_2  and  C_4
REMARK    2  A    between atoms: C_7  and  S_8
REMARK    3  A    between atoms: S_8  and  C_9
REMARK    4  A    between atoms: C_9  and  C_10
REMARK    5  A    between atoms: C_14  and  C_15
REMARK                            x       y       z     vdW  Elec       q    Type
REMARK                         _______ _______ _______ _____ _____    ______ ____
ROOT
ATOM      1  C   UNL     1      44.039   4.319  11.906  0.00  0.00    +0.000 C 
ENDROOT
BRANCH   1   2
ATOM      2  C   UNL     1      45.296   4.879  12.527  0.00  0.00    +0.000 A 
ATOM      3  C   UNL     1      45.901   6.026  12.000  0.00  0.00    +0.000 A 
ATOM      4  C   UNL     1      47.038   6.559  12.601  0.00  0.00    +0.000 A 
ATOM      5  C   UNL     1      47.570   5.958  13.744  0.00  0.00    +0.000 A 
ATOM      6  C   UNL     1      46.988   4.809  14.310  0.00  0.00    +0.000 A 
ATOM      7  C   UNL     1      45.850   4.280  13.673  0.00  0.00    +0.000 A 
BRANCH   6   8
ATOM      8  C   UNL     1      47.524   4.227  15.554  0.00  0.00    +0.000 A 
ATOM      9  C   UNL     1      47.634   4.932  16.753  0.00  0.00    +0.000 A 
ATOM     10  N   UNL     1      48.190   4.415  17.880  0.00  0.00    +0.000 NA
ATOM     11  C   UNL     1      48.638   3.147  17.767  0.00  0.00    +0.000 A 
ATOM     12  C   UNL     1      48.521   2.425  16.592  0.00  0.00    +0.000 A 
ATOM     13  N   UNL     1      47.961   2.941  15.475  0.00  0.00    +0.000 NA
ENDBRANCH   6   8
ENDBRANCH   1   2
BRANCH   1  14
ATOM     14  S   UNL     1      43.736   5.041  10.258  0.00  0.00    +0.000 S 
BRANCH  14  18
ATOM     15  C   UNL     1      46.476   2.459   7.732  0.00  0.00    +0.000 A 
ATOM     16  C   UNL     1      45.673   1.852   8.696  0.00  0.00    +0.000 A 
ATOM     17  C   UNL     1      44.831   2.646   9.480  0.00  0.00    +0.000 A 
ATOM     18  C   UNL     1      44.814   4.024   9.274  0.00  0.00    +0.000 A 
ATOM     19  N   UNL     1      45.595   4.626   8.351  0.00  0.00    +0.000 NA
ATOM     20  C   UNL     1      46.412   3.838   7.609  0.00  0.00    +0.000 A 
BRANCH  15  22
ATOM     21  N   UNL     1      48.518   2.381   6.413  0.00  0.00    +0.000 N 
ATOM     22  C   UNL     1      47.406   1.721   6.854  0.00  0.00    +0.000 C 
ATOM     23  O   UNL     1      47.209   0.549   6.561  0.00  0.00    +0.000 OA
ATOM     24  H   UNL     1      49.194   1.822   5.906  0.00  0.00    +0.000 HD
ATOM     25  H   UNL     1      48.843   3.243   6.824  0.00  0.00    +0.000 HD
ENDBRANCH  15  22
ENDBRANCH  14  18
ENDBRANCH   1  14
TORSDOF 5
ENDMDL
MODEL 2
REMARK VINA RESULT:    -7.843      2.160      2.830
REMARK INTER + INTRA:         -10.738
REMARK INTER:                 -10.073
REMARK INTRA:                  -0.665
REMARK UNBOUND:                -0.602
REMARK  Name = 
REMARK  5 active torsions:
REMARK  status: ('A' for Active; 'I' for Inactive)
REMARK    1  A    between atoms: C_2  and  C_4
REMARK    2  A    between atoms: C_7  and  S_8
REMARK    3  A    between atoms: S_8  and  C_9
REMARK    4  A    between atoms: C_9  and  C_10
REMARK    5  A    between atoms: C_14  and  C_15
REMARK                            x       y       z     vdW  Elec       q    Type
REMARK                         _______ _______ _______ _____ _____    ______ ____
ROOT
ATOM      1  C   UNL     1      45.005   3.662  12.216  0.00  0.00    +0.000 C 
ENDROOT
BRANCH   1   2
ATOM      2  C   UNL     1      45.485   5.089  12.333  0.00  0.00    +0.000 A 
ATOM      3  C   UNL     1      44.698   6.145  11.862  0.00  0.00    +0.000 A 
ATOM      4  C   UNL     1      45.129   7.461  12.009  0.00  0.00    +0.000 A 
ATOM      5  C   UNL     1      46.344   7.731  12.643  0.00  0.00    +0.000 A 
ATOM      6  C   UNL     1      47.160   6.698  13.138  0.00  0.00    +0.000 A 
ATOM      7  C   UNL     1      46.710   5.377  12.961  0.00  0.00    +0.000 A 
BRANCH   6   8
ATOM      8  C   UNL     1      48.407   7.005  13.862  0.00  0.00    +0.000 A 
ATOM      9  C   UNL     1      49.455   7.750  13.319  0.00  0.00    +0.000 A 
ATOM     10  N   UNL     1      50.630   7.974  13.963  0.00  0.00    +0.000 NA
ATOM     11  C   UNL     1      50.724   7.421  15.190  0.00  0.00    +0.000 A 
ATOM     12  C   UNL     1      49.690   6.695  15.754  0.00  0.00    +0.000 A 
ATOM     13  N   UNL     1      48.519   6.480  15.113  0.00  0.00    +0.000 NA
ENDBRANCH   6   8
ENDBRANCH   1   2
BRANCH   1  14
ATOM     14  S   UNL     1      43.799   3.478  10.860  0.00  0.00    +0.000 S 
BRANCH  14  18
ATOM     15  C   UNL     1      46.636   2.711   7.408  0.00  0.00    +0.000 A 
ATOM     16  C   UNL     1      46.231   4.018   7.673  0.00  0.00    +0.000 A 
ATOM     17  C   UNL     1      45.352   4.256   8.734  0.00  0.00    +0.000 A 
ATOM     18  C   UNL     1      44.908   3.182   9.500  0.00  0.00    +0.000 A 
ATOM     19  N   UNL     1      45.284   1.909   9.247  0.00  0.00    +0.000 NA
ATOM     20  C   UNL     1      46.129   1.699   8.208  0.00  0.00    +0.000 A 
BRANCH  15  22
ATOM     21  N   UNL     1      47.556   3.130   5.196  0.00  0.00    +0.000 N 
ATOM     22  C   UNL     1      47.556   2.342   6.312  0.00  0.00    +0.000 C 
ATOM     23  O   UNL     1      48.317   1.389   6.414  0.00  0.00    +0.000 OA
ATOM     24  H   UNL     1      48.271   2.924   4.508  0.00  0.00    +0.000 HD
ATOM     25  H   UNL     1      47.140   4.048   5.173  0.00  0.00    +0.000 HD
ENDBRANCH  15  22
ENDBRANCH  14  18
ENDBRANCH   1  14
TORSDOF 5
ENDMDL
MODEL 3
REMARK VINA RESULT:    -7.699      2.621      4.130
REMARK INTER + INTRA:         -10.551
REMARK INTER:                  -9.743
REMARK INTRA:                  -0.808
REMARK UNBOUND:                -0.602
REMARK  Name = 
REMARK  5 active torsions:
REMARK  status: ('A' for Active; 'I' for Inactive)
REMARK    1  A    between atoms: C_2  and  C_4
REMARK    2  A    between atoms: C_7  and  S_8
REMARK    3  A    between atoms: S_8  and  C_9
REMARK    4  A    between atoms: C_9  and  C_10
REMARK    5  A    between atoms: C_14  and  C_15
REMARK                            x       y       z     vdW  Elec       q    Type
REMARK                         _______ _______ _______ _____ _____    ______ ____
ROOT
ATOM      1  C   UNL     1      43.804   4.052  12.089  0.00  0.00    +0.000 C 
ENDROOT
BRANCH   1   2
ATOM      2  C   UNL     1      45.091   4.644  12.612  0.00  0.00    +0.000 A 
ATOM      3  C   UNL     1      45.978   3.867  13.364  0.00  0.00    +0.000 A 
ATOM      4  C   UNL     1      47.180   4.408  13.811  0.00  0.00    +0.000 A 
ATOM      5  C   UNL     1      47.513   5.727  13.493  0.00  0.00    +0.000 A 
ATOM      6  C   UNL     1      46.653   6.540  12.732  0.00  0.00    +0.000 A 
ATOM      7  C   UNL     1      45.436   5.974  12.308  0.00  0.00    +0.000 A 
BRANCH   6   8
ATOM      8  C   UNL     1      47.049   7.908  12.351  0.00  0.00    +0.000 A 
ATOM      9  C   UNL     1      48.345   8.261  11.973  0.00  0.00    +0.000 A 
ATOM     10  N   UNL     1      48.724   9.534  11.687  0.00  0.00    +0.000 NA
ATOM     11  C   UNL     1      47.746  10.458  11.792  0.00  0.00    +0.000 A 
ATOM     12  C   UNL     1      46.451  10.125  12.147  0.00  0.00    +0.000 A 
ATOM     13  N   UNL     1      46.076   8.856  12.424  0.00  0.00    +0.000 NA
ENDBRANCH   6   8
ENDBRANCH   1   2
BRANCH   1  14
ATOM     14  S   UNL     1      43.396   4.711  10.437  0.00  0.00    +0.000 S 
BRANCH  14  18
ATOM     15  C   UNL     1      46.352   2.363   7.927  0.00  0.00    +0.000 A 
ATOM     16  C   UNL     1      46.348   3.755   7.843  0.00  0.00    +0.000 A 
ATOM     17  C   UNL     1      45.434   4.481   8.612  0.00  0.00    +0.000 A 
ATOM     18  C   UNL     1      44.554   3.795   9.445  0.00  0.00    +0.000 A 
ATOM     19  N   UNL     1      44.540   2.446   9.528  0.00  0.00    +0.000 NA
ATOM     20  C   UNL     1      45.428   1.761   8.766  0.00  0.00    +0.000 A 
BRANCH  15  22
ATOM     21  N   UNL     1      48.279   2.102   6.466  0.00  0.00    +0.000 N 
ATOM     22  C   UNL     1      47.268   1.497   7.158  0.00  0.00    +0.000 C 
ATOM     23  O   UNL     1      47.151   0.279   7.170  0.00  0.00    +0.000 OA
ATOM     24  H   UNL     1      48.958   1.483   6.040  0.00  0.00    +0.000 HD
ATOM     25  H   UNL     1      48.560   3.058   6.629  0.00  0.00    +0.000 HD
ENDBRANCH  15  22
ENDBRANCH  14  18
ENDBRANCH   1  14
TORSDOF 5
ENDMDL
MODEL 4
REMARK VINA RESULT:    -7.696      3.330      5.761
REMARK INTER + INTRA:         -10.548
REMARK INTER:                  -9.898
REMARK INTRA:                  -0.649
REMARK UNBOUND:                -0.602
REMARK  Name = 
REMARK  5 active torsions:
REMARK  status: ('A' for Active; 'I' for Inactive)
REMARK    1  A    between atoms: C_2  and  C_4
REMARK    2  A    between atoms: C_7  and  S_8
REMARK    3  A    between atoms: S_8  and  C_9
REMARK    4  A    between atoms: C_9  and  C_10
REMARK    5  A    between atoms: C_14  and  C_15
REMARK                            x       y       z     vdW  Elec       q    Type
REMARK                         _______ _______ _______ _____ _____    ______ ____
ROOT
ATOM      1  C   UNL     1      44.800   4.650  12.079  0.00  0.00    +0.000 C 
ENDROOT
BRANCH   1   2
ATOM      2  C   UNL     1      45.221   6.090  12.248  0.00  0.00    +0.000 A 
ATOM      3  C   UNL     1      46.350   6.418  13.007  0.00  0.00    +0.000 A 
ATOM      4  C   UNL     1      46.754   7.745  13.127  0.00  0.00    +0.000 A 
ATOM      5  C   UNL     1      46.042   8.753  12.473  0.00  0.00    +0.000 A 
ATOM      6  C   UNL     1      44.907   8.465  11.693  0.00  0.00    +0.000 A 
ATOM      7  C   UNL     1      44.509   7.118  11.603  0.00  0.00    +0.000 A 
BRANCH   6   8
ATOM      8  C   UNL     1      44.207   9.534  10.958  0.00  0.00    +0.000 A 
ATOM      9  C   UNL     1      42.843   9.504  10.662  0.00  0.00    +0.000 A 
ATOM     10  N   UNL     1      42.213  10.456   9.926  0.00  0.00    +0.000 NA
ATOM     11  C   UNL     1      43.004  11.458   9.490  0.00  0.00    +0.000 A 
ATOM     12  C   UNL     1      44.354  11.516   9.788  0.00  0.00    +0.000 A 
ATOM     13  N   UNL     1      44.977  10.570  10.527  0.00  0.00    +0.000 NA
ENDBRANCH   6   8
ENDBRANCH   1   2
BRANCH   1  14
ATOM     14  S   UNL     1      43.675   4.451  10.656  0.00  0.00    +0.000 S 
BRANCH  14  18
ATOM     15  C   UNL     1      46.516   2.519   7.698  0.00  0.00    +0.000 A 
ATOM     16  C   UNL     1      46.368   3.905   7.687  0.00  0.00    +0.000 A 
ATOM     17  C   UNL     1      45.489   4.503   8.595  0.00  0.00    +0.000 A 
ATOM     18  C   UNL     1      44.787   3.698   9.489  0.00  0.00    +0.000 A 
ATOM     19  N   UNL     1      44.913   2.352   9.502  0.00  0.00    +0.000 NA
ATOM     20  C   UNL     1      45.764   1.793   8.607  0.00  0.00    +0.000 A 
BRANCH  15  22
ATOM     21  N   UNL     1      48.527   2.429   6.332  0.00  0.00    +0.000 N 
ATOM     22  C   UNL     1      47.411   1.782   6.783  0.00  0.00    +0.000 C 
ATOM     23  O   UNL     1      47.183   0.622   6.468  0.00  0.00    +0.000 OA
ATOM     24  H   UNL     1      49.180   1.869   5.798  0.00  0.00    +0.000 HD
ATOM     25  H   UNL     1      48.878   3.275   6.755  0.00  0.00    +0.000 HD
ENDBRANCH  15  22
ENDBRANCH  14  18
ENDBRANCH   1  14
TORSDOF 5
ENDMDL
MODEL 5
REMARK VINA RESULT:    -7.370      2.876      7.591
REMARK INTER + INTRA:         -10.126
REMARK INTER:                  -9.636
REMARK INTRA:                  -0.490
REMARK UNBOUND:                -0.602
REMARK  Name = 
REMARK  5 active torsions:
REMARK  status: ('A' for Active; 'I' for Inactive)
REMARK    1  A    between atoms: C_2  and  C_4
REMARK    2  A    between atoms: C_7  and  S_8
REMARK    3  A    between atoms: S_8  and  C_9
REMARK    4  A    between atoms: C_9  and  C_10
REMARK    5  A    between atoms: C_14  and  C_15
REMARK                            x       y       z     vdW  Elec       q    Type
REMARK                         _______ _______ _______ _____ _____    ______ ____
ROOT
ATOM      1  C   UNL     1      45.953   7.491  12.204  0.00  0.00    +0.000 C 
ENDROOT
BRANCH   1   2
ATOM      2  C   UNL     1      45.125   6.406  11.557  0.00  0.00    +0.000 A 
ATOM      3  C   UNL     1      43.763   6.279  11.852  0.00  0.00    +0.000 A 
ATOM      4  C   UNL     1      42.997   5.301  11.223  0.00  0.00    +0.000 A 
ATOM      5  C   UNL     1      43.584   4.453  10.281  0.00  0.00    +0.000 A 
ATOM      6  C   UNL     1      44.948   4.553   9.950  0.00  0.00    +0.000 A 
ATOM      7  C   UNL     1      45.704   5.538  10.613  0.00  0.00    +0.000 A 
BRANCH   6   8
ATOM      8  C   UNL     1      45.535   3.694   8.906  0.00  0.00    +0.000 A 
ATOM      9  C   UNL     1      45.529   2.299   8.958  0.00  0.00    +0.000 A 
ATOM     10  N   UNL     1      46.130   1.511   8.030  0.00  0.00    +0.000 NA
ATOM     11  C   UNL     1      46.746   2.173   7.029  0.00  0.00    +0.000 A 
ATOM     12  C   UNL     1      46.748   3.555   6.950  0.00  0.00    +0.000 A 
ATOM     13  N   UNL     1      46.143   4.337   7.872  0.00  0.00    +0.000 NA
ENDBRANCH   6   8
ENDBRANCH   1   2
BRANCH   1  14
ATOM     14  S   UNL     1      47.715   7.023  12.278  0.00  0.00    +0.000 S 
BRANCH  14  18
ATOM     15  C   UNL     1      47.658   4.421  15.990  0.00  0.00    +0.000 A 
ATOM     16  C   UNL     1      48.238   5.686  16.060  0.00  0.00    +0.000 A 
ATOM     17  C   UNL     1      48.261   6.488  14.915  0.00  0.00    +0.000 A 
ATOM     18  C   UNL     1      47.701   6.003  13.736  0.00  0.00    +0.000 A 
ATOM     19  N   UNL     1      47.146   4.774  13.653  0.00  0.00    +0.000 NA
ATOM     20  C   UNL     1      47.143   4.009  14.772  0.00  0.00    +0.000 A 
BRANCH  15  22
ATOM     21  N   UNL     1      48.713   3.312  17.881  0.00  0.00    +0.000 N 
ATOM     22  C   UNL     1      47.583   3.488  17.133  0.00  0.00    +0.000 C 
ATOM     23  O   UNL     1      46.538   2.922  17.425  0.00  0.00    +0.000 OA
ATOM     24  H   UNL     1      48.607   2.757  18.721  0.00  0.00    +0.000 HD
ATOM     25  H   UNL     1      49.506   3.934  17.832  0.00  0.00    +0.000 HD
ENDBRANCH  15  22
ENDBRANCH  14  18
ENDBRANCH   1  14
TORSDOF 5
ENDMDL
MODEL 6
REMARK VINA RESULT:    -6.915      3.018      8.049
REMARK INTER + INTRA:          -9.539
REMARK INTER:                  -8.963
REMARK INTRA:                  -0.576
REMARK UNBOUND:                -0.602
REMARK  Name = 
REMARK  5 active torsions:
REMARK  status: ('A' for Active; 'I' for Inactive)
REMARK    1  A    between atoms: C_2  and  C_4
REMARK    2  A    between atoms: C_7  and  S_8
REMARK    3  A    between atoms: S_8  and  C_9
REMARK    4  A    between atoms: C_9  and  C_10
REMARK    5  A    between atoms: C_14  and  C_15
REMARK                            x       y       z     vdW  Elec       q    Type
REMARK                         _______ _______ _______ _____ _____    ______ ____
ROOT
ATOM      1  C   UNL     1      45.268   6.137  12.613  0.00  0.00    +0.000 C 
ENDROOT
BRANCH   1   2
ATOM      2  C   UNL     1      44.823   4.885  11.894  0.00  0.00    +0.000 A 
ATOM      3  C   UNL     1      43.740   4.138  12.370  0.00  0.00    +0.000 A 
ATOM      4  C   UNL     1      43.312   3.007  11.680  0.00  0.00    +0.000 A 
ATOM      5  C   UNL     1      43.954   2.624  10.500  0.00  0.00    +0.000 A 
ATOM      6  C   UNL     1      45.041   3.352   9.984  0.00  0.00    +0.000 A 
ATOM      7  C   UNL     1      45.466   4.481  10.710  0.00  0.00    +0.000 A 
BRANCH   6   8
ATOM      8  C   UNL     1      45.664   2.971   8.704  0.00  0.00    +0.000 A 
ATOM      9  C   UNL     1      46.037   1.665   8.383  0.00  0.00    +0.000 A 
ATOM     10  N   UNL     1      46.672   1.327   7.231  0.00  0.00    +0.000 NA
ATOM     11  C   UNL     1      46.924   2.354   6.394  0.00  0.00    +0.000 A 
ATOM     12  C   UNL     1      46.545   3.653   6.685  0.00  0.00    +0.000 A 
ATOM     13  N   UNL     1      45.907   3.985   7.830  0.00  0.00    +0.000 NA
ENDBRANCH   6   8
ENDBRANCH   1   2
BRANCH   1  14
ATOM     14  S   UNL     1      47.082   6.322  12.559  0.00  0.00    +0.000 S 
BRANCH  14  18
ATOM     15  C   UNL     1      48.174   4.743  16.666  0.00  0.00    +0.000 A 
ATOM     16  C   UNL     1      47.241   4.047  15.900  0.00  0.00    +0.000 A 
ATOM     17  C   UNL     1      46.898   4.535  14.635  0.00  0.00    +0.000 A 
ATOM     18  C   UNL     1      47.503   5.701  14.172  0.00  0.00    +0.000 A 
ATOM     19  N   UNL     1      48.401   6.391  14.909  0.00  0.00    +0.000 NA
ATOM     20  C   UNL     1      48.710   5.906  16.137  0.00  0.00    +0.000 A 
BRANCH  15  22
ATOM     21  N   UNL     1      47.734   4.523  19.048  0.00  0.00    +0.000 N 
ATOM     22  C   UNL     1      48.606   4.324  18.014  0.00  0.00    +0.000 C 
ATOM     23  O   UNL     1      49.688   3.783  18.196  0.00  0.00    +0.000 OA
ATOM     24  H   UNL     1      48.005   4.127  19.940  0.00  0.00    +0.000 HD
ATOM     25  H   UNL     1      46.756   4.728  18.908  0.00  0.00    +0.000 HD
ENDBRANCH  15  22
ENDBRANCH  14  18
ENDBRANCH   1  14
TORSDOF 5
ENDMDL
MODEL 7
REMARK VINA RESULT:    -6.625      3.000      4.143
REMARK INTER + INTRA:          -9.163
REMARK INTER:                  -8.446
REMARK INTRA:                  -0.717
REMARK UNBOUND:                -0.602
REMARK  Name = 
REMARK  5 active torsions:
REMARK  status: ('A' for Active; 'I' for Inactive)
REMARK    1  A    between atoms: C_2  and  C_4
REMARK    2  A    between atoms: C_7  and  S_8
REMARK    3  A    between atoms: S_8  and  C_9
REMARK    4  A    between atoms: C_9  and  C_10
REMARK    5  A    between atoms: C_14  and  C_15
REMARK                            x       y       z     vdW  Elec       q    Type
REMARK                         _______ _______ _______ _____ _____    ______ ____
ROOT
ATOM      1  C   UNL     1      47.760   8.135  12.593  0.00  0.00    +0.000 C 
ENDROOT
BRANCH   1   2
ATOM      2  C   UNL     1      48.426   7.783  13.902  0.00  0.00    +0.000 A 
ATOM      3  C   UNL     1      49.266   8.700  14.542  0.00  0.00    +0.000 A 
ATOM      4  C   UNL     1      49.846   8.383  15.768  0.00  0.00    +0.000 A 
ATOM      5  C   UNL     1      49.577   7.152  16.370  0.00  0.00    +0.000 A 
ATOM      6  C   UNL     1      48.733   6.205  15.763  0.00  0.00    +0.000 A 
ATOM      7  C   UNL     1      48.173   6.543  14.516  0.00  0.00    +0.000 A 
BRANCH   6   8
ATOM      8  C   UNL     1      48.408   4.938  16.443  0.00  0.00    +0.000 A 
ATOM      9  C   UNL     1      47.112   4.432  16.558  0.00  0.00    +0.000 A 
ATOM     10  N   UNL     1      46.807   3.299  17.243  0.00  0.00    +0.000 NA
ATOM     11  C   UNL     1      47.858   2.677  17.816  0.00  0.00    +0.000 A 
ATOM     12  C   UNL     1      49.152   3.152  17.697  0.00  0.00    +0.000 A 
ATOM     13  N   UNL     1      49.453   4.276  17.009  0.00  0.00    +0.000 NA
ENDBRANCH   6   8
ENDBRANCH   1   2
BRANCH   1  14
ATOM     14  S   UNL     1      45.963   8.366  12.806  0.00  0.00    +0.000 S 
BRANCH  14  18
ATOM     15  C   UNL     1      44.484   4.328  11.370  0.00  0.00    +0.000 A 
ATOM     16  C   UNL     1      45.334   5.067  10.550  0.00  0.00    +0.000 A 
ATOM     17  C   UNL     1      45.788   6.315  10.988  0.00  0.00    +0.000 A 
ATOM     18  C   UNL     1      45.381   6.785  12.235  0.00  0.00    +0.000 A 
ATOM     19  N   UNL     1      44.547   6.083  13.034  0.00  0.00    +0.000 NA
ATOM     20  C   UNL     1      44.111   4.880  12.585  0.00  0.00    +0.000 A 
BRANCH  15  22
ATOM     21  N   UNL     1      44.596   2.294  10.041  0.00  0.00    +0.000 N 
ATOM     22  C   UNL     1      43.940   3.003  11.007  0.00  0.00    +0.000 C 
ATOM     23  O   UNL     1      42.960   2.540  11.575  0.00  0.00    +0.000 OA
ATOM     24  H   UNL     1      44.272   1.346   9.889  0.00  0.00    +0.000 HD
ATOM     25  H   UNL     1      45.530   2.521   9.733  0.00  0.00    +0.000 HD
ENDBRANCH  15  22
ENDBRANCH  14  18
ENDBRANCH   1  14
TORSDOF 5
ENDMDL
MODEL 8
REMARK VINA RESULT:    -6.406      4.184      8.069
REMARK INTER + INTRA:          -8.881
REMARK INTER:                  -8.331
REMARK INTRA:                  -0.550
REMARK UNBOUND:                -0.602
REMARK  Name = 
REMARK  5 active torsions:
REMARK  status: ('A' for Active; 'I' for Inactive)
REMARK    1  A    between atoms: C_2  and  C_4
REMARK    2  A    between atoms: C_7  and  S_8
REMARK    3  A    between atoms: S_8  and  C_9
REMARK    4  A    between atoms: C_9  and  C_10
REMARK    5  A    between atoms: C_14  and  C_15
REMARK                            x       y       z     vdW  Elec       q    Type
REMARK                         _______ _______ _______ _____ _____    ______ ____
ROOT
ATOM      1  C   UNL     1      49.543   6.928  15.379  0.00  0.00    +0.000 C 
ENDROOT
BRANCH   1   2
ATOM      2  C   UNL     1      48.806   7.010  14.064  0.00  0.00    +0.000 A 
ATOM      3  C   UNL     1      49.274   7.837  13.036  0.00  0.00    +0.000 A 
ATOM      4  C   UNL     1      48.611   7.878  11.813  0.00  0.00    +0.000 A 
ATOM      5  C   UNL     1      47.484   7.080  11.601  0.00  0.00    +0.000 A 
ATOM      6  C   UNL     1      46.987   6.229  12.605  0.00  0.00    +0.000 A 
ATOM      7  C   UNL     1      47.665   6.219  13.839  0.00  0.00    +0.000 A 
BRANCH   6   8
ATOM      8  C   UNL     1      45.836   5.346  12.343  0.00  0.00    +0.000 A 
ATOM      9  C   UNL     1      45.241   4.542  13.316  0.00  0.00    +0.000 A 
ATOM     10  N   UNL     1      44.224   3.678  13.058  0.00  0.00    +0.000 NA
ATOM     11  C   UNL     1      43.815   3.645  11.773  0.00  0.00    +0.000 A 
ATOM     12  C   UNL     1      44.379   4.448  10.798  0.00  0.00    +0.000 A 
ATOM     13  N   UNL     1      45.386   5.311  11.060  0.00  0.00    +0.000 NA
ENDBRANCH   6   8
ENDBRANCH   1   2
BRANCH   1  14
ATOM     14  S   UNL     1      48.569   6.024  16.629  0.00  0.00    +0.000 S 
BRANCH  14  18
ATOM     15  C   UNL     1      51.464   2.688  17.647  0.00  0.00    +0.000 A 
ATOM     16  C   UNL     1      51.914   4.007  17.680  0.00  0.00    +0.000 A 
ATOM     17  C   UNL     1      51.024   5.037  17.361  0.00  0.00    +0.000 A 
ATOM     18  C   UNL     1      49.711   4.718  17.024  0.00  0.00    +0.000 A 
ATOM     19  N   UNL     1      49.266   3.443  16.978  0.00  0.00    +0.000 NA
ATOM     20  C   UNL     1      50.148   2.459  17.280  0.00  0.00    +0.000 A 
BRANCH  15  22
ATOM     21  N   UNL     1      51.717   0.295  18.006  0.00  0.00    +0.000 N 
ATOM     22  C   UNL     1      52.316   1.522  17.960  0.00  0.00    +0.000 C 
ATOM     23  O   UNL     1      53.522   1.643  18.133  0.00  0.00    +0.000 OA
ATOM     24  H   UNL     1      52.337  -0.498  18.110  0.00  0.00    +0.000 HD
ATOM     25  H   UNL     1      50.797   0.120  17.629  0.00  0.00    +0.000 HD
ENDBRANCH  15  22
ENDBRANCH  14  18
ENDBRANCH   1  14
TORSDOF 5
ENDMDL
MODEL 9
REMARK VINA RESULT:    -6.310      3.463      7.574
REMARK INTER + INTRA:          -8.757
REMARK INTER:                  -8.305
REMARK INTRA:                  -0.452
REMARK UNBOUND:                -0.602
REMARK  Name = 
REMARK  5 active torsions:
REMARK  status: ('A' for Active; 'I' for Inactive)
REMARK    1  A    between atoms: C_2  and  C_4
REMARK    2  A    between atoms: C_7  and  S_8
REMARK    3  A    between atoms: S_8  and  C_9
REMARK    4  A    between atoms: C_9  and  C_10
REMARK    5  A    between atoms: C_14  and  C_15
REMARK                            x       y       z     vdW  Elec       q    Type
REMARK                         _______ _______ _______ _____ _____    ______ ____
ROOT
ATOM      1  C   UNL     1      47.360   8.549  13.938  0.00  0.00    +0.000 C 
ENDROOT
BRANCH   1   2
ATOM      2  C   UNL     1      46.248   8.279  12.952  0.00  0.00    +0.000 A 
ATOM      3  C   UNL     1      45.504   9.334  12.413  0.00  0.00    +0.000 A 
ATOM      4  C   UNL     1      44.506   9.080  11.476  0.00  0.00    +0.000 A 
ATOM      5  C   UNL     1      44.256   7.771  11.058  0.00  0.00    +0.000 A 
ATOM      6  C   UNL     1      44.987   6.684  11.570  0.00  0.00    +0.000 A 
ATOM      7  C   UNL     1      45.978   6.965  12.529  0.00  0.00    +0.000 A 
BRANCH   6   8
ATOM      8  C   UNL     1      44.755   5.316  11.070  0.00  0.00    +0.000 A 
ATOM      9  C   UNL     1      45.217   4.855   9.836  0.00  0.00    +0.000 A 
ATOM     10  N   UNL     1      44.945   3.617   9.348  0.00  0.00    +0.000 NA
ATOM     11  C   UNL     1      44.185   2.841  10.148  0.00  0.00    +0.000 A 
ATOM     12  C   UNL     1      43.733   3.273  11.383  0.00  0.00    +0.000 A 
ATOM     13  N   UNL     1      44.012   4.504  11.869  0.00  0.00    +0.000 NA
ENDBRANCH   6   8
ENDBRANCH   1   2
BRANCH   1  14
ATOM     14  S   UNL     1      48.768   7.418  13.673  0.00  0.00    +0.000 S 
BRANCH  14  18
ATOM     15  C   UNL     1      47.920   4.366  16.916  0.00  0.00    +0.000 A 
ATOM     16  C   UNL     1      48.700   5.480  17.223  0.00  0.00    +0.000 A 
ATOM     17  C   UNL     1      48.967   6.420  16.223  0.00  0.00    +0.000 A 
ATOM     18  C   UNL     1      48.443   6.221  14.948  0.00  0.00    +0.000 A 
ATOM     19  N   UNL     1      47.695   5.139  14.635  0.00  0.00    +0.000 NA
ATOM     20  C   UNL     1      47.457   4.235  15.617  0.00  0.00    +0.000 A 
BRANCH  15  22
ATOM     21  N   UNL     1      48.333   3.230  19.027  0.00  0.00    +0.000 N 
ATOM     22  C   UNL     1      47.580   3.309  17.890  0.00  0.00    +0.000 C 
ATOM     23  O   UNL     1      46.634   2.554  17.705  0.00  0.00    +0.000 OA
ATOM     24  H   UNL     1      48.012   2.573  19.728  0.00  0.00    +0.000 HD
ATOM     25  H   UNL     1      48.945   3.973  19.332  0.00  0.00    +0.000 HD
ENDBRANCH  15  22
ENDBRANCH  14  18
ENDBRANCH   1  14
TORSDOF 5
ENDMDL
