MODEL 1
REMARK VINA RESULT:    -7.591      0.000      0.000
REMARK INTER + INTRA:         -10.476
REMARK INTER:                  -9.810
REMARK INTRA:                  -0.666
REMARK UNBOUND:                -0.666
REMARK  Name = 
REMARK  6 active torsions:
REMARK  status: ('A' for Active; 'I' for Inactive)
REMARK    1  A    between atoms: C_1  and  C_2
REMARK    2  A    between atoms: C_2  and  C_3
REMARK    3  A    between atoms: C_2  and  C_14
REMARK    4  A    between atoms: C_3  and  N_4
REMARK    5  A    between atoms: N_4  and  C_5
REMARK    6  A    between atoms: C_8  and  C_9
REMARK                            x       y       z     vdW  Elec       q    Type
REMARK                         _______ _______ _______ _____ _____    ______ ____
ROOT
ATOM      1  N   UNL     1      43.843   4.918   9.881  0.00  0.00    +0.000 N 
ATOM      2  H   UNL     1      44.056   5.857   9.543  0.00  0.00    +0.000 HD
ENDROOT
BRANCH   1   3
ATOM      3  C   UNL     1      44.663   3.964   9.262  0.00  0.00    +0.000 A 
ATOM      4  C   UNL     1      45.606   4.371   8.313  0.00  0.00    +0.000 A 
ATOM      5  C   UNL     1      46.413   3.432   7.667  0.00  0.00    +0.000 A 
ATOM      6  C   UNL     1      46.224   2.091   7.970  0.00  0.00    +0.000 A 
ATOM      7  N   UNL     1      45.281   1.636   8.835  0.00  0.00    +0.000 NA
ATOM      8  C   UNL     1      44.520   2.583   9.432  0.00  0.00    +0.000 A 
BRANCH   6   9
ATOM      9  C   UNL     1      47.092   1.049   7.342  0.00  0.00    +0.000 C 
ATOM     10  N   UNL     1      46.783  -0.245   7.675  0.00  0.00    +0.000 N 
ATOM     11  O   UNL     1      48.023   1.320   6.593  0.00  0.00    +0.000 OA
ATOM     12  H   UNL     1      46.007  -0.416   8.307  0.00  0.00    +0.000 HD
ATOM     13  H   UNL     1      47.333  -1.003   7.309  0.00  0.00    +0.000 HD
ENDBRANCH   6   9
ENDBRANCH   1   3
BRANCH   1  14
ATOM     14  C   UNL     1      43.780   4.887  11.340  0.00  0.00    +0.000 C 
BRANCH  14  16
ATOM     15  C   UNL     1      45.719   3.954  12.748  0.00  0.00    +0.000 C 
ATOM     16  C   UNL     1      45.179   5.029  11.858  0.00  0.00    +0.000 C 
BRANCH  16  17
ATOM     17  C   UNL     1      45.757   6.378  11.906  0.00  0.00    +0.000 A 
ATOM     18  C   UNL     1      44.943   7.508  12.041  0.00  0.00    +0.000 A 
ATOM     19  C   UNL     1      45.511   8.774  12.193  0.00  0.00    +0.000 A 
ATOM     20  C   UNL     1      46.898   8.917  12.213  0.00  0.00    +0.000 A 
ATOM     21  C   UNL     1      47.716   7.801  12.054  0.00  0.00    +0.000 A 
ATOM     22  C   UNL     1      47.147   6.540  11.890  0.00  0.00    +0.000 A 
ENDBRANCH  16  17
ENDBRANCH  14  16
ENDBRANCH   1  14
TORSDOF 5
ENDMDL
MODEL 2
REMARK VINA RESULT:    -7.567      1.511      2.081
REMARK INTER + INTRA:         -10.445
REMARK INTER:                  -9.610
REMARK INTRA:                  -0.835
REMARK UNBOUND:                -0.666
REMARK  Name = 
REMARK  6 active torsions:
REMARK  status: ('A' for Active; 'I' for Inactive)
REMARK    1  A    between atoms: C_1  and  C_2
REMARK    2  A    between atoms: C_2  and  C_3
REMARK    3  A    between atoms: C_2  and  C_14
REMARK    4  A    between atoms: C_3  and  N_4
REMARK    5  A    between atoms: N_4  and  C_5
REMARK    6  A    between atoms: C_8  and  C_9
REMARK                            x       y       z     vdW  Elec       q    Type
REMARK                         _______ _______ _______ _____ _____    ______ ____
ROOT
ATOM      1  N   UNL     1      43.665   3.282  10.532  0.00  0.00    +0.000 N 
ATOM      2  H   UNL     1      43.115   4.122  10.349  0.00  0.00    +0.000 HD
ENDROOT
BRANCH   1   3
ATOM      3  C   UNL     1      44.621   3.079   9.526  0.00  0.00    +0.000 A 
ATOM      4  C   UNL     1      45.017   4.151   8.720  0.00  0.00    +0.000 A 
ATOM      5  C   UNL     1      45.946   3.962   7.696  0.00  0.00    +0.000 A 
ATOM      6  C   UNL     1      46.433   2.679   7.484  0.00  0.00    +0.000 A 
ATOM      7  N   UNL     1      46.035   1.592   8.195  0.00  0.00    +0.000 NA
ATOM      8  C   UNL     1      45.129   1.824   9.173  0.00  0.00    +0.000 A 
BRANCH   6   9
ATOM      9  C   UNL     1      47.465   2.430   6.432  0.00  0.00    +0.000 C 
ATOM     10  N   UNL     1      47.392   3.254   5.338  0.00  0.00    +0.000 N 
ATOM     11  O   UNL     1      48.311   1.549   6.524  0.00  0.00    +0.000 OA
ATOM     12  H   UNL     1      46.666   3.963   5.306  0.00  0.00    +0.000 HD
ATOM     13  H   UNL     1      48.039   3.137   4.577  0.00  0.00    +0.000 HD
ENDBRANCH   6   9
ENDBRANCH   1   3
BRANCH   1  14
ATOM     14  C   UNL     1      44.146   3.259  11.912  0.00  0.00    +0.000 C 
BRANCH  14  16
ATOM     15  C   UNL     1      42.849   5.450  12.277  0.00  0.00    +0.000 C 
ATOM     16  C   UNL     1      44.116   4.666  12.427  0.00  0.00    +0.000 C 
BRANCH  16  17
ATOM     17  C   UNL     1      45.396   5.367  12.579  0.00  0.00    +0.000 A 
ATOM     18  C   UNL     1      46.261   5.067  13.638  0.00  0.00    +0.000 A 
ATOM     19  C   UNL     1      47.521   5.663  13.711  0.00  0.00    +0.000 A 
ATOM     20  C   UNL     1      47.925   6.562  12.724  0.00  0.00    +0.000 A 
ATOM     21  C   UNL     1      47.061   6.886  11.681  0.00  0.00    +0.000 A 
ATOM     22  C   UNL     1      45.799   6.299  11.616  0.00  0.00    +0.000 A 
ENDBRANCH  16  17
ENDBRANCH  14  16
ENDBRANCH   1  14
TORSDOF 5
ENDMDL
MODEL 3
REMARK VINA RESULT:    -7.385      3.277      6.593
REMARK INTER + INTRA:         -10.210
REMARK INTER:                  -9.840
REMARK INTRA:                  -0.370
REMARK UNBOUND:                -0.666
REMARK  Name = 
REMARK  6 active torsions:
REMARK  status: ('A' for Active; 'I' for Inactive)
REMARK    1  A    between atoms: C_1  and  C_2
REMARK    2  A    between atoms: C_2  and  C_3
REMARK    3  A    between atoms: C_2  and  C_14
REMARK    4  A    between atoms: C_3  and  N_4
REMARK    5  A    between atoms: N_4  and  C_5
REMARK    6  A    between atoms: C_8  and  C_9
REMARK                            x       y       z     vdW  Elec       q    Type
REMARK                         _______ _______ _______ _____ _____    ______ ____
ROOT
ATOM      1  N   UNL     1      45.277   5.841  10.488  0.00  0.00    +0.000 N 
ATOM      2  H   UNL     1      44.287   5.606  10.410  0.00  0.00    +0.000 HD
ENDROOT
BRANCH   1   3
ATOM      3  C   UNL     1      45.771   5.517  11.760  0.00  0.00    +0.000 A 
ATOM      4  C   UNL     1      46.805   6.276  12.316  0.00  0.00    +0.000 A 
ATOM      5  C   UNL     1      47.327   5.951  13.569  0.00  0.00    +0.000 A 
ATOM      6  C   UNL     1      46.815   4.838  14.222  0.00  0.00    +0.000 A 
ATOM      7  N   UNL     1      45.856   4.030  13.700  0.00  0.00    +0.000 NA
ATOM      8  C   UNL     1      45.385   4.382  12.481  0.00  0.00    +0.000 A 
BRANCH   6   9
ATOM      9  C   UNL     1      47.306   4.474  15.586  0.00  0.00    +0.000 C 
ATOM     10  N   UNL     1      47.892   5.497  16.287  0.00  0.00    +0.000 N 
ATOM     11  O   UNL     1      47.209   3.343  16.049  0.00  0.00    +0.000 OA
ATOM     12  H   UNL     1      47.956   6.413  15.854  0.00  0.00    +0.000 HD
ATOM     13  H   UNL     1      48.266   5.327  17.205  0.00  0.00    +0.000 HD
ENDBRANCH   6   9
ENDBRANCH   1   3
BRANCH   1  14
ATOM     14  C   UNL     1      46.028   5.338   9.340  0.00  0.00    +0.000 C 
BRANCH  14  16
ATOM     15  C   UNL     1      43.882   3.921   9.303  0.00  0.00    +0.000 C 
ATOM     16  C   UNL     1      45.217   4.246   8.710  0.00  0.00    +0.000 C 
BRANCH  16  17
ATOM     17  C   UNL     1      45.927   3.241   7.911  0.00  0.00    +0.000 A 
ATOM     18  C   UNL     1      46.584   3.593   6.726  0.00  0.00    +0.000 A 
ATOM     19  C   UNL     1      47.344   2.650   6.033  0.00  0.00    +0.000 A 
ATOM     20  C   UNL     1      47.454   1.349   6.520  0.00  0.00    +0.000 A 
ATOM     21  C   UNL     1      46.783   0.982   7.685  0.00  0.00    +0.000 A 
ATOM     22  C   UNL     1      46.015   1.922   8.369  0.00  0.00    +0.000 A 
ENDBRANCH  16  17
ENDBRANCH  14  16
ENDBRANCH   1  14
TORSDOF 5
ENDMDL
MODEL 4
REMARK VINA RESULT:    -7.193      3.258      6.565
REMARK INTER + INTRA:          -9.962
REMARK INTER:                  -9.603
REMARK INTRA:                  -0.359
REMARK UNBOUND:                -0.666
REMARK  Name = 
REMARK  6 active torsions:
REMARK  status: ('A' for Active; 'I' for Inactive)
REMARK    1  A    between atoms: C_1  and  C_2
REMARK    2  A    between atoms: C_2  and  C_3
REMARK    3  A    between atoms: C_2  and  C_14
REMARK    4  A    between atoms: C_3  and  N_4
REMARK    5  A    between atoms: N_4  and  C_5
REMARK    6  A    between atoms: C_8  and  C_9
REMARK                            x       y       z     vdW  Elec       q    Type
REMARK                         _______ _______ _______ _____ _____    ______ ____
ROOT
ATOM      1  N   UNL     1      44.527   5.219  10.583  0.00  0.00    +0.000 N 
ATOM      2  H   UNL     1      43.730   4.592  10.694  0.00  0.00    +0.000 HD
ENDROOT
BRANCH   1   3
ATOM      3  C   UNL     1      45.307   5.251  11.748  0.00  0.00    +0.000 A 
ATOM      4  C   UNL     1      46.438   6.071  11.803  0.00  0.00    +0.000 A 
ATOM      5  C   UNL     1      47.241   6.095  12.944  0.00  0.00    +0.000 A 
ATOM      6  C   UNL     1      46.903   5.258  13.999  0.00  0.00    +0.000 A 
ATOM      7  N   UNL     1      45.853   4.396  13.974  0.00  0.00    +0.000 NA
ATOM      8  C   UNL     1      45.107   4.405  12.844  0.00  0.00    +0.000 A 
BRANCH   6   9
ATOM      9  C   UNL     1      47.701   5.278  15.262  0.00  0.00    +0.000 C 
ATOM     10  N   UNL     1      47.148   4.592  16.313  0.00  0.00    +0.000 N 
ATOM     11  O   UNL     1      48.768   5.872  15.366  0.00  0.00    +0.000 OA
ATOM     12  H   UNL     1      46.258   4.124  16.177  0.00  0.00    +0.000 HD
ATOM     13  H   UNL     1      47.615   4.575  17.203  0.00  0.00    +0.000 HD
ENDBRANCH   6   9
ENDBRANCH   1   3
BRANCH   1  14
ATOM     14  C   UNL     1      45.228   4.960   9.327  0.00  0.00    +0.000 C 
BRANCH  14  16
ATOM     15  C   UNL     1      44.153   2.689   9.877  0.00  0.00    +0.000 C 
ATOM     16  C   UNL     1      44.969   3.533   8.948  0.00  0.00    +0.000 C 
BRANCH  16  17
ATOM     17  C   UNL     1      45.895   2.896   8.004  0.00  0.00    +0.000 A 
ATOM     18  C   UNL     1      46.297   1.567   8.175  0.00  0.00    +0.000 A 
ATOM     19  C   UNL     1      47.092   0.941   7.213  0.00  0.00    +0.000 A 
ATOM     20  C   UNL     1      47.487   1.640   6.072  0.00  0.00    +0.000 A 
ATOM     21  C   UNL     1      47.112   2.971   5.907  0.00  0.00    +0.000 A 
ATOM     22  C   UNL     1      46.329   3.598   6.874  0.00  0.00    +0.000 A 
ENDBRANCH  16  17
ENDBRANCH  14  16
ENDBRANCH   1  14
TORSDOF 5
ENDMDL
MODEL 5
REMARK VINA RESULT:    -7.154      3.296      5.974
REMARK INTER + INTRA:          -9.911
REMARK INTER:                  -9.022
REMARK INTRA:                  -0.889
REMARK UNBOUND:                -0.666
REMARK  Name = 
REMARK  6 active torsions:
REMARK  status: ('A' for Active; 'I' for Inactive)
REMARK    1  A    between atoms: C_1  and  C_2
REMARK    2  A    between atoms: C_2  and  C_3
REMARK    3  A    between atoms: C_2  and  C_14
REMARK    4  A    between atoms: C_3  and  N_4
REMARK    5  A    between atoms: N_4  and  C_5
REMARK    6  A    between atoms: C_8  and  C_9
REMARK                            x       y       z     vdW  Elec       q    Type
REMARK                         _______ _______ _______ _____ _____    ______ ____
ROOT
ATOM      1  N   UNL     1      43.701   5.319  12.171  0.00  0.00    +0.000 N 
ATOM      2  H   UNL     1      43.395   4.557  12.776  0.00  0.00    +0.000 HD
ENDROOT
BRANCH   1   3
ATOM      3  C   UNL     1      45.019   5.697  12.469  0.00  0.00    +0.000 A 
ATOM      4  C   UNL     1      45.662   6.652  11.676  0.00  0.00    +0.000 A 
ATOM      5  C   UNL     1      46.982   7.020  11.941  0.00  0.00    +0.000 A 
ATOM      6  C   UNL     1      47.640   6.386  12.987  0.00  0.00    +0.000 A 
ATOM      7  N   UNL     1      47.084   5.408  13.748  0.00  0.00    +0.000 NA
ATOM      8  C   UNL     1      45.805   5.081  13.449  0.00  0.00    +0.000 A 
BRANCH   6   9
ATOM      9  C   UNL     1      49.038   6.776  13.343  0.00  0.00    +0.000 C 
ATOM     10  N   UNL     1      49.836   7.118  12.281  0.00  0.00    +0.000 N 
ATOM     11  O   UNL     1      49.455   6.782  14.495  0.00  0.00    +0.000 OA
ATOM     12  H   UNL     1      49.444   7.088  11.345  0.00  0.00    +0.000 HD
ATOM     13  H   UNL     1      50.796   7.373  12.436  0.00  0.00    +0.000 HD
ENDBRANCH   6   9
ENDBRANCH   1   3
BRANCH   1  14
ATOM     14  C   UNL     1      43.398   5.033  10.771  0.00  0.00    +0.000 C 
BRANCH  14  16
ATOM     15  C   UNL     1      43.459   2.595  11.584  0.00  0.00    +0.000 C 
ATOM     16  C   UNL     1      43.748   3.600  10.513  0.00  0.00    +0.000 C 
BRANCH  16  17
ATOM     17  C   UNL     1      44.774   3.316   9.503  0.00  0.00    +0.000 A 
ATOM     18  C   UNL     1      45.167   2.003   9.222  0.00  0.00    +0.000 A 
ATOM     19  C   UNL     1      46.064   1.740   8.185  0.00  0.00    +0.000 A 
ATOM     20  C   UNL     1      46.573   2.790   7.421  0.00  0.00    +0.000 A 
ATOM     21  C   UNL     1      46.207   4.102   7.710  0.00  0.00    +0.000 A 
ATOM     22  C   UNL     1      45.321   4.364   8.753  0.00  0.00    +0.000 A 
ENDBRANCH  16  17
ENDBRANCH  14  16
ENDBRANCH   1  14
TORSDOF 5
ENDMDL
MODEL 6
REMARK VINA RESULT:    -6.735      3.353      6.138
REMARK INTER + INTRA:          -9.370
REMARK INTER:                  -8.628
REMARK INTRA:                  -0.742
REMARK UNBOUND:                -0.666
REMARK  Name = 
REMARK  6 active torsions:
REMARK  status: ('A' for Active; 'I' for Inactive)
REMARK    1  A    between atoms: C_1  and  C_2
REMARK    2  A    between atoms: C_2  and  C_3
REMARK    3  A    between atoms: C_2  and  C_14
REMARK    4  A    between atoms: C_3  and  N_4
REMARK    5  A    between atoms: N_4  and  C_5
REMARK    6  A    between atoms: C_8  and  C_9
REMARK                            x       y       z     vdW  Elec       q    Type
REMARK                         _______ _______ _______ _____ _____    ______ ____
ROOT
ATOM      1  N   UNL     1      44.113   5.323  12.259  0.00  0.00    +0.000 N 
ATOM      2  H   UNL     1      43.915   4.488  12.811  0.00  0.00    +0.000 HD
ENDROOT
BRANCH   1   3
ATOM      3  C   UNL     1      45.434   5.752  12.457  0.00  0.00    +0.000 A 
ATOM      4  C   UNL     1      46.141   5.323  13.584  0.00  0.00    +0.000 A 
ATOM      5  C   UNL     1      47.446   5.762  13.811  0.00  0.00    +0.000 A 
ATOM      6  C   UNL     1      48.000   6.658  12.907  0.00  0.00    +0.000 A 
ATOM      7  N   UNL     1      47.337   7.155  11.831  0.00  0.00    +0.000 NA
ATOM      8  C   UNL     1      46.073   6.705  11.656  0.00  0.00    +0.000 A 
BRANCH   6   9
ATOM      9  C   UNL     1      49.411   7.123  13.077  0.00  0.00    +0.000 C 
ATOM     10  N   UNL     1      50.109   7.306  11.911  0.00  0.00    +0.000 N 
ATOM     11  O   UNL     1      49.920   7.318  14.175  0.00  0.00    +0.000 OA
ATOM     12  H   UNL     1      49.643   7.122  11.028  0.00  0.00    +0.000 HD
ATOM     13  H   UNL     1      51.071   7.599  11.942  0.00  0.00    +0.000 HD
ENDBRANCH   6   9
ENDBRANCH   1   3
BRANCH   1  14
ATOM     14  C   UNL     1      43.674   5.154  10.875  0.00  0.00    +0.000 C 
BRANCH  14  16
ATOM     15  C   UNL     1      43.444   2.694  11.588  0.00  0.00    +0.000 C 
ATOM     16  C   UNL     1      43.792   3.700  10.535  0.00  0.00    +0.000 C 
BRANCH  16  17
ATOM     17  C   UNL     1      44.686   3.325   9.432  0.00  0.00    +0.000 A 
ATOM     18  C   UNL     1      45.283   4.299   8.624  0.00  0.00    +0.000 A 
ATOM     19  C   UNL     1      46.212   3.935   7.649  0.00  0.00    +0.000 A 
ATOM     20  C   UNL     1      46.552   2.593   7.476  0.00  0.00    +0.000 A 
ATOM     21  C   UNL     1      45.944   1.615   8.259  0.00  0.00    +0.000 A 
ATOM     22  C   UNL     1      45.007   1.979   9.224  0.00  0.00    +0.000 A 
ENDBRANCH  16  17
ENDBRANCH  14  16
ENDBRANCH   1  14
TORSDOF 5
ENDMDL
MODEL 7
REMARK VINA RESULT:    -6.450      3.742      6.501
REMARK INTER + INTRA:          -9.001
REMARK INTER:                  -8.904
REMARK INTRA:                  -0.097
REMARK UNBOUND:                -0.666
REMARK  Name = 
REMARK  6 active torsions:
REMARK  status: ('A' for Active; 'I' for Inactive)
REMARK    1  A    between atoms: C_1  and  C_2
REMARK    2  A    between atoms: C_2  and  C_3
REMARK    3  A    between atoms: C_2  and  C_14
REMARK    4  A    between atoms: C_3  and  N_4
REMARK    5  A    between atoms: N_4  and  C_5
REMARK    6  A    between atoms: C_8  and  C_9
REMARK                            x       y       z     vdW  Elec       q    Type
REMARK                         _______ _______ _______ _____ _____    ______ ____
ROOT
ATOM      1  N   UNL     1      46.078   5.772  11.311  0.00  0.00    +0.000 N 
ATOM      2  H   UNL     1      46.585   6.562  10.911  0.00  0.00    +0.000 HD
ENDROOT
BRANCH   1   3
ATOM      3  C   UNL     1      46.524   5.495  12.611  0.00  0.00    +0.000 A 
ATOM      4  C   UNL     1      47.439   6.354  13.228  0.00  0.00    +0.000 A 
ATOM      5  C   UNL     1      47.915   6.079  14.510  0.00  0.00    +0.000 A 
ATOM      6  C   UNL     1      47.481   4.916  15.133  0.00  0.00    +0.000 A 
ATOM      7  N   UNL     1      46.643   4.017  14.556  0.00  0.00    +0.000 NA
ATOM      8  C   UNL     1      46.213   4.323  13.310  0.00  0.00    +0.000 A 
BRANCH   6   9
ATOM      9  C   UNL     1      47.923   4.599  16.525  0.00  0.00    +0.000 C 
ATOM     10  N   UNL     1      47.101   5.067  17.519  0.00  0.00    +0.000 N 
ATOM     11  O   UNL     1      48.949   3.976  16.773  0.00  0.00    +0.000 OA
ATOM     12  H   UNL     1      46.268   5.585  17.260  0.00  0.00    +0.000 HD
ATOM     13  H   UNL     1      47.340   4.912  18.483  0.00  0.00    +0.000 HD
ENDBRANCH   6   9
ENDBRANCH   1   3
BRANCH   1  14
ATOM     14  C   UNL     1      44.636   5.927  11.127  0.00  0.00    +0.000 C 
BRANCH  14  16
ATOM     15  C   UNL     1      43.096   3.891  11.435  0.00  0.00    +0.000 C 
ATOM     16  C   UNL     1      44.102   4.628  10.607  0.00  0.00    +0.000 C 
BRANCH  16  17
ATOM     17  C   UNL     1      44.910   3.901   9.620  0.00  0.00    +0.000 A 
ATOM     18  C   UNL     1      44.992   2.504   9.643  0.00  0.00    +0.000 A 
ATOM     19  C   UNL     1      45.676   1.820   8.636  0.00  0.00    +0.000 A 
ATOM     20  C   UNL     1      46.281   2.529   7.599  0.00  0.00    +0.000 A 
ATOM     21  C   UNL     1      46.226   3.921   7.582  0.00  0.00    +0.000 A 
ATOM     22  C   UNL     1      45.553   4.603   8.594  0.00  0.00    +0.000 A 
ENDBRANCH  16  17
ENDBRANCH  14  16
ENDBRANCH   1  14
TORSDOF 5
ENDMDL
MODEL 8
REMARK VINA RESULT:    -6.026      4.524      7.233
REMARK INTER + INTRA:          -8.453
REMARK INTER:                  -7.999
REMARK INTRA:                  -0.454
REMARK UNBOUND:                -0.666
REMARK  Name = 
REMARK  6 active torsions:
REMARK  status: ('A' for Active; 'I' for Inactive)
REMARK    1  A    between atoms: C_1  and  C_2
REMARK    2  A    between atoms: C_2  and  C_3
REMARK    3  A    between atoms: C_2  and  C_14
REMARK    4  A    between atoms: C_3  and  N_4
REMARK    5  A    between atoms: N_4  and  C_5
REMARK    6  A    between atoms: C_8  and  C_9
REMARK                            x       y       z     vdW  Elec       q    Type
REMARK                         _______ _______ _______ _____ _____    ______ ____
ROOT
ATOM      1  N   UNL     1      46.272   5.387  12.428  0.00  0.00    +0.000 N 
ATOM      2  H   UNL     1      45.932   6.330  12.237  0.00  0.00    +0.000 HD
ENDROOT
BRANCH   1   3
ATOM      3  C   UNL     1      46.980   5.344  13.638  0.00  0.00    +0.000 A 
ATOM      4  C   UNL     1      46.669   4.368  14.589  0.00  0.00    +0.000 A 
ATOM      5  C   UNL     1      47.345   4.328  15.810  0.00  0.00    +0.000 A 
ATOM      6  C   UNL     1      48.302   5.302  16.059  0.00  0.00    +0.000 A 
ATOM      7  N   UNL     1      48.599   6.309  15.197  0.00  0.00    +0.000 NA
ATOM      8  C   UNL     1      47.914   6.310  14.030  0.00  0.00    +0.000 A 
BRANCH   6   9
ATOM      9  C   UNL     1      49.088   5.276  17.330  0.00  0.00    +0.000 C 
ATOM     10  N   UNL     1      49.792   6.421  17.603  0.00  0.00    +0.000 N 
ATOM     11  O   UNL     1      49.118   4.304  18.075  0.00  0.00    +0.000 OA
ATOM     12  H   UNL     1      49.741   7.195  16.948  0.00  0.00    +0.000 HD
ATOM     13  H   UNL     1      50.363   6.475  18.429  0.00  0.00    +0.000 HD
ENDBRANCH   6   9
ENDBRANCH   1   3
BRANCH   1  14
ATOM     14  C   UNL     1      45.208   4.400  12.251  0.00  0.00    +0.000 C 
BRANCH  14  16
ATOM     15  C   UNL     1      43.159   5.221  10.933  0.00  0.00    +0.000 C 
ATOM     16  C   UNL     1      44.551   4.672  10.932  0.00  0.00    +0.000 C 
BRANCH  16  17
ATOM     17  C   UNL     1      45.053   3.952   9.756  0.00  0.00    +0.000 A 
ATOM     18  C   UNL     1      45.672   4.635   8.702  0.00  0.00    +0.000 A 
ATOM     19  C   UNL     1      46.241   3.928   7.641  0.00  0.00    +0.000 A 
ATOM     20  C   UNL     1      46.195   2.535   7.626  0.00  0.00    +0.000 A 
ATOM     21  C   UNL     1      45.558   1.849   8.658  0.00  0.00    +0.000 A 
ATOM     22  C   UNL     1      44.981   2.555   9.711  0.00  0.00    +0.000 A 
ENDBRANCH  16  17
ENDBRANCH  14  16
ENDBRANCH   1  14
TORSDOF 5
ENDMDL
MODEL 9
REMARK VINA RESULT:    -5.825      4.053      5.863
REMARK INTER + INTRA:          -8.194
REMARK INTER:                  -7.661
REMARK INTRA:                  -0.532
REMARK UNBOUND:                -0.666
REMARK  Name = 
REMARK  6 active torsions:
REMARK  status: ('A' for Active; 'I' for Inactive)
REMARK    1  A    between atoms: C_1  and  C_2
REMARK    2  A    between atoms: C_2  and  C_3
REMARK    3  A    between atoms: C_2  and  C_14
REMARK    4  A    between atoms: C_3  and  N_4
REMARK    5  A    between atoms: N_4  and  C_5
REMARK    6  A    between atoms: C_8  and  C_9
REMARK                            x       y       z     vdW  Elec       q    Type
REMARK                         _______ _______ _______ _____ _____    ______ ____
ROOT
ATOM      1  N   UNL     1      47.162   7.109  13.808  0.00  0.00    +0.000 N 
ATOM      2  H   UNL     1      47.265   8.064  13.460  0.00  0.00    +0.000 HD
ENDROOT
BRANCH   1   3
ATOM      3  C   UNL     1      46.394   6.335  12.926  0.00  0.00    +0.000 A 
ATOM      4  C   UNL     1      46.451   6.587  11.552  0.00  0.00    +0.000 A 
ATOM      5  C   UNL     1      45.673   5.844  10.663  0.00  0.00    +0.000 A 
ATOM      6  C   UNL     1      44.822   4.880  11.187  0.00  0.00    +0.000 A 
ATOM      7  N   UNL     1      44.682   4.637  12.516  0.00  0.00    +0.000 NA
ATOM      8  C   UNL     1      45.452   5.386  13.339  0.00  0.00    +0.000 A 
BRANCH   6   9
ATOM      9  C   UNL     1      44.003   4.025  10.276  0.00  0.00    +0.000 C 
ATOM     10  N   UNL     1      44.017   4.398   8.956  0.00  0.00    +0.000 N 
ATOM     11  O   UNL     1      43.352   3.064  10.670  0.00  0.00    +0.000 OA
ATOM     12  H   UNL     1      44.566   5.207   8.682  0.00  0.00    +0.000 HD
ATOM     13  H   UNL     1      43.474   3.885   8.283  0.00  0.00    +0.000 HD
ENDBRANCH   6   9
ENDBRANCH   1   3
BRANCH   1  14
ATOM     14  C   UNL     1      48.452   6.558  14.218  0.00  0.00    +0.000 C 
BRANCH  14  16
ATOM     15  C   UNL     1      49.085   7.881  16.330  0.00  0.00    +0.000 C 
ATOM     16  C   UNL     1      48.525   6.638  15.712  0.00  0.00    +0.000 C 
BRANCH  16  17
ATOM     17  C   UNL     1      48.534   5.378  16.466  0.00  0.00    +0.000 A 
ATOM     18  C   UNL     1      49.587   5.064  17.333  0.00  0.00    +0.000 A 
ATOM     19  C   UNL     1      49.532   3.915  18.123  0.00  0.00    +0.000 A 
ATOM     20  C   UNL     1      48.422   3.073  18.053  0.00  0.00    +0.000 A 
ATOM     21  C   UNL     1      47.382   3.365  17.174  0.00  0.00    +0.000 A 
ATOM     22  C   UNL     1      47.443   4.506  16.377  0.00  0.00    +0.000 A 
ENDBRANCH  16  17
ENDBRANCH  14  16
ENDBRANCH   1  14
TORSDOF 5
ENDMDL
