MODEL 1
REMARK VINA RESULT:    -8.170      0.000      0.000
REMARK INTER + INTRA:         -12.773
REMARK INTER:                 -11.513
REMARK INTRA:                  -1.260
REMARK UNBOUND:                -1.260
REMARK  Name = 
REMARK  10 active torsions:
REMARK  status: ('A' for Active; 'I' for Inactive)
REMARK    1  A    between atoms: C_1  and  O_2
REMARK    2  A    between atoms: O_2  and  C_3
REMARK    3  A    between atoms: C_5  and  C_6
REMARK    4  A    between atoms: C_10  and  C_11
REMARK    5  A    between atoms: C_11  and  C_12
REMARK    6  A    between atoms: C_11  and  C_13
REMARK    7  A    between atoms: C_11  and  C_14
REMARK    8  A    between atoms: C_14  and  N_15
REMARK    9  A    between atoms: N_15  and  C_16
REMARK   10  A    between atoms: C_19  and  C_20
REMARK                            x       y       z     vdW  Elec       q    Type
REMARK                         _______ _______ _______ _____ _____    ______ ____
ROOT
ATOM      1  C   UNL     1      44.157   4.690  12.131  0.00  0.00    +0.000 C 
ATOM      2  C   UNL     1      44.452   3.225  12.536  0.00  0.00    +0.000 C 
ATOM      3  C   UNL     1      43.022   5.235  13.029  0.00  0.00    +0.000 C 
ENDROOT
BRANCH   1   8
ATOM      4  C   UNL     1      47.389   6.124  13.716  0.00  0.00    +0.000 A 
ATOM      5  C   UNL     1      47.922   6.804  12.611  0.00  0.00    +0.000 A 
ATOM      6  C   UNL     1      47.213   6.904  11.415  0.00  0.00    +0.000 A 
ATOM      7  C   UNL     1      45.981   6.270  11.275  0.00  0.00    +0.000 A 
ATOM      8  C   UNL     1      45.426   5.539  12.336  0.00  0.00    +0.000 A 
ATOM      9  C   UNL     1      46.113   5.561  13.562  0.00  0.00    +0.000 A 
BRANCH   4  12
ATOM     10  C   UNL     1      48.647   4.788  17.025  0.00  0.00    +0.000 A 
ATOM     11  C   UNL     1      47.877   4.903  15.878  0.00  0.00    +0.000 A 
ATOM     12  C   UNL     1      48.148   5.944  14.974  0.00  0.00    +0.000 A 
ATOM     13  C   UNL     1      49.213   6.799  15.291  0.00  0.00    +0.000 A 
ATOM     14  C   UNL     1      49.913   6.608  16.469  0.00  0.00    +0.000 A 
ATOM     15  N   UNL     1      49.655   5.623  17.339  0.00  0.00    +0.000 NA
BRANCH  10  17
ATOM     16  C   UNL     1      47.197   3.020  17.433  0.00  0.00    +0.000 C 
ATOM     17  O   UNL     1      48.332   3.755  17.885  0.00  0.00    +0.000 OA
ENDBRANCH  10  17
ENDBRANCH   4  12
ENDBRANCH   1   8
BRANCH   1  18
ATOM     18  C   UNL     1      43.633   4.643  10.661  0.00  0.00    +0.000 C 
BRANCH  18  19
ATOM     19  N   UNL     1      43.729   3.318  10.023  0.00  0.00    +0.000 N 
ATOM     20  H   UNL     1      42.848   2.935   9.683  0.00  0.00    +0.000 HD
BRANCH  19  21
ATOM     21  C   UNL     1      44.791   3.075   9.147  0.00  0.00    +0.000 A 
ATOM     22  C   UNL     1      45.304   4.126   8.380  0.00  0.00    +0.000 A 
ATOM     23  C   UNL     1      46.294   3.885   7.423  0.00  0.00    +0.000 A 
ATOM     24  C   UNL     1      46.740   2.587   7.258  0.00  0.00    +0.000 A 
ATOM     25  N   UNL     1      46.271   1.525   7.960  0.00  0.00    +0.000 NA
ATOM     26  C   UNL     1      45.301   1.804   8.864  0.00  0.00    +0.000 A 
BRANCH  24  27
ATOM     27  C   UNL     1      47.811   2.285   6.246  0.00  0.00    +0.000 C 
ATOM     28  N   UNL     1      47.763   3.049   5.111  0.00  0.00    +0.000 N 
ATOM     29  O   UNL     1      48.650   1.424   6.417  0.00  0.00    +0.000 OA
ATOM     30  H   UNL     1      47.044   3.753   5.004  0.00  0.00    +0.000 HD
ATOM     31  H   UNL     1      48.442   2.887   4.380  0.00  0.00    +0.000 HD
ENDBRANCH  24  27
ENDBRANCH  19  21
ENDBRANCH  18  19
ENDBRANCH   1  18
TORSDOF 7
ENDMDL
MODEL 2
REMARK VINA RESULT:    -7.932      2.766      3.995
REMARK INTER + INTRA:         -12.437
REMARK INTER:                 -11.236
REMARK INTRA:                  -1.201
REMARK UNBOUND:                -1.260
REMARK  Name = 
REMARK  10 active torsions:
REMARK  status: ('A' for Active; 'I' for Inactive)
REMARK    1  A    between atoms: C_1  and  O_2
REMARK    2  A    between atoms: O_2  and  C_3
REMARK    3  A    between atoms: C_5  and  C_6
REMARK    4  A    between atoms: C_10  and  C_11
REMARK    5  A    between atoms: C_11  and  C_12
REMARK    6  A    between atoms: C_11  and  C_13
REMARK    7  A    between atoms: C_11  and  C_14
REMARK    8  A    between atoms: C_14  and  N_15
REMARK    9  A    between atoms: N_15  and  C_16
REMARK   10  A    between atoms: C_19  and  C_20
REMARK                            x       y       z     vdW  Elec       q    Type
REMARK                         _______ _______ _______ _____ _____    ______ ____
ROOT
ATOM      1  C   UNL     1      44.021   5.088  12.151  0.00  0.00    +0.000 C 
ATOM      2  C   UNL     1      43.032   4.998  13.338  0.00  0.00    +0.000 C 
ATOM      3  C   UNL     1      43.593   6.256  11.233  0.00  0.00    +0.000 C 
ENDROOT
BRANCH   1   8
ATOM      4  C   UNL     1      47.450   6.785  12.762  0.00  0.00    +0.000 A 
ATOM      5  C   UNL     1      47.880   6.069  13.889  0.00  0.00    +0.000 A 
ATOM      6  C   UNL     1      47.149   4.988  14.379  0.00  0.00    +0.000 A 
ATOM      7  C   UNL     1      45.935   4.638  13.791  0.00  0.00    +0.000 A 
ATOM      8  C   UNL     1      45.439   5.352  12.690  0.00  0.00    +0.000 A 
ATOM      9  C   UNL     1      46.262   6.358  12.151  0.00  0.00    +0.000 A 
BRANCH   4  12
ATOM     10  C   UNL     1      50.069   9.067  11.262  0.00  0.00    +0.000 A 
ATOM     11  C   UNL     1      49.468   7.908  11.729  0.00  0.00    +0.000 A 
ATOM     12  C   UNL     1      48.171   7.978  12.264  0.00  0.00    +0.000 A 
ATOM     13  C   UNL     1      47.553   9.237  12.269  0.00  0.00    +0.000 A 
ATOM     14  C   UNL     1      48.244  10.337  11.793  0.00  0.00    +0.000 A 
ATOM     15  N   UNL     1      49.484  10.279  11.290  0.00  0.00    +0.000 NA
BRANCH  10  17
ATOM     16  C   UNL     1      51.733   7.580  10.618  0.00  0.00    +0.000 C 
ATOM     17  O   UNL     1      51.348   8.946  10.758  0.00  0.00    +0.000 OA
ENDBRANCH  10  17
ENDBRANCH   4  12
ENDBRANCH   1   8
BRANCH   1  18
ATOM     18  C   UNL     1      43.866   3.757  11.348  0.00  0.00    +0.000 C 
BRANCH  18  19
ATOM     19  N   UNL     1      43.613   3.941   9.908  0.00  0.00    +0.000 N 
ATOM     20  H   UNL     1      43.224   4.846   9.648  0.00  0.00    +0.000 HD
BRANCH  19  21
ATOM     21  C   UNL     1      44.574   3.491   8.999  0.00  0.00    +0.000 A 
ATOM     22  C   UNL     1      44.988   2.156   9.039  0.00  0.00    +0.000 A 
ATOM     23  C   UNL     1      46.021   1.711   8.210  0.00  0.00    +0.000 A 
ATOM     24  C   UNL     1      46.618   2.625   7.362  0.00  0.00    +0.000 A 
ATOM     25  N   UNL     1      46.272   3.934   7.289  0.00  0.00    +0.000 NA
ATOM     26  C   UNL     1      45.277   4.324   8.122  0.00  0.00    +0.000 A 
BRANCH  24  27
ATOM     27  C   UNL     1      47.727   2.186   6.447  0.00  0.00    +0.000 C 
ATOM     28  N   UNL     1      47.943   3.002   5.369  0.00  0.00    +0.000 N 
ATOM     29  O   UNL     1      48.379   1.180   6.643  0.00  0.00    +0.000 OA
ATOM     30  H   UNL     1      47.373   3.828   5.237  0.00  0.00    +0.000 HD
ATOM     31  H   UNL     1      48.662   2.757   4.702  0.00  0.00    +0.000 HD
ENDBRANCH  24  27
ENDBRANCH  19  21
ENDBRANCH  18  19
ENDBRANCH   1  18
TORSDOF 7
ENDMDL
MODEL 3
REMARK VINA RESULT:    -7.794      1.713      2.247
REMARK INTER + INTRA:         -12.243
REMARK INTER:                 -11.246
REMARK INTRA:                  -0.997
REMARK UNBOUND:                -1.260
REMARK  Name = 
REMARK  10 active torsions:
REMARK  status: ('A' for Active; 'I' for Inactive)
REMARK    1  A    between atoms: C_1  and  O_2
REMARK    2  A    between atoms: O_2  and  C_3
REMARK    3  A    between atoms: C_5  and  C_6
REMARK    4  A    between atoms: C_10  and  C_11
REMARK    5  A    between atoms: C_11  and  C_12
REMARK    6  A    between atoms: C_11  and  C_13
REMARK    7  A    between atoms: C_11  and  C_14
REMARK    8  A    between atoms: C_14  and  N_15
REMARK    9  A    between atoms: N_15  and  C_16
REMARK   10  A    between atoms: C_19  and  C_20
REMARK                            x       y       z     vdW  Elec       q    Type
REMARK                         _______ _______ _______ _____ _____    ______ ____
ROOT
ATOM      1  C   UNL     1      44.151   4.838  12.228  0.00  0.00    +0.000 C 
ATOM      2  C   UNL     1      45.204   3.740  12.513  0.00  0.00    +0.000 C 
ATOM      3  C   UNL     1      43.042   4.755  13.302  0.00  0.00    +0.000 C 
ENDROOT
BRANCH   1   8
ATOM      4  C   UNL     1      46.803   7.592  12.861  0.00  0.00    +0.000 A 
ATOM      5  C   UNL     1      46.240   8.646  12.128  0.00  0.00    +0.000 A 
ATOM      6  C   UNL     1      44.983   8.525  11.538  0.00  0.00    +0.000 A 
ATOM      7  C   UNL     1      44.287   7.320  11.612  0.00  0.00    +0.000 A 
ATOM      8  C   UNL     1      44.828   6.220  12.294  0.00  0.00    +0.000 A 
ATOM      9  C   UNL     1      46.041   6.419  12.977  0.00  0.00    +0.000 A 
BRANCH   4  12
ATOM     10  C   UNL     1      49.857   7.016  15.019  0.00  0.00    +0.000 A 
ATOM     11  C   UNL     1      48.558   6.903  14.548  0.00  0.00    +0.000 A 
ATOM     12  C   UNL     1      48.163   7.670  13.440  0.00  0.00    +0.000 A 
ATOM     13  C   UNL     1      49.135   8.500  12.863  0.00  0.00    +0.000 A 
ATOM     14  C   UNL     1      50.402   8.553  13.418  0.00  0.00    +0.000 A 
ATOM     15  N   UNL     1      50.783   7.830  14.479  0.00  0.00    +0.000 NA
BRANCH  10  17
ATOM     16  C   UNL     1      49.053   5.972  16.932  0.00  0.00    +0.000 C 
ATOM     17  O   UNL     1      50.190   6.249  16.118  0.00  0.00    +0.000 OA
ENDBRANCH  10  17
ENDBRANCH   4  12
ENDBRANCH   1   8
BRANCH   1  18
ATOM     18  C   UNL     1      43.515   4.489  10.845  0.00  0.00    +0.000 C 
BRANCH  18  19
ATOM     19  N   UNL     1      43.829   3.136  10.354  0.00  0.00    +0.000 N 
ATOM     20  H   UNL     1      43.039   2.493  10.319  0.00  0.00    +0.000 HD
BRANCH  19  21
ATOM     21  C   UNL     1      44.675   3.006   9.249  0.00  0.00    +0.000 A 
ATOM     22  C   UNL     1      45.318   1.786   9.014  0.00  0.00    +0.000 A 
ATOM     23  C   UNL     1      46.246   1.666   7.977  0.00  0.00    +0.000 A 
ATOM     24  C   UNL     1      46.509   2.781   7.202  0.00  0.00    +0.000 A 
ATOM     25  N   UNL     1      45.930   3.993   7.392  0.00  0.00    +0.000 NA
ATOM     26  C   UNL     1      45.049   4.066   8.418  0.00  0.00    +0.000 A 
BRANCH  24  27
ATOM     27  C   UNL     1      47.495   2.692   6.070  0.00  0.00    +0.000 C 
ATOM     28  N   UNL     1      48.790   2.462   6.451  0.00  0.00    +0.000 N 
ATOM     29  O   UNL     1      47.171   2.822   4.908  0.00  0.00    +0.000 OA
ATOM     30  H   UNL     1      49.021   2.365   7.432  0.00  0.00    +0.000 HD
ATOM     31  H   UNL     1      49.509   2.408   5.742  0.00  0.00    +0.000 HD
ENDBRANCH  24  27
ENDBRANCH  19  21
ENDBRANCH  18  19
ENDBRANCH   1  18
TORSDOF 7
ENDMDL
MODEL 4
REMARK VINA RESULT:    -7.269      2.152      8.059
REMARK INTER + INTRA:         -11.504
REMARK INTER:                  -9.796
REMARK INTRA:                  -1.708
REMARK UNBOUND:                -1.260
REMARK  Name = 
REMARK  10 active torsions:
REMARK  status: ('A' for Active; 'I' for Inactive)
REMARK    1  A    between atoms: C_1  and  O_2
REMARK    2  A    between atoms: O_2  and  C_3
REMARK    3  A    between atoms: C_5  and  C_6
REMARK    4  A    between atoms: C_10  and  C_11
REMARK    5  A    between atoms: C_11  and  C_12
REMARK    6  A    between atoms: C_11  and  C_13
REMARK    7  A    between atoms: C_11  and  C_14
REMARK    8  A    between atoms: C_14  and  N_15
REMARK    9  A    between atoms: N_15  and  C_16
REMARK   10  A    between atoms: C_19  and  C_20
REMARK                            x       y       z     vdW  Elec       q    Type
REMARK                         _______ _______ _______ _____ _____    ______ ____
ROOT
ATOM      1  C   UNL     1      49.730   8.462  12.410  0.00  0.00    +0.000 C 
ATOM      2  C   UNL     1      50.480   7.761  11.252  0.00  0.00    +0.000 C 
ATOM      3  C   UNL     1      50.113   9.960  12.416  0.00  0.00    +0.000 C 
ENDROOT
BRANCH   1   8
ATOM      4  C   UNL     1      46.257   6.879  11.742  0.00  0.00    +0.000 A 
ATOM      5  C   UNL     1      45.426   7.946  12.118  0.00  0.00    +0.000 A 
ATOM      6  C   UNL     1      45.957   9.186  12.466  0.00  0.00    +0.000 A 
ATOM      7  C   UNL     1      47.338   9.369  12.511  0.00  0.00    +0.000 A 
ATOM      8  C   UNL     1      48.212   8.321  12.190  0.00  0.00    +0.000 A 
ATOM      9  C   UNL     1      47.638   7.123  11.728  0.00  0.00    +0.000 A 
BRANCH   4  12
ATOM     10  C   UNL     1      44.868   3.865   9.924  0.00  0.00    +0.000 A 
ATOM     11  C   UNL     1      45.339   5.152  10.137  0.00  0.00    +0.000 A 
ATOM     12  C   UNL     1      45.723   5.533  11.434  0.00  0.00    +0.000 A 
ATOM     13  C   UNL     1      45.619   4.561  12.439  0.00  0.00    +0.000 A 
ATOM     14  C   UNL     1      45.122   3.308  12.126  0.00  0.00    +0.000 A 
ATOM     15  N   UNL     1      44.747   2.940  10.894  0.00  0.00    +0.000 NA
BRANCH  10  17
ATOM     16  C   UNL     1      45.597   3.607   7.734  0.00  0.00    +0.000 C 
ATOM     17  O   UNL     1      44.494   3.546   8.634  0.00  0.00    +0.000 OA
ENDBRANCH  10  17
ENDBRANCH   4  12
ENDBRANCH   1   8
BRANCH   1  18
ATOM     18  C   UNL     1      50.260   7.819  13.731  0.00  0.00    +0.000 C 
BRANCH  18  19
ATOM     19  N   UNL     1      49.350   7.954  14.882  0.00  0.00    +0.000 N 
ATOM     20  H   UNL     1      48.574   8.601  14.748  0.00  0.00    +0.000 HD
BRANCH  19  21
ATOM     21  C   UNL     1      48.970   6.799  15.571  0.00  0.00    +0.000 A 
ATOM     22  C   UNL     1      48.032   5.934  14.999  0.00  0.00    +0.000 A 
ATOM     23  C   UNL     1      47.561   4.830  15.714  0.00  0.00    +0.000 A 
ATOM     24  C   UNL     1      48.043   4.626  16.994  0.00  0.00    +0.000 A 
ATOM     25  N   UNL     1      48.941   5.437  17.607  0.00  0.00    +0.000 NA
ATOM     26  C   UNL     1      49.357   6.503  16.882  0.00  0.00    +0.000 A 
BRANCH  24  27
ATOM     27  C   UNL     1      47.569   3.445  17.795  0.00  0.00    +0.000 C 
ATOM     28  N   UNL     1      48.331   3.151  18.894  0.00  0.00    +0.000 N 
ATOM     29  O   UNL     1      46.590   2.796  17.488  0.00  0.00    +0.000 OA
ATOM     30  H   UNL     1      49.144   3.713  19.112  0.00  0.00    +0.000 HD
ATOM     31  H   UNL     1      48.080   2.358  19.468  0.00  0.00    +0.000 HD
ENDBRANCH  24  27
ENDBRANCH  19  21
ENDBRANCH  18  19
ENDBRANCH   1  18
TORSDOF 7
ENDMDL
MODEL 5
REMARK VINA RESULT:    -6.675      3.067      5.065
REMARK INTER + INTRA:         -10.666
REMARK INTER:                  -9.216
REMARK INTRA:                  -1.451
REMARK UNBOUND:                -1.260
REMARK  Name = 
REMARK  10 active torsions:
REMARK  status: ('A' for Active; 'I' for Inactive)
REMARK    1  A    between atoms: C_1  and  O_2
REMARK    2  A    between atoms: O_2  and  C_3
REMARK    3  A    between atoms: C_5  and  C_6
REMARK    4  A    between atoms: C_10  and  C_11
REMARK    5  A    between atoms: C_11  and  C_12
REMARK    6  A    between atoms: C_11  and  C_13
REMARK    7  A    between atoms: C_11  and  C_14
REMARK    8  A    between atoms: C_14  and  N_15
REMARK    9  A    between atoms: N_15  and  C_16
REMARK   10  A    between atoms: C_19  and  C_20
REMARK                            x       y       z     vdW  Elec       q    Type
REMARK                         _______ _______ _______ _____ _____    ______ ____
ROOT
ATOM      1  C   UNL     1      48.208   8.378  12.904  0.00  0.00    +0.000 C 
ATOM      2  C   UNL     1      48.951   9.690  12.555  0.00  0.00    +0.000 C 
ATOM      3  C   UNL     1      48.887   7.208  12.153  0.00  0.00    +0.000 C 
ENDROOT
BRANCH   1   8
ATOM      4  C   UNL     1      48.774   6.604  16.302  0.00  0.00    +0.000 A 
ATOM      5  C   UNL     1      48.801   7.716  17.156  0.00  0.00    +0.000 A 
ATOM      6  C   UNL     1      48.528   8.997  16.681  0.00  0.00    +0.000 A 
ATOM      7  C   UNL     1      48.287   9.206  15.325  0.00  0.00    +0.000 A 
ATOM      8  C   UNL     1      48.295   8.133  14.422  0.00  0.00    +0.000 A 
ATOM      9  C   UNL     1      48.454   6.843  14.956  0.00  0.00    +0.000 A 
BRANCH   4  12
ATOM     10  C   UNL     1      50.637   3.634  17.725  0.00  0.00    +0.000 A 
ATOM     11  C   UNL     1      50.391   4.928  17.291  0.00  0.00    +0.000 A 
ATOM     12  C   UNL     1      49.126   5.243  16.766  0.00  0.00    +0.000 A 
ATOM     13  C   UNL     1      48.176   4.212  16.735  0.00  0.00    +0.000 A 
ATOM     14  C   UNL     1      48.526   2.949  17.179  0.00  0.00    +0.000 A 
ATOM     15  N   UNL     1      49.732   2.640  17.674  0.00  0.00    +0.000 NA
BRANCH  10  17
ATOM     16  C   UNL     1      52.369   2.089  17.822  0.00  0.00    +0.000 C 
ATOM     17  O   UNL     1      51.899   3.374  18.221  0.00  0.00    +0.000 OA
ENDBRANCH  10  17
ENDBRANCH   4  12
ENDBRANCH   1   8
BRANCH   1  18
ATOM     18  C   UNL     1      46.756   8.533  12.350  0.00  0.00    +0.000 C 
BRANCH  18  19
ATOM     19  N   UNL     1      45.721   7.869  13.161  0.00  0.00    +0.000 N 
ATOM     20  H   UNL     1      44.999   8.486  13.532  0.00  0.00    +0.000 HD
BRANCH  19  21
ATOM     21  C   UNL     1      45.206   6.649  12.717  0.00  0.00    +0.000 A 
ATOM     22  C   UNL     1      45.626   5.462  13.327  0.00  0.00    +0.000 A 
ATOM     23  C   UNL     1      45.204   4.226  12.831  0.00  0.00    +0.000 A 
ATOM     24  C   UNL     1      44.372   4.213  11.727  0.00  0.00    +0.000 A 
ATOM     25  N   UNL     1      43.944   5.329  11.084  0.00  0.00    +0.000 NA
ATOM     26  C   UNL     1      44.391   6.504  11.590  0.00  0.00    +0.000 A 
BRANCH  24  27
ATOM     27  C   UNL     1      43.888   2.905  11.167  0.00  0.00    +0.000 C 
ATOM     28  N   UNL     1      44.588   2.448  10.082  0.00  0.00    +0.000 N 
ATOM     29  O   UNL     1      42.944   2.301  11.634  0.00  0.00    +0.000 OA
ATOM     30  H   UNL     1      45.365   2.984   9.718  0.00  0.00    +0.000 HD
ATOM     31  H   UNL     1      44.305   1.582   9.644  0.00  0.00    +0.000 HD
ENDBRANCH  24  27
ENDBRANCH  19  21
ENDBRANCH  18  19
ENDBRANCH   1  18
TORSDOF 7
ENDMDL
MODEL 6
REMARK VINA RESULT:    -6.432      1.662      8.319
REMARK INTER + INTRA:         -10.323
REMARK INTER:                  -9.036
REMARK INTRA:                  -1.287
REMARK UNBOUND:                -1.260
REMARK  Name = 
REMARK  10 active torsions:
REMARK  status: ('A' for Active; 'I' for Inactive)
REMARK    1  A    between atoms: C_1  and  O_2
REMARK    2  A    between atoms: O_2  and  C_3
REMARK    3  A    between atoms: C_5  and  C_6
REMARK    4  A    between atoms: C_10  and  C_11
REMARK    5  A    between atoms: C_11  and  C_12
REMARK    6  A    between atoms: C_11  and  C_13
REMARK    7  A    between atoms: C_11  and  C_14
REMARK    8  A    between atoms: C_14  and  N_15
REMARK    9  A    between atoms: N_15  and  C_16
REMARK   10  A    between atoms: C_19  and  C_20
REMARK                            x       y       z     vdW  Elec       q    Type
REMARK                         _______ _______ _______ _____ _____    ______ ____
ROOT
ATOM      1  C   UNL     1      46.943   8.036  12.397  0.00  0.00    +0.000 C 
ATOM      2  C   UNL     1      48.315   7.717  11.755  0.00  0.00    +0.000 C 
ATOM      3  C   UNL     1      46.443   9.394  11.852  0.00  0.00    +0.000 C 
ENDROOT
BRANCH   1   8
ATOM      4  C   UNL     1      45.326   5.016  10.588  0.00  0.00    +0.000 A 
ATOM      5  C   UNL     1      44.317   4.692  11.508  0.00  0.00    +0.000 A 
ATOM      6  C   UNL     1      44.077   5.488  12.626  0.00  0.00    +0.000 A 
ATOM      7  C   UNL     1      44.887   6.592  12.887  0.00  0.00    +0.000 A 
ATOM      8  C   UNL     1      45.938   6.931  12.023  0.00  0.00    +0.000 A 
ATOM      9  C   UNL     1      46.072   6.176  10.844  0.00  0.00    +0.000 A 
BRANCH   4  12
ATOM     10  C   UNL     1      45.828   2.011   8.345  0.00  0.00    +0.000 A 
ATOM     11  C   UNL     1      45.532   2.751   9.479  0.00  0.00    +0.000 A 
ATOM     12  C   UNL     1      45.645   4.151   9.430  0.00  0.00    +0.000 A 
ATOM     13  C   UNL     1      46.040   4.714   8.209  0.00  0.00    +0.000 A 
ATOM     14  C   UNL     1      46.329   3.886   7.138  0.00  0.00    +0.000 A 
ATOM     15  N   UNL     1      46.230   2.551   7.179  0.00  0.00    +0.000 NA
BRANCH  10  17
ATOM     16  C   UNL     1      46.692  -0.035   7.663  0.00  0.00    +0.000 C 
ATOM     17  O   UNL     1      45.712   0.639   8.449  0.00  0.00    +0.000 OA
ENDBRANCH  10  17
ENDBRANCH   4  12
ENDBRANCH   1   8
BRANCH   1  18
ATOM     18  C   UNL     1      47.201   8.193  13.930  0.00  0.00    +0.000 C 
BRANCH  18  19
ATOM     19  N   UNL     1      48.566   7.838  14.357  0.00  0.00    +0.000 N 
ATOM     20  H   UNL     1      49.170   8.628  14.579  0.00  0.00    +0.000 HD
BRANCH  19  21
ATOM     21  C   UNL     1      48.731   6.773  15.246  0.00  0.00    +0.000 A 
ATOM     22  C   UNL     1      47.793   5.736  15.259  0.00  0.00    +0.000 A 
ATOM     23  C   UNL     1      47.881   4.715  16.209  0.00  0.00    +0.000 A 
ATOM     24  C   UNL     1      48.913   4.765  17.129  0.00  0.00    +0.000 A 
ATOM     25  N   UNL     1      49.842   5.752  17.176  0.00  0.00    +0.000 NA
ATOM     26  C   UNL     1      49.707   6.728  16.246  0.00  0.00    +0.000 A 
BRANCH  24  27
ATOM     27  C   UNL     1      49.050   3.682  18.162  0.00  0.00    +0.000 C 
ATOM     28  N   UNL     1      49.732   2.571  17.745  0.00  0.00    +0.000 N 
ATOM     29  O   UNL     1      48.585   3.780  19.280  0.00  0.00    +0.000 OA
ATOM     30  H   UNL     1      50.098   2.525  16.803  0.00  0.00    +0.000 HD
ATOM     31  H   UNL     1      49.846   1.795  18.384  0.00  0.00    +0.000 HD
ENDBRANCH  24  27
ENDBRANCH  19  21
ENDBRANCH  18  19
ENDBRANCH   1  18
TORSDOF 7
ENDMDL
MODEL 7
REMARK VINA RESULT:    -6.366      3.603      8.259
REMARK INTER + INTRA:         -10.231
REMARK INTER:                  -8.430
REMARK INTRA:                  -1.801
REMARK UNBOUND:                -1.260
REMARK  Name = 
REMARK  10 active torsions:
REMARK  status: ('A' for Active; 'I' for Inactive)
REMARK    1  A    between atoms: C_1  and  O_2
REMARK    2  A    between atoms: O_2  and  C_3
REMARK    3  A    between atoms: C_5  and  C_6
REMARK    4  A    between atoms: C_10  and  C_11
REMARK    5  A    between atoms: C_11  and  C_12
REMARK    6  A    between atoms: C_11  and  C_13
REMARK    7  A    between atoms: C_11  and  C_14
REMARK    8  A    between atoms: C_14  and  N_15
REMARK    9  A    between atoms: N_15  and  C_16
REMARK   10  A    between atoms: C_19  and  C_20
REMARK                            x       y       z     vdW  Elec       q    Type
REMARK                         _______ _______ _______ _____ _____    ______ ____
ROOT
ATOM      1  C   UNL     1      48.855   8.818  17.936  0.00  0.00    +0.000 C 
ATOM      2  C   UNL     1      50.078   9.219  18.796  0.00  0.00    +0.000 C 
ATOM      3  C   UNL     1      47.953  10.059  17.743  0.00  0.00    +0.000 C 
ENDROOT
BRANCH   1   8
ATOM      4  C   UNL     1      48.835   7.268  14.385  0.00  0.00    +0.000 A 
ATOM      5  C   UNL     1      50.089   7.697  13.925  0.00  0.00    +0.000 A 
ATOM      6  C   UNL     1      50.976   8.367  14.765  0.00  0.00    +0.000 A 
ATOM      7  C   UNL     1      50.602   8.683  16.070  0.00  0.00    +0.000 A 
ATOM      8  C   UNL     1      49.341   8.318  16.563  0.00  0.00    +0.000 A 
ATOM      9  C   UNL     1      48.523   7.539  15.726  0.00  0.00    +0.000 A 
BRANCH   4  12
ATOM     10  C   UNL     1      46.190   4.943  13.003  0.00  0.00    +0.000 A 
ATOM     11  C   UNL     1      47.112   5.485  13.885  0.00  0.00    +0.000 A 
ATOM     12  C   UNL     1      47.848   6.616  13.495  0.00  0.00    +0.000 A 
ATOM     13  C   UNL     1      47.580   7.141  12.223  0.00  0.00    +0.000 A 
ATOM     14  C   UNL     1      46.650   6.517  11.411  0.00  0.00    +0.000 A 
ATOM     15  N   UNL     1      45.950   5.435  11.773  0.00  0.00    +0.000 NA
BRANCH  10  17
ATOM     16  C   UNL     1      44.345   3.581  12.633  0.00  0.00    +0.000 C 
ATOM     17  O   UNL     1      45.501   3.826  13.430  0.00  0.00    +0.000 OA
ENDBRANCH  10  17
ENDBRANCH   4  12
ENDBRANCH   1   8
BRANCH   1  18
ATOM     18  C   UNL     1      48.059   7.764  18.770  0.00  0.00    +0.000 C 
BRANCH  18  19
ATOM     19  N   UNL     1      48.903   6.838  19.546  0.00  0.00    +0.000 N 
ATOM     20  H   UNL     1      48.669   6.764  20.535  0.00  0.00    +0.000 HD
BRANCH  19  21
ATOM     21  C   UNL     1      49.234   5.604  18.981  0.00  0.00    +0.000 A 
ATOM     22  C   UNL     1      50.467   5.449  18.339  0.00  0.00    +0.000 A 
ATOM     23  C   UNL     1      50.775   4.258  17.677  0.00  0.00    +0.000 A 
ATOM     24  C   UNL     1      49.829   3.249  17.673  0.00  0.00    +0.000 A 
ATOM     25  N   UNL     1      48.611   3.346  18.263  0.00  0.00    +0.000 NA
ATOM     26  C   UNL     1      48.351   4.525  18.878  0.00  0.00    +0.000 A 
BRANCH  24  27
ATOM     27  C   UNL     1      50.123   1.948  16.980  0.00  0.00    +0.000 C 
ATOM     28  N   UNL     1      51.060   1.165  17.599  0.00  0.00    +0.000 N 
ATOM     29  O   UNL     1      49.578   1.618  15.947  0.00  0.00    +0.000 OA
ATOM     30  H   UNL     1      51.496   1.478  18.456  0.00  0.00    +0.000 HD
ATOM     31  H   UNL     1      51.319   0.283  17.178  0.00  0.00    +0.000 HD
ENDBRANCH  24  27
ENDBRANCH  19  21
ENDBRANCH  18  19
ENDBRANCH   1  18
TORSDOF 7
ENDMDL
MODEL 8
REMARK VINA RESULT:    -6.242      3.313      8.098
REMARK INTER + INTRA:         -10.056
REMARK INTER:                  -8.268
REMARK INTRA:                  -1.788
REMARK UNBOUND:                -1.260
REMARK  Name = 
REMARK  10 active torsions:
REMARK  status: ('A' for Active; 'I' for Inactive)
REMARK    1  A    between atoms: C_1  and  O_2
REMARK    2  A    between atoms: O_2  and  C_3
REMARK    3  A    between atoms: C_5  and  C_6
REMARK    4  A    between atoms: C_10  and  C_11
REMARK    5  A    between atoms: C_11  and  C_12
REMARK    6  A    between atoms: C_11  and  C_13
REMARK    7  A    between atoms: C_11  and  C_14
REMARK    8  A    between atoms: C_14  and  N_15
REMARK    9  A    between atoms: N_15  and  C_16
REMARK   10  A    between atoms: C_19  and  C_20
REMARK                            x       y       z     vdW  Elec       q    Type
REMARK                         _______ _______ _______ _____ _____    ______ ____
ROOT
ATOM      1  C   UNL     1      50.253   9.256  14.205  0.00  0.00    +0.000 C 
ATOM      2  C   UNL     1      51.221  10.116  13.357  0.00  0.00    +0.000 C 
ATOM      3  C   UNL     1      49.864  10.049  15.474  0.00  0.00    +0.000 C 
ENDROOT
BRANCH   1   8
ATOM      4  C   UNL     1      47.237   7.354  12.689  0.00  0.00    +0.000 A 
ATOM      5  C   UNL     1      46.502   8.432  12.174  0.00  0.00    +0.000 A 
ATOM      6  C   UNL     1      47.009   9.729  12.203  0.00  0.00    +0.000 A 
ATOM      7  C   UNL     1      48.237   9.990  12.809  0.00  0.00    +0.000 A 
ATOM      8  C   UNL     1      48.989   8.953  13.380  0.00  0.00    +0.000 A 
ATOM      9  C   UNL     1      48.502   7.643  13.224  0.00  0.00    +0.000 A 
BRANCH   4  12
ATOM     10  C   UNL     1      45.233   4.228  11.958  0.00  0.00    +0.000 A 
ATOM     11  C   UNL     1      45.674   5.540  11.871  0.00  0.00    +0.000 A 
ATOM     12  C   UNL     1      46.694   5.977  12.732  0.00  0.00    +0.000 A 
ATOM     13  C   UNL     1      47.219   5.032  13.625  0.00  0.00    +0.000 A 
ATOM     14  C   UNL     1      46.700   3.750  13.644  0.00  0.00    +0.000 A 
ATOM     15  N   UNL     1      45.723   3.329  12.831  0.00  0.00    +0.000 NA
BRANCH  10  17
ATOM     16  C   UNL     1      42.975   4.442  11.460  0.00  0.00    +0.000 C 
ATOM     17  O   UNL     1      44.222   3.854  11.097  0.00  0.00    +0.000 OA
ENDBRANCH  10  17
ENDBRANCH   4  12
ENDBRANCH   1   8
BRANCH   1  18
ATOM     18  C   UNL     1      51.060   7.994  14.649  0.00  0.00    +0.000 C 
BRANCH  18  19
ATOM     19  N   UNL     1      50.970   7.689  16.088  0.00  0.00    +0.000 N 
ATOM     20  H   UNL     1      50.847   8.498  16.696  0.00  0.00    +0.000 HD
BRANCH  19  21
ATOM     21  C   UNL     1      50.198   6.596  16.490  0.00  0.00    +0.000 A 
ATOM     22  C   UNL     1      48.811   6.737  16.604  0.00  0.00    +0.000 A 
ATOM     23  C   UNL     1      48.033   5.690  17.104  0.00  0.00    +0.000 A 
ATOM     24  C   UNL     1      48.672   4.524  17.483  0.00  0.00    +0.000 A 
ATOM     25  N   UNL     1      50.013   4.333  17.411  0.00  0.00    +0.000 NA
ATOM     26  C   UNL     1      50.728   5.381  16.935  0.00  0.00    +0.000 A 
BRANCH  24  27
ATOM     27  C   UNL     1      47.871   3.369  18.017  0.00  0.00    +0.000 C 
ATOM     28  N   UNL     1      48.318   2.860  19.207  0.00  0.00    +0.000 N 
ATOM     29  O   UNL     1      46.906   2.916  17.436  0.00  0.00    +0.000 OA
ATOM     30  H   UNL     1      49.131   3.261  19.657  0.00  0.00    +0.000 HD
ATOM     31  H   UNL     1      47.837   2.070  19.615  0.00  0.00    +0.000 HD
ENDBRANCH  24  27
ENDBRANCH  19  21
ENDBRANCH  18  19
ENDBRANCH   1  18
TORSDOF 7
ENDMDL
MODEL 9
REMARK VINA RESULT:    -6.217      3.733      8.521
REMARK INTER + INTRA:         -10.021
REMARK INTER:                  -9.012
REMARK INTRA:                  -1.010
REMARK UNBOUND:                -1.260
REMARK  Name = 
REMARK  10 active torsions:
REMARK  status: ('A' for Active; 'I' for Inactive)
REMARK    1  A    between atoms: C_1  and  O_2
REMARK    2  A    between atoms: O_2  and  C_3
REMARK    3  A    between atoms: C_5  and  C_6
REMARK    4  A    between atoms: C_10  and  C_11
REMARK    5  A    between atoms: C_11  and  C_12
REMARK    6  A    between atoms: C_11  and  C_13
REMARK    7  A    between atoms: C_11  and  C_14
REMARK    8  A    between atoms: C_14  and  N_15
REMARK    9  A    between atoms: N_15  and  C_16
REMARK   10  A    between atoms: C_19  and  C_20
REMARK                            x       y       z     vdW  Elec       q    Type
REMARK                         _______ _______ _______ _____ _____    ______ ____
ROOT
ATOM      1  C   UNL     1      49.835   7.054  16.522  0.00  0.00    +0.000 C 
ATOM      2  C   UNL     1      50.487   8.385  16.970  0.00  0.00    +0.000 C 
ATOM      3  C   UNL     1      48.495   6.878  17.273  0.00  0.00    +0.000 C 
ENDROOT
BRANCH   1   8
ATOM      4  C   UNL     1      48.047   6.710  13.102  0.00  0.00    +0.000 A 
ATOM      5  C   UNL     1      48.900   7.483  12.301  0.00  0.00    +0.000 A 
ATOM      6  C   UNL     1      50.086   8.010  12.809  0.00  0.00    +0.000 A 
ATOM      7  C   UNL     1      50.414   7.830  14.152  0.00  0.00    +0.000 A 
ATOM      8  C   UNL     1      49.571   7.104  15.005  0.00  0.00    +0.000 A 
ATOM      9  C   UNL     1      48.447   6.488  14.428  0.00  0.00    +0.000 A 
BRANCH   4  12
ATOM     10  C   UNL     1      45.034   4.517  12.448  0.00  0.00    +0.000 A 
ATOM     11  C   UNL     1      46.269   4.917  12.933  0.00  0.00    +0.000 A 
ATOM     12  C   UNL     1      46.749   6.197  12.607  0.00  0.00    +0.000 A 
ATOM     13  C   UNL     1      45.921   7.003  11.813  0.00  0.00    +0.000 A 
ATOM     14  C   UNL     1      44.710   6.504  11.366  0.00  0.00    +0.000 A 
ATOM     15  N   UNL     1      44.250   5.283  11.667  0.00  0.00    +0.000 NA
BRANCH  10  17
ATOM     16  C   UNL     1      43.472   2.848  12.033  0.00  0.00    +0.000 C 
ATOM     17  O   UNL     1      44.614   3.246  12.788  0.00  0.00    +0.000 OA
ENDBRANCH  10  17
ENDBRANCH   4  12
ENDBRANCH   1   8
BRANCH   1  18
ATOM     18  C   UNL     1      50.802   5.915  16.979  0.00  0.00    +0.000 C 
BRANCH  18  19
ATOM     19  N   UNL     1      50.125   4.682  17.416  0.00  0.00    +0.000 N 
ATOM     20  H   UNL     1      49.233   4.492  16.962  0.00  0.00    +0.000 HD
BRANCH  19  21
ATOM     21  C   UNL     1      50.891   3.527  17.593  0.00  0.00    +0.000 A 
ATOM     22  C   UNL     1      52.206   3.638  18.057  0.00  0.00    +0.000 A 
ATOM     23  C   UNL     1      53.023   2.508  18.141  0.00  0.00    +0.000 A 
ATOM     24  C   UNL     1      52.497   1.290  17.751  0.00  0.00    +0.000 A 
ATOM     25  N   UNL     1      51.236   1.122  17.278  0.00  0.00    +0.000 NA
ATOM     26  C   UNL     1      50.486   2.248  17.199  0.00  0.00    +0.000 A 
BRANCH  24  27
ATOM     27  C   UNL     1      53.339   0.047  17.834  0.00  0.00    +0.000 C 
ATOM     28  N   UNL     1      53.852  -0.383  16.639  0.00  0.00    +0.000 N 
ATOM     29  O   UNL     1      53.545  -0.536  18.878  0.00  0.00    +0.000 OA
ATOM     30  H   UNL     1      53.652   0.128  15.789  0.00  0.00    +0.000 HD
ATOM     31  H   UNL     1      54.413  -1.223  16.619  0.00  0.00    +0.000 HD
ENDBRANCH  24  27
ENDBRANCH  19  21
ENDBRANCH  18  19
ENDBRANCH   1  18
TORSDOF 7
ENDMDL
