MODEL 1
REMARK VINA RESULT:    -7.252      0.000      0.000
REMARK INTER + INTRA:          -9.590
REMARK INTER:                  -8.948
REMARK INTRA:                  -0.642
REMARK UNBOUND:                -0.642
REMARK  Name = 
REMARK  5 active torsions:
REMARK  status: ('A' for Active; 'I' for Inactive)
REMARK    1  A    between atoms: C_1  and  C_2
REMARK    2  A    between atoms: C_2  and  N_3
REMARK    3  A    between atoms: N_3  and  C_4
REMARK    4  A    between atoms: C_4  and  C_5
REMARK    5  A    between atoms: C_14  and  C_15
REMARK                            x       y       z     vdW  Elec       q    Type
REMARK                         _______ _______ _______ _____ _____    ______ ____
ROOT
ATOM      1  N   UNL     1      44.566   4.086  10.443  0.00  0.00    +0.000 N 
ATOM      2  C   UNL     1      44.960   5.320  11.005  0.00  0.00    +0.000 A 
ATOM      3  C   UNL     1      46.301   5.698  10.901  0.00  0.00    +0.000 A 
ATOM      4  C   UNL     1      46.740   6.878  11.502  0.00  0.00    +0.000 A 
ATOM      5  C   UNL     1      45.837   7.666  12.213  0.00  0.00    +0.000 A 
ATOM      6  C   UNL     1      44.523   7.232  12.254  0.00  0.00    +0.000 A 
ATOM      7  N   UNL     1      44.073   6.095  11.663  0.00  0.00    +0.000 NA
ENDROOT
BRANCH   5   8
ATOM      8  C   UNL     1      46.323   8.899  12.871  0.00  0.00    +0.000 C 
ATOM      9  N   UNL     1      46.811   8.828  14.144  0.00  0.00    +0.000 N 
ATOM     10  O   UNL     1      46.301   9.981  12.293  0.00  0.00    +0.000 OA
ATOM     11  H   UNL     1      46.932   7.992  14.693  0.00  0.00    +0.000 HD
ATOM     12  H   UNL     1      47.157   9.695  14.540  0.00  0.00    +0.000 HD
ENDBRANCH   5   8
BRANCH   1  14
ATOM     13  C   UNL     1      43.585   2.554  12.177  0.00  0.00    +0.000 C 
ATOM     14  C   UNL     1      43.330   3.525  11.024  0.00  0.00    +0.000 C 
ENDBRANCH   1  14
BRANCH   1  15
ATOM     15  C   UNL     1      44.537   4.202   8.967  0.00  0.00    +0.000 C 
BRANCH  15  16
ATOM     16  C   UNL     1      45.488   3.240   8.279  0.00  0.00    +0.000 A 
ATOM     17  C   UNL     1      46.385   3.735   7.316  0.00  0.00    +0.000 A 
ATOM     18  C   UNL     1      47.295   2.886   6.681  0.00  0.00    +0.000 A 
ATOM     19  C   UNL     1      47.332   1.534   7.013  0.00  0.00    +0.000 A 
ATOM     20  C   UNL     1      46.479   1.036   7.994  0.00  0.00    +0.000 A 
ATOM     21  C   UNL     1      45.569   1.885   8.630  0.00  0.00    +0.000 A 
ENDBRANCH  15  16
ENDBRANCH   1  15
TORSDOF 4
ENDMDL
MODEL 2
REMARK VINA RESULT:    -6.266      1.477      2.169
REMARK INTER + INTRA:          -8.373
REMARK INTER:                  -7.749
REMARK INTRA:                  -0.624
REMARK UNBOUND:                -0.642
REMARK  Name = 
REMARK  5 active torsions:
REMARK  status: ('A' for Active; 'I' for Inactive)
REMARK    1  A    between atoms: C_1  and  C_2
REMARK    2  A    between atoms: C_2  and  N_3
REMARK    3  A    between atoms: N_3  and  C_4
REMARK    4  A    between atoms: C_4  and  C_5
REMARK    5  A    between atoms: C_14  and  C_15
REMARK                            x       y       z     vdW  Elec       q    Type
REMARK                         _______ _______ _______ _____ _____    ______ ____
ROOT
ATOM      1  N   UNL     1      45.084   5.218  11.770  0.00  0.00    +0.000 N 
ATOM      2  C   UNL     1      45.785   6.417  12.026  0.00  0.00    +0.000 A 
ATOM      3  C   UNL     1      47.025   6.604  11.411  0.00  0.00    +0.000 A 
ATOM      4  C   UNL     1      47.775   7.746  11.692  0.00  0.00    +0.000 A 
ATOM      5  C   UNL     1      47.285   8.686  12.597  0.00  0.00    +0.000 A 
ATOM      6  C   UNL     1      46.042   8.435  13.150  0.00  0.00    +0.000 A 
ATOM      7  N   UNL     1      45.289   7.338  12.878  0.00  0.00    +0.000 NA
ENDROOT
BRANCH   5   8
ATOM      8  C   UNL     1      48.106   9.878  12.910  0.00  0.00    +0.000 C 
ATOM      9  N   UNL     1      48.306  10.227  14.215  0.00  0.00    +0.000 N 
ATOM     10  O   UNL     1      48.615  10.553  12.020  0.00  0.00    +0.000 OA
ATOM     11  H   UNL     1      47.989   9.719  15.025  0.00  0.00    +0.000 HD
ATOM     12  H   UNL     1      48.898  11.034  14.376  0.00  0.00    +0.000 HD
ENDBRANCH   5   8
BRANCH   1  14
ATOM     13  C   UNL     1      42.650   5.113  12.387  0.00  0.00    +0.000 C 
ATOM     14  C   UNL     1      44.098   4.860  12.809  0.00  0.00    +0.000 C 
ENDBRANCH   1  14
BRANCH   1  15
ATOM     15  C   UNL     1      44.525   5.254  10.400  0.00  0.00    +0.000 C 
BRANCH  15  16
ATOM     16  C   UNL     1      45.155   4.228   9.476  0.00  0.00    +0.000 A 
ATOM     17  C   UNL     1      44.907   2.862   9.699  0.00  0.00    +0.000 A 
ATOM     18  C   UNL     1      45.445   1.889   8.853  0.00  0.00    +0.000 A 
ATOM     19  C   UNL     1      46.225   2.269   7.763  0.00  0.00    +0.000 A 
ATOM     20  C   UNL     1      46.446   3.619   7.505  0.00  0.00    +0.000 A 
ATOM     21  C   UNL     1      45.907   4.593   8.350  0.00  0.00    +0.000 A 
ENDBRANCH  15  16
ENDBRANCH   1  15
TORSDOF 4
ENDMDL
MODEL 3
REMARK VINA RESULT:    -5.567      4.983      7.342
REMARK INTER + INTRA:          -7.511
REMARK INTER:                  -6.850
REMARK INTRA:                  -0.661
REMARK UNBOUND:                -0.642
REMARK  Name = 
REMARK  5 active torsions:
REMARK  status: ('A' for Active; 'I' for Inactive)
REMARK    1  A    between atoms: C_1  and  C_2
REMARK    2  A    between atoms: C_2  and  N_3
REMARK    3  A    between atoms: N_3  and  C_4
REMARK    4  A    between atoms: C_4  and  C_5
REMARK    5  A    between atoms: C_14  and  C_15
REMARK                            x       y       z     vdW  Elec       q    Type
REMARK                         _______ _______ _______ _____ _____    ______ ____
ROOT
ATOM      1  N   UNL     1      47.860   5.617  14.646  0.00  0.00    +0.000 N 
ATOM      2  C   UNL     1      46.807   5.243  13.782  0.00  0.00    +0.000 A 
ATOM      3  C   UNL     1      46.688   3.897  13.427  0.00  0.00    +0.000 A 
ATOM      4  C   UNL     1      45.702   3.501  12.524  0.00  0.00    +0.000 A 
ATOM      5  C   UNL     1      44.850   4.456  11.972  0.00  0.00    +0.000 A 
ATOM      6  C   UNL     1      45.021   5.765  12.389  0.00  0.00    +0.000 A 
ATOM      7  N   UNL     1      45.965   6.169  13.278  0.00  0.00    +0.000 NA
ENDROOT
BRANCH   5   8
ATOM      8  C   UNL     1      43.828   4.025  10.991  0.00  0.00    +0.000 C 
ATOM      9  N   UNL     1      43.758   4.654   9.781  0.00  0.00    +0.000 N 
ATOM     10  O   UNL     1      43.048   3.111  11.242  0.00  0.00    +0.000 OA
ATOM     11  H   UNL     1      44.377   5.373   9.444  0.00  0.00    +0.000 HD
ATOM     12  H   UNL     1      43.059   4.304   9.135  0.00  0.00    +0.000 HD
ENDBRANCH   5   8
BRANCH   1  14
ATOM     13  C   UNL     1      49.411   7.301  13.609  0.00  0.00    +0.000 C 
ATOM     14  C   UNL     1      48.239   7.042  14.555  0.00  0.00    +0.000 C 
ENDBRANCH   1  14
BRANCH   1  15
ATOM     15  C   UNL     1      47.555   5.164  16.022  0.00  0.00    +0.000 C 
BRANCH  15  16
ATOM     16  C   UNL     1      48.660   4.316  16.625  0.00  0.00    +0.000 A 
ATOM     17  C   UNL     1      48.576   2.916  16.534  0.00  0.00    +0.000 A 
ATOM     18  C   UNL     1      49.587   2.102  17.052  0.00  0.00    +0.000 A 
ATOM     19  C   UNL     1      50.704   2.678  17.652  0.00  0.00    +0.000 A 
ATOM     20  C   UNL     1      50.822   4.064  17.712  0.00  0.00    +0.000 A 
ATOM     21  C   UNL     1      49.812   4.878  17.194  0.00  0.00    +0.000 A 
ENDBRANCH  15  16
ENDBRANCH   1  15
TORSDOF 4
ENDMDL
MODEL 4
REMARK VINA RESULT:    -5.505      3.583      6.817
REMARK INTER + INTRA:          -7.435
REMARK INTER:                  -6.738
REMARK INTRA:                  -0.697
REMARK UNBOUND:                -0.642
REMARK  Name = 
REMARK  5 active torsions:
REMARK  status: ('A' for Active; 'I' for Inactive)
REMARK    1  A    between atoms: C_1  and  C_2
REMARK    2  A    between atoms: C_2  and  N_3
REMARK    3  A    between atoms: N_3  and  C_4
REMARK    4  A    between atoms: C_4  and  C_5
REMARK    5  A    between atoms: C_14  and  C_15
REMARK                            x       y       z     vdW  Elec       q    Type
REMARK                         _______ _______ _______ _____ _____    ______ ____
ROOT
ATOM      1  N   UNL     1      48.060   6.964  13.321  0.00  0.00    +0.000 N 
ATOM      2  C   UNL     1      47.113   6.009  12.892  0.00  0.00    +0.000 A 
ATOM      3  C   UNL     1      46.325   6.310  11.779  0.00  0.00    +0.000 A 
ATOM      4  C   UNL     1      45.334   5.419  11.366  0.00  0.00    +0.000 A 
ATOM      5  C   UNL     1      45.129   4.239  12.078  0.00  0.00    +0.000 A 
ATOM      6  C   UNL     1      45.962   4.006  13.159  0.00  0.00    +0.000 A 
ATOM      7  N   UNL     1      46.943   4.852  13.567  0.00  0.00    +0.000 NA
ENDROOT
BRANCH   5   8
ATOM      8  C   UNL     1      44.053   3.318  11.648  0.00  0.00    +0.000 C 
ATOM      9  N   UNL     1      43.724   2.258  12.443  0.00  0.00    +0.000 N 
ATOM     10  O   UNL     1      43.447   3.493  10.595  0.00  0.00    +0.000 OA
ATOM     11  H   UNL     1      44.109   2.049  13.350  0.00  0.00    +0.000 HD
ATOM     12  H   UNL     1      42.962   1.673  12.117  0.00  0.00    +0.000 HD
ENDBRANCH   5   8
BRANCH   1  14
ATOM     13  C   UNL     1      48.688   8.168  15.436  0.00  0.00    +0.000 C 
ATOM     14  C   UNL     1      48.456   6.828  14.737  0.00  0.00    +0.000 C 
ENDBRANCH   1  14
BRANCH   1  15
ATOM     15  C   UNL     1      49.201   6.987  12.379  0.00  0.00    +0.000 C 
BRANCH  15  16
ATOM     16  C   UNL     1      49.471   8.368  11.808  0.00  0.00    +0.000 A 
ATOM     17  C   UNL     1      48.431   9.313  11.782  0.00  0.00    +0.000 A 
ATOM     18  C   UNL     1      48.647  10.603  11.292  0.00  0.00    +0.000 A 
ATOM     19  C   UNL     1      49.911  10.971  10.835  0.00  0.00    +0.000 A 
ATOM     20  C   UNL     1      50.962  10.059  10.893  0.00  0.00    +0.000 A 
ATOM     21  C   UNL     1      50.746   8.769  11.385  0.00  0.00    +0.000 A 
ENDBRANCH  15  16
ENDBRANCH   1  15
TORSDOF 4
ENDMDL
MODEL 5
REMARK VINA RESULT:    -5.485      2.187      2.743
REMARK INTER + INTRA:          -7.409
REMARK INTER:                  -8.383
REMARK INTRA:                   0.974
REMARK UNBOUND:                -0.642
REMARK  Name = 
REMARK  5 active torsions:
REMARK  status: ('A' for Active; 'I' for Inactive)
REMARK    1  A    between atoms: C_1  and  C_2
REMARK    2  A    between atoms: C_2  and  N_3
REMARK    3  A    between atoms: N_3  and  C_4
REMARK    4  A    between atoms: C_4  and  C_5
REMARK    5  A    between atoms: C_14  and  C_15
REMARK                            x       y       z     vdW  Elec       q    Type
REMARK                         _______ _______ _______ _____ _____    ______ ____
ROOT
ATOM      1  N   UNL     1      44.081   4.188  11.643  0.00  0.00    +0.000 N 
ATOM      2  C   UNL     1      45.301   4.763  12.061  0.00  0.00    +0.000 A 
ATOM      3  C   UNL     1      45.954   4.203  13.162  0.00  0.00    +0.000 A 
ATOM      4  C   UNL     1      47.126   4.785  13.644  0.00  0.00    +0.000 A 
ATOM      5  C   UNL     1      47.630   5.931  13.031  0.00  0.00    +0.000 A 
ATOM      6  C   UNL     1      46.934   6.413  11.936  0.00  0.00    +0.000 A 
ATOM      7  N   UNL     1      45.800   5.853  11.441  0.00  0.00    +0.000 NA
ENDROOT
BRANCH   5   8
ATOM      8  C   UNL     1      48.857   6.555  13.574  0.00  0.00    +0.000 C 
ATOM      9  N   UNL     1      49.736   7.153  12.717  0.00  0.00    +0.000 N 
ATOM     10  O   UNL     1      49.096   6.551  14.778  0.00  0.00    +0.000 OA
ATOM     11  H   UNL     1      49.619   7.269  11.724  0.00  0.00    +0.000 HD
ATOM     12  H   UNL     1      50.548   7.590  13.141  0.00  0.00    +0.000 HD
ENDBRANCH   5   8
BRANCH   1  14
ATOM     13  C   UNL     1      42.229   5.886  11.728  0.00  0.00    +0.000 C 
ATOM     14  C   UNL     1      43.218   5.101  10.865  0.00  0.00    +0.000 C 
ENDBRANCH   1  14
BRANCH   1  15
ATOM     15  C   UNL     1      44.348   2.897  10.969  0.00  0.00    +0.000 C 
BRANCH  15  16
ATOM     16  C   UNL     1      45.093   3.057   9.657  0.00  0.00    +0.000 A 
ATOM     17  C   UNL     1      45.597   1.914   9.011  0.00  0.00    +0.000 A 
ATOM     18  C   UNL     1      46.264   2.018   7.788  0.00  0.00    +0.000 A 
ATOM     19  C   UNL     1      46.421   3.264   7.185  0.00  0.00    +0.000 A 
ATOM     20  C   UNL     1      45.892   4.400   7.791  0.00  0.00    +0.000 A 
ATOM     21  C   UNL     1      45.224   4.297   9.014  0.00  0.00    +0.000 A 
ENDBRANCH  15  16
ENDBRANCH   1  15
TORSDOF 4
ENDMDL
MODEL 6
REMARK VINA RESULT:    -5.436      4.085      7.409
REMARK INTER + INTRA:          -7.350
REMARK INTER:                  -6.657
REMARK INTRA:                  -0.693
REMARK UNBOUND:                -0.642
REMARK  Name = 
REMARK  5 active torsions:
REMARK  status: ('A' for Active; 'I' for Inactive)
REMARK    1  A    between atoms: C_1  and  C_2
REMARK    2  A    between atoms: C_2  and  N_3
REMARK    3  A    between atoms: N_3  and  C_4
REMARK    4  A    between atoms: C_4  and  C_5
REMARK    5  A    between atoms: C_14  and  C_15
REMARK                            x       y       z     vdW  Elec       q    Type
REMARK                         _______ _______ _______ _____ _____    ______ ____
ROOT
ATOM      1  N   UNL     1      48.369   6.934  12.941  0.00  0.00    +0.000 N 
ATOM      2  C   UNL     1      47.213   6.159  12.702  0.00  0.00    +0.000 A 
ATOM      3  C   UNL     1      47.071   4.952  13.390  0.00  0.00    +0.000 A 
ATOM      4  C   UNL     1      45.975   4.128  13.130  0.00  0.00    +0.000 A 
ATOM      5  C   UNL     1      45.036   4.512  12.174  0.00  0.00    +0.000 A 
ATOM      6  C   UNL     1      45.240   5.730  11.550  0.00  0.00    +0.000 A 
ATOM      7  N   UNL     1      46.291   6.554  11.799  0.00  0.00    +0.000 NA
ENDROOT
BRANCH   5   8
ATOM      8  C   UNL     1      43.896   3.613  11.887  0.00  0.00    +0.000 C 
ATOM      9  N   UNL     1      43.806   2.419  12.542  0.00  0.00    +0.000 N 
ATOM     10  O   UNL     1      43.028   3.924  11.076  0.00  0.00    +0.000 OA
ATOM     11  H   UNL     1      44.422   2.085  13.265  0.00  0.00    +0.000 HD
ATOM     12  H   UNL     1      42.991   1.852  12.330  0.00  0.00    +0.000 HD
ENDBRANCH   5   8
BRANCH   1  14
ATOM     13  C   UNL     1      50.151   7.756  11.370  0.00  0.00    +0.000 C 
ATOM     14  C   UNL     1      48.704   7.872  11.850  0.00  0.00    +0.000 C 
ENDBRANCH   1  14
BRANCH   1  15
ATOM     15  C   UNL     1      48.268   7.575  14.272  0.00  0.00    +0.000 C 
BRANCH  15  16
ATOM     16  C   UNL     1      49.351   7.117  15.233  0.00  0.00    +0.000 A 
ATOM     17  C   UNL     1      49.020   6.218  16.261  0.00  0.00    +0.000 A 
ATOM     18  C   UNL     1      49.994   5.752  17.147  0.00  0.00    +0.000 A 
ATOM     19  C   UNL     1      51.317   6.166  17.007  0.00  0.00    +0.000 A 
ATOM     20  C   UNL     1      51.668   7.025  15.969  0.00  0.00    +0.000 A 
ATOM     21  C   UNL     1      50.695   7.490  15.081  0.00  0.00    +0.000 A 
ENDBRANCH  15  16
ENDBRANCH   1  15
TORSDOF 4
ENDMDL
MODEL 7
REMARK VINA RESULT:    -5.362      2.290      3.251
REMARK INTER + INTRA:          -7.258
REMARK INTER:                  -6.625
REMARK INTRA:                  -0.633
REMARK UNBOUND:                -0.642
REMARK  Name = 
REMARK  5 active torsions:
REMARK  status: ('A' for Active; 'I' for Inactive)
REMARK    1  A    between atoms: C_1  and  C_2
REMARK    2  A    between atoms: C_2  and  N_3
REMARK    3  A    between atoms: N_3  and  C_4
REMARK    4  A    between atoms: C_4  and  C_5
REMARK    5  A    between atoms: C_14  and  C_15
REMARK                            x       y       z     vdW  Elec       q    Type
REMARK                         _______ _______ _______ _____ _____    ______ ____
ROOT
ATOM      1  N   UNL     1      46.453   5.601  12.373  0.00  0.00    +0.000 N 
ATOM      2  C   UNL     1      47.191   6.794  12.536  0.00  0.00    +0.000 A 
ATOM      3  C   UNL     1      47.990   7.228  11.476  0.00  0.00    +0.000 A 
ATOM      4  C   UNL     1      48.783   8.366  11.625  0.00  0.00    +0.000 A 
ATOM      5  C   UNL     1      48.782   9.054  12.837  0.00  0.00    +0.000 A 
ATOM      6  C   UNL     1      47.949   8.569  13.831  0.00  0.00    +0.000 A 
ATOM      7  N   UNL     1      47.158   7.473  13.702  0.00  0.00    +0.000 NA
ENDROOT
BRANCH   5   8
ATOM      8  C   UNL     1      49.652  10.241  12.990  0.00  0.00    +0.000 C 
ATOM      9  N   UNL     1      50.373  10.395  14.139  0.00  0.00    +0.000 N 
ATOM     10  O   UNL     1      49.743  11.084  12.103  0.00  0.00    +0.000 OA
ATOM     11  H   UNL     1      50.424   9.744  14.906  0.00  0.00    +0.000 HD
ATOM     12  H   UNL     1      50.975  11.211  14.184  0.00  0.00    +0.000 HD
ENDBRANCH   5   8
BRANCH   1  14
ATOM     13  C   UNL     1      46.973   3.759  14.004  0.00  0.00    +0.000 C 
ATOM     14  C   UNL     1      46.077   4.945  13.642  0.00  0.00    +0.000 C 
ENDBRANCH   1  14
BRANCH   1  15
ATOM     15  C   UNL     1      45.311   5.845  11.464  0.00  0.00    +0.000 C 
BRANCH  15  16
ATOM     16  C   UNL     1      45.171   4.782  10.389  0.00  0.00    +0.000 A 
ATOM     17  C   UNL     1      45.719   5.018   9.116  0.00  0.00    +0.000 A 
ATOM     18  C   UNL     1      45.636   4.053   8.110  0.00  0.00    +0.000 A 
ATOM     19  C   UNL     1      45.018   2.831   8.368  0.00  0.00    +0.000 A 
ATOM     20  C   UNL     1      44.507   2.566   9.635  0.00  0.00    +0.000 A 
ATOM     21  C   UNL     1      44.591   3.531  10.643  0.00  0.00    +0.000 A 
ENDBRANCH  15  16
ENDBRANCH   1  15
TORSDOF 4
ENDMDL
MODEL 8
REMARK VINA RESULT:    -5.306      4.810      6.624
REMARK INTER + INTRA:          -7.189
REMARK INTER:                  -6.592
REMARK INTRA:                  -0.596
REMARK UNBOUND:                -0.642
REMARK  Name = 
REMARK  5 active torsions:
REMARK  status: ('A' for Active; 'I' for Inactive)
REMARK    1  A    between atoms: C_1  and  C_2
REMARK    2  A    between atoms: C_2  and  N_3
REMARK    3  A    between atoms: N_3  and  C_4
REMARK    4  A    between atoms: C_4  and  C_5
REMARK    5  A    between atoms: C_14  and  C_15
REMARK                            x       y       z     vdW  Elec       q    Type
REMARK                         _______ _______ _______ _____ _____    ______ ____
ROOT
ATOM      1  N   UNL     1      46.965   4.749  13.663  0.00  0.00    +0.000 N 
ATOM      2  C   UNL     1      47.295   4.701  15.035  0.00  0.00    +0.000 A 
ATOM      3  C   UNL     1      48.216   5.628  15.529  0.00  0.00    +0.000 A 
ATOM      4  C   UNL     1      48.615   5.569  16.864  0.00  0.00    +0.000 A 
ATOM      5  C   UNL     1      48.102   4.574  17.693  0.00  0.00    +0.000 A 
ATOM      6  C   UNL     1      47.182   3.704  17.133  0.00  0.00    +0.000 A 
ATOM      7  N   UNL     1      46.768   3.754  15.840  0.00  0.00    +0.000 NA
ENDROOT
BRANCH   5   8
ATOM      8  C   UNL     1      48.559   4.503  19.099  0.00  0.00    +0.000 C 
ATOM      9  N   UNL     1      48.470   3.318  19.771  0.00  0.00    +0.000 N 
ATOM     10  O   UNL     1      49.021   5.487  19.669  0.00  0.00    +0.000 OA
ATOM     11  H   UNL     1      48.165   2.437  19.392  0.00  0.00    +0.000 HD
ATOM     12  H   UNL     1      48.822   3.316  20.723  0.00  0.00    +0.000 HD
ENDBRANCH   5   8
BRANCH   1  14
ATOM     13  C   UNL     1      45.163   3.652  12.296  0.00  0.00    +0.000 C 
ATOM     14  C   UNL     1      46.437   3.479  13.124  0.00  0.00    +0.000 C 
ENDBRANCH   1  14
BRANCH   1  15
ATOM     15  C   UNL     1      46.095   5.918  13.404  0.00  0.00    +0.000 C 
BRANCH  15  16
ATOM     16  C   UNL     1      46.847   7.094  12.807  0.00  0.00    +0.000 A 
ATOM     17  C   UNL     1      46.359   8.396  13.015  0.00  0.00    +0.000 A 
ATOM     18  C   UNL     1      47.038   9.506  12.505  0.00  0.00    +0.000 A 
ATOM     19  C   UNL     1      48.223   9.330  11.794  0.00  0.00    +0.000 A 
ATOM     20  C   UNL     1      48.741   8.050  11.615  0.00  0.00    +0.000 A 
ATOM     21  C   UNL     1      48.063   6.940  12.126  0.00  0.00    +0.000 A 
ENDBRANCH  15  16
ENDBRANCH   1  15
TORSDOF 4
ENDMDL
MODEL 9
REMARK VINA RESULT:    -5.152      5.141      6.621
REMARK INTER + INTRA:          -6.999
REMARK INTER:                  -6.360
REMARK INTRA:                  -0.639
REMARK UNBOUND:                -0.642
REMARK  Name = 
REMARK  5 active torsions:
REMARK  status: ('A' for Active; 'I' for Inactive)
REMARK    1  A    between atoms: C_1  and  C_2
REMARK    2  A    between atoms: C_2  and  N_3
REMARK    3  A    between atoms: N_3  and  C_4
REMARK    4  A    between atoms: C_4  and  C_5
REMARK    5  A    between atoms: C_14  and  C_15
REMARK                            x       y       z     vdW  Elec       q    Type
REMARK                         _______ _______ _______ _____ _____    ______ ____
ROOT
ATOM      1  N   UNL     1      47.134   5.441  14.382  0.00  0.00    +0.000 N 
ATOM      2  C   UNL     1      47.716   5.141  15.633  0.00  0.00    +0.000 A 
ATOM      3  C   UNL     1      46.902   4.594  16.628  0.00  0.00    +0.000 A 
ATOM      4  C   UNL     1      47.426   4.346  17.897  0.00  0.00    +0.000 A 
ATOM      5  C   UNL     1      48.757   4.659  18.166  0.00  0.00    +0.000 A 
ATOM      6  C   UNL     1      49.501   5.182  17.122  0.00  0.00    +0.000 A 
ATOM      7  N   UNL     1      49.014   5.416  15.876  0.00  0.00    +0.000 NA
ENDROOT
BRANCH   5   8
ATOM      8  C   UNL     1      49.290   4.420  19.525  0.00  0.00    +0.000 C 
ATOM      9  N   UNL     1      48.531   3.735  20.429  0.00  0.00    +0.000 N 
ATOM     10  O   UNL     1      50.404   4.820  19.853  0.00  0.00    +0.000 OA
ATOM     11  H   UNL     1      47.634   3.311  20.258  0.00  0.00    +0.000 HD
ATOM     12  H   UNL     1      48.953   3.574  21.338  0.00  0.00    +0.000 HD
ENDBRANCH   5   8
BRANCH   1  14
ATOM     13  C   UNL     1      47.173   7.819  13.565  0.00  0.00    +0.000 C 
ATOM     14  C   UNL     1      47.869   6.458  13.602  0.00  0.00    +0.000 C 
ENDBRANCH   1  14
BRANCH   1  15
ATOM     15  C   UNL     1      46.879   4.186  13.641  0.00  0.00    +0.000 C 
BRANCH  15  16
ATOM     16  C   UNL     1      45.549   4.190  12.909  0.00  0.00    +0.000 A 
ATOM     17  C   UNL     1      45.289   3.191  11.955  0.00  0.00    +0.000 A 
ATOM     18  C   UNL     1      44.066   3.145  11.281  0.00  0.00    +0.000 A 
ATOM     19  C   UNL     1      43.080   4.086  11.565  0.00  0.00    +0.000 A 
ATOM     20  C   UNL     1      43.307   5.057  12.537  0.00  0.00    +0.000 A 
ATOM     21  C   UNL     1      44.529   5.103  13.212  0.00  0.00    +0.000 A 
ENDBRANCH  15  16
ENDBRANCH   1  15
TORSDOF 4
ENDMDL
