MODEL 1
REMARK VINA RESULT:    -8.152      0.000      0.000
REMARK INTER + INTRA:         -10.990
REMARK INTER:                 -10.296
REMARK INTRA:                  -0.694
REMARK UNBOUND:                -0.694
REMARK  Name = 
REMARK  5 active torsions:
REMARK  status: ('A' for Active; 'I' for Inactive)
REMARK    1  A    between atoms: C_2  and  C_4
REMARK    2  A    between atoms: N_8  and  C_9
REMARK    3  A    between atoms: C_9  and  C_10
REMARK    4  A    between atoms: C_13  and  N_14
REMARK    5  A    between atoms: C_17  and  N_18
REMARK                            x       y       z     vdW  Elec       q    Type
REMARK                         _______ _______ _______ _____ _____    ______ ____
ROOT
ATOM      1  C   UNL     1      44.433   4.667  11.685  0.00  0.00    +0.000 A 
ATOM      2  C   UNL     1      44.405   6.039  11.424  0.00  0.00    +0.000 A 
ATOM      3  C   UNL     1      45.340   6.883  12.018  0.00  0.00    +0.000 A 
ATOM      4  C   UNL     1      46.340   6.400  12.876  0.00  0.00    +0.000 A 
ATOM      5  C   UNL     1      46.330   5.029  13.158  0.00  0.00    +0.000 A 
ATOM      6  C   UNL     1      45.398   4.170  12.567  0.00  0.00    +0.000 A 
ENDROOT
BRANCH   4   7
ATOM      7  N   UNL     1      47.266   7.269  13.418  0.00  0.00    +0.000 N 
ATOM      8  C   UNL     1      47.095   8.719  13.367  0.00  0.00    +0.000 C 
ATOM      9  C   UNL     1      48.448   9.354  13.041  0.00  0.00    +0.000 C 
ATOM     10  C   UNL     1      49.570   8.880  13.978  0.00  0.00    +0.000 C 
ATOM     11  C   UNL     1      49.607   7.348  14.041  0.00  0.00    +0.000 C 
ATOM     12  C   UNL     1      48.244   6.762  14.387  0.00  0.00    +0.000 C 
BRANCH  10  13
ATOM     13  N   UNL     1      49.443   9.455  15.321  0.00  0.00    +0.000 NA
ATOM     14  H   UNL     1      49.579   8.739  16.034  0.00  0.00    +0.000 HD
ATOM     15  H   UNL     1      48.496   9.808  15.456  0.00  0.00    +0.000 HD
ENDBRANCH  10  13
ENDBRANCH   4   7
BRANCH   1  16
ATOM     16  C   UNL     1      43.463   3.741  11.006  0.00  0.00    +0.000 C 
BRANCH  16  21
ATOM     17  C   UNL     1      46.590   2.471   7.160  0.00  0.00    +0.000 A 
ATOM     18  C   UNL     1      45.926   3.656   7.449  0.00  0.00    +0.000 A 
ATOM     19  C   UNL     1      45.095   3.711   8.566  0.00  0.00    +0.000 A 
ATOM     20  C   UNL     1      44.924   2.584   9.366  0.00  0.00    +0.000 A 
ATOM     21  N   UNL     1      44.144   2.582  10.490  0.00  0.00    +0.000 N 
ATOM     22  N   UNL     1      45.537   1.420   9.071  0.00  0.00    +0.000 NA
ATOM     23  C   UNL     1      46.350   1.380   7.982  0.00  0.00    +0.000 A 
ATOM     24  H   UNL     1      44.026   1.679  10.931  0.00  0.00    +0.000 HD
BRANCH  17  26
ATOM     25  N   UNL     1      47.447   3.309   5.055  0.00  0.00    +0.000 N 
ATOM     26  C   UNL     1      47.519   2.343   6.024  0.00  0.00    +0.000 C 
ATOM     27  O   UNL     1      48.347   1.441   5.962  0.00  0.00    +0.000 OA
ATOM     28  H   UNL     1      48.158   3.272   4.334  0.00  0.00    +0.000 HD
ATOM     29  H   UNL     1      46.972   4.182   5.198  0.00  0.00    +0.000 HD
ENDBRANCH  17  26
ENDBRANCH  16  21
ENDBRANCH   1  16
TORSDOF 5
ENDMDL
MODEL 2
REMARK VINA RESULT:    -7.346      2.556      3.408
REMARK INTER + INTRA:          -9.973
REMARK INTER:                  -9.336
REMARK INTRA:                  -0.637
REMARK UNBOUND:                -0.694
REMARK  Name = 
REMARK  5 active torsions:
REMARK  status: ('A' for Active; 'I' for Inactive)
REMARK    1  A    between atoms: C_2  and  C_4
REMARK    2  A    between atoms: N_8  and  C_9
REMARK    3  A    between atoms: C_9  and  C_10
REMARK    4  A    between atoms: C_13  and  N_14
REMARK    5  A    between atoms: C_17  and  N_18
REMARK                            x       y       z     vdW  Elec       q    Type
REMARK                         _______ _______ _______ _____ _____    ______ ____
ROOT
ATOM      1  C   UNL     1      45.185   5.190  12.132  0.00  0.00    +0.000 A 
ATOM      2  C   UNL     1      45.166   4.002  12.865  0.00  0.00    +0.000 A 
ATOM      3  C   UNL     1      45.972   3.862  13.992  0.00  0.00    +0.000 A 
ATOM      4  C   UNL     1      46.811   4.896  14.440  0.00  0.00    +0.000 A 
ATOM      5  C   UNL     1      46.848   6.064  13.671  0.00  0.00    +0.000 A 
ATOM      6  C   UNL     1      46.042   6.217  12.539  0.00  0.00    +0.000 A 
ENDROOT
BRANCH   4   7
ATOM      7  N   UNL     1      47.570   4.726  15.581  0.00  0.00    +0.000 N 
ATOM      8  C   UNL     1      47.780   3.413  16.187  0.00  0.00    +0.000 C 
ATOM      9  C   UNL     1      47.674   3.560  17.707  0.00  0.00    +0.000 C 
ATOM     10  C   UNL     1      48.581   4.668  18.262  0.00  0.00    +0.000 C 
ATOM     11  C   UNL     1      48.358   5.980  17.499  0.00  0.00    +0.000 C 
ATOM     12  C   UNL     1      48.492   5.789  15.994  0.00  0.00    +0.000 C 
BRANCH  10  13
ATOM     13  N   UNL     1      49.996   4.283  18.238  0.00  0.00    +0.000 NA
ATOM     14  H   UNL     1      50.568   5.038  17.859  0.00  0.00    +0.000 HD
ATOM     15  H   UNL     1      50.125   3.491  17.609  0.00  0.00    +0.000 HD
ENDBRANCH  10  13
ENDBRANCH   4   7
BRANCH   1  16
ATOM     16  C   UNL     1      44.279   5.369  10.946  0.00  0.00    +0.000 C 
BRANCH  16  21
ATOM     17  C   UNL     1      46.664   2.449   7.486  0.00  0.00    +0.000 A 
ATOM     18  C   UNL     1      46.043   2.127   8.686  0.00  0.00    +0.000 A 
ATOM     19  C   UNL     1      45.496   3.149   9.459  0.00  0.00    +0.000 A 
ATOM     20  C   UNL     1      45.588   4.473   9.036  0.00  0.00    +0.000 A 
ATOM     21  N   UNL     1      45.047   5.515   9.737  0.00  0.00    +0.000 N 
ATOM     22  N   UNL     1      46.221   4.795   7.889  0.00  0.00    +0.000 NA
ATOM     23  C   UNL     1      46.746   3.789   7.141  0.00  0.00    +0.000 A 
ATOM     24  H   UNL     1      45.263   6.436   9.375  0.00  0.00    +0.000 HD
BRANCH  17  26
ATOM     25  N   UNL     1      48.204   1.838   5.719  0.00  0.00    +0.000 N 
ATOM     26  C   UNL     1      47.230   1.426   6.590  0.00  0.00    +0.000 C 
ATOM     27  O   UNL     1      46.878   0.252   6.642  0.00  0.00    +0.000 OA
ATOM     28  H   UNL     1      48.660   1.108   5.183  0.00  0.00    +0.000 HD
ATOM     29  H   UNL     1      48.688   2.711   5.824  0.00  0.00    +0.000 HD
ENDBRANCH  17  26
ENDBRANCH  16  21
ENDBRANCH   1  16
TORSDOF 5
ENDMDL
MODEL 3
REMARK VINA RESULT:    -6.669      5.588      7.281
REMARK INTER + INTRA:          -9.117
REMARK INTER:                  -8.477
REMARK INTRA:                  -0.640
REMARK UNBOUND:                -0.694
REMARK  Name = 
REMARK  5 active torsions:
REMARK  status: ('A' for Active; 'I' for Inactive)
REMARK    1  A    between atoms: C_2  and  C_4
REMARK    2  A    between atoms: N_8  and  C_9
REMARK    3  A    between atoms: C_9  and  C_10
REMARK    4  A    between atoms: C_13  and  N_14
REMARK    5  A    between atoms: C_17  and  N_18
REMARK                            x       y       z     vdW  Elec       q    Type
REMARK                         _______ _______ _______ _____ _____    ______ ____
ROOT
ATOM      1  C   UNL     1      48.691   4.196  16.648  0.00  0.00    +0.000 A 
ATOM      2  C   UNL     1      49.778   4.930  17.128  0.00  0.00    +0.000 A 
ATOM      3  C   UNL     1      50.922   4.273  17.578  0.00  0.00    +0.000 A 
ATOM      4  C   UNL     1      51.035   2.874  17.554  0.00  0.00    +0.000 A 
ATOM      5  C   UNL     1      49.922   2.153  17.107  0.00  0.00    +0.000 A 
ATOM      6  C   UNL     1      48.769   2.800  16.652  0.00  0.00    +0.000 A 
ENDROOT
BRANCH   4   7
ATOM      7  N   UNL     1      52.200   2.267  17.980  0.00  0.00    +0.000 N 
ATOM      8  C   UNL     1      53.120   2.916  18.909  0.00  0.00    +0.000 C 
ATOM      9  C   UNL     1      54.552   2.648  18.437  0.00  0.00    +0.000 C 
ATOM     10  C   UNL     1      54.832   1.156  18.205  0.00  0.00    +0.000 C 
ATOM     11  C   UNL     1      53.759   0.541  17.298  0.00  0.00    +0.000 C 
ATOM     12  C   UNL     1      52.353   0.817  17.816  0.00  0.00    +0.000 C 
BRANCH  10  13
ATOM     13  N   UNL     1      54.938   0.414  19.465  0.00  0.00    +0.000 NA
ATOM     14  H   UNL     1      55.906   0.382  19.784  0.00  0.00    +0.000 HD
ATOM     15  H   UNL     1      54.660  -0.556  19.317  0.00  0.00    +0.000 HD
ENDBRANCH  10  13
ENDBRANCH   4   7
BRANCH   1  16
ATOM     16  C   UNL     1      47.475   4.897  16.111  0.00  0.00    +0.000 C 
BRANCH  16  21
ATOM     17  C   UNL     1      45.586   4.842  11.355  0.00  0.00    +0.000 A 
ATOM     18  C   UNL     1      46.209   5.848  12.083  0.00  0.00    +0.000 A 
ATOM     19  C   UNL     1      46.598   5.590  13.396  0.00  0.00    +0.000 A 
ATOM     20  C   UNL     1      46.347   4.346  13.969  0.00  0.00    +0.000 A 
ATOM     21  N   UNL     1      46.729   4.024  15.242  0.00  0.00    +0.000 N 
ATOM     22  N   UNL     1      45.711   3.377  13.279  0.00  0.00    +0.000 NA
ATOM     23  C   UNL     1      45.341   3.638  11.997  0.00  0.00    +0.000 A 
ATOM     24  H   UNL     1      46.406   3.124  15.575  0.00  0.00    +0.000 HD
BRANCH  17  26
ATOM     25  N   UNL     1      43.878   4.737   9.641  0.00  0.00    +0.000 N 
ATOM     26  C   UNL     1      45.183   5.018   9.949  0.00  0.00    +0.000 C 
ATOM     27  O   UNL     1      45.962   5.433   9.099  0.00  0.00    +0.000 OA
ATOM     28  H   UNL     1      43.584   4.962   8.697  0.00  0.00    +0.000 HD
ATOM     29  H   UNL     1      43.165   4.647  10.342  0.00  0.00    +0.000 HD
ENDBRANCH  17  26
ENDBRANCH  16  21
ENDBRANCH   1  16
TORSDOF 5
ENDMDL
MODEL 4
REMARK VINA RESULT:    -5.953      3.826      5.814
REMARK INTER + INTRA:          -8.213
REMARK INTER:                  -7.617
REMARK INTRA:                  -0.596
REMARK UNBOUND:                -0.694
REMARK  Name = 
REMARK  5 active torsions:
REMARK  status: ('A' for Active; 'I' for Inactive)
REMARK    1  A    between atoms: C_2  and  C_4
REMARK    2  A    between atoms: N_8  and  C_9
REMARK    3  A    between atoms: C_9  and  C_10
REMARK    4  A    between atoms: C_13  and  N_14
REMARK    5  A    between atoms: C_17  and  N_18
REMARK                            x       y       z     vdW  Elec       q    Type
REMARK                         _______ _______ _______ _____ _____    ______ ____
ROOT
ATOM      1  C   UNL     1      48.016   8.732  12.170  0.00  0.00    +0.000 A 
ATOM      2  C   UNL     1      48.616   9.938  11.802  0.00  0.00    +0.000 A 
ATOM      3  C   UNL     1      49.948   9.960  11.394  0.00  0.00    +0.000 A 
ATOM      4  C   UNL     1      50.724   8.792  11.322  0.00  0.00    +0.000 A 
ATOM      5  C   UNL     1      50.119   7.599  11.732  0.00  0.00    +0.000 A 
ATOM      6  C   UNL     1      48.782   7.563  12.141  0.00  0.00    +0.000 A 
ENDROOT
BRANCH   4   7
ATOM      7  N   UNL     1      52.032   8.856  10.882  0.00  0.00    +0.000 N 
ATOM      8  C   UNL     1      52.444   9.743   9.797  0.00  0.00    +0.000 C 
ATOM      9  C   UNL     1      53.425   8.985   8.900  0.00  0.00    +0.000 C 
ATOM     10  C   UNL     1      54.588   8.359   9.685  0.00  0.00    +0.000 C 
ATOM     11  C   UNL     1      54.058   7.527  10.860  0.00  0.00    +0.000 C 
ATOM     12  C   UNL     1      53.102   8.328  11.735  0.00  0.00    +0.000 C 
BRANCH  10  13
ATOM     13  N   UNL     1      55.544   9.369  10.149  0.00  0.00    +0.000 NA
ATOM     14  H   UNL     1      55.662   9.317  11.160  0.00  0.00    +0.000 HD
ATOM     15  H   UNL     1      55.179  10.301   9.957  0.00  0.00    +0.000 HD
ENDBRANCH  10  13
ENDBRANCH   4   7
BRANCH   1  16
ATOM     16  C   UNL     1      46.564   8.690  12.559  0.00  0.00    +0.000 C 
BRANCH  16  21
ATOM     17  C   UNL     1      44.498   4.113  11.577  0.00  0.00    +0.000 A 
ATOM     18  C   UNL     1      44.620   5.252  10.791  0.00  0.00    +0.000 A 
ATOM     19  C   UNL     1      45.207   6.391  11.338  0.00  0.00    +0.000 A 
ATOM     20  C   UNL     1      45.649   6.385  12.659  0.00  0.00    +0.000 A 
ATOM     21  N   UNL     1      46.257   7.461  13.243  0.00  0.00    +0.000 N 
ATOM     22  N   UNL     1      45.501   5.294  13.438  0.00  0.00    +0.000 NA
ATOM     23  C   UNL     1      44.931   4.187  12.892  0.00  0.00    +0.000 A 
ATOM     24  H   UNL     1      46.447   7.365  14.233  0.00  0.00    +0.000 HD
BRANCH  17  26
ATOM     25  N   UNL     1      44.574   2.274  10.003  0.00  0.00    +0.000 N 
ATOM     26  C   UNL     1      43.928   2.855  11.062  0.00  0.00    +0.000 C 
ATOM     27  O   UNL     1      42.949   2.329  11.578  0.00  0.00    +0.000 OA
ATOM     28  H   UNL     1      44.239   1.358   9.725  0.00  0.00    +0.000 HD
ATOM     29  H   UNL     1      45.504   2.533   9.729  0.00  0.00    +0.000 HD
ENDBRANCH  17  26
ENDBRANCH  16  21
ENDBRANCH   1  16
TORSDOF 5
ENDMDL
MODEL 5
REMARK VINA RESULT:    -5.803      3.098      5.381
REMARK INTER + INTRA:          -8.023
REMARK INTER:                  -7.265
REMARK INTRA:                  -0.758
REMARK UNBOUND:                -0.694
REMARK  Name = 
REMARK  5 active torsions:
REMARK  status: ('A' for Active; 'I' for Inactive)
REMARK    1  A    between atoms: C_2  and  C_4
REMARK    2  A    between atoms: N_8  and  C_9
REMARK    3  A    between atoms: C_9  and  C_10
REMARK    4  A    between atoms: C_13  and  N_14
REMARK    5  A    between atoms: C_17  and  N_18
REMARK                            x       y       z     vdW  Elec       q    Type
REMARK                         _______ _______ _______ _____ _____    ______ ____
ROOT
ATOM      1  C   UNL     1      47.613   8.408  13.381  0.00  0.00    +0.000 A 
ATOM      2  C   UNL     1      48.645   7.642  12.834  0.00  0.00    +0.000 A 
ATOM      3  C   UNL     1      49.785   7.367  13.585  0.00  0.00    +0.000 A 
ATOM      4  C   UNL     1      49.937   7.825  14.904  0.00  0.00    +0.000 A 
ATOM      5  C   UNL     1      48.912   8.624  15.422  0.00  0.00    +0.000 A 
ATOM      6  C   UNL     1      47.761   8.906  14.680  0.00  0.00    +0.000 A 
ENDROOT
BRANCH   4   7
ATOM      7  N   UNL     1      51.071   7.501  15.623  0.00  0.00    +0.000 N 
ATOM      8  C   UNL     1      52.371   8.104  15.338  0.00  0.00    +0.000 C 
ATOM      9  C   UNL     1      53.439   7.012  15.427  0.00  0.00    +0.000 C 
ATOM     10  C   UNL     1      53.379   6.226  16.746  0.00  0.00    +0.000 C 
ATOM     11  C   UNL     1      51.955   5.718  17.005  0.00  0.00    +0.000 C 
ATOM     12  C   UNL     1      50.930   6.841  16.926  0.00  0.00    +0.000 C 
BRANCH  10  13
ATOM     13  N   UNL     1      53.866   7.018  17.880  0.00  0.00    +0.000 NA
ATOM     14  H   UNL     1      54.261   6.413  18.599  0.00  0.00    +0.000 HD
ATOM     15  H   UNL     1      53.085   7.503  18.320  0.00  0.00    +0.000 HD
ENDBRANCH  10  13
ENDBRANCH   4   7
BRANCH   1  16
ATOM     16  C   UNL     1      46.356   8.665  12.599  0.00  0.00    +0.000 C 
BRANCH  16  21
ATOM     17  C   UNL     1      44.206   4.150  11.508  0.00  0.00    +0.000 A 
ATOM     18  C   UNL     1      45.197   4.875  10.859  0.00  0.00    +0.000 A 
ATOM     19  C   UNL     1      45.571   6.117  11.369  0.00  0.00    +0.000 A 
ATOM     20  C   UNL     1      44.944   6.624  12.504  0.00  0.00    +0.000 A 
ATOM     21  N   UNL     1      45.286   7.823  13.067  0.00  0.00    +0.000 N 
ATOM     22  N   UNL     1      43.956   5.942  13.119  0.00  0.00    +0.000 NA
ATOM     23  C   UNL     1      43.604   4.729  12.615  0.00  0.00    +0.000 A 
ATOM     24  H   UNL     1      44.694   8.124  13.832  0.00  0.00    +0.000 HD
BRANCH  17  26
ATOM     25  N   UNL     1      44.417   2.303   9.957  0.00  0.00    +0.000 N 
ATOM     26  C   UNL     1      43.783   2.813  11.060  0.00  0.00    +0.000 C 
ATOM     27  O   UNL     1      42.935   2.165  11.662  0.00  0.00    +0.000 OA
ATOM     28  H   UNL     1      44.195   1.342   9.720  0.00  0.00    +0.000 HD
ATOM     29  H   UNL     1      45.274   2.684   9.603  0.00  0.00    +0.000 HD
ENDBRANCH  17  26
ENDBRANCH  16  21
ENDBRANCH   1  16
TORSDOF 5
ENDMDL
MODEL 6
REMARK VINA RESULT:    -5.719      5.861      8.796
REMARK INTER + INTRA:          -7.917
REMARK INTER:                  -7.154
REMARK INTRA:                  -0.763
REMARK UNBOUND:                -0.694
REMARK  Name = 
REMARK  5 active torsions:
REMARK  status: ('A' for Active; 'I' for Inactive)
REMARK    1  A    between atoms: C_2  and  C_4
REMARK    2  A    between atoms: N_8  and  C_9
REMARK    3  A    between atoms: C_9  and  C_10
REMARK    4  A    between atoms: C_13  and  N_14
REMARK    5  A    between atoms: C_17  and  N_18
REMARK                            x       y       z     vdW  Elec       q    Type
REMARK                         _______ _______ _______ _____ _____    ______ ____
ROOT
ATOM      1  C   UNL     1      48.643   4.340  17.231  0.00  0.00    +0.000 A 
ATOM      2  C   UNL     1      48.917   5.579  16.649  0.00  0.00    +0.000 A 
ATOM      3  C   UNL     1      48.294   5.945  15.457  0.00  0.00    +0.000 A 
ATOM      4  C   UNL     1      47.372   5.106  14.812  0.00  0.00    +0.000 A 
ATOM      5  C   UNL     1      47.139   3.852  15.388  0.00  0.00    +0.000 A 
ATOM      6  C   UNL     1      47.756   3.474  16.585  0.00  0.00    +0.000 A 
ENDROOT
BRANCH   4   7
ATOM      7  N   UNL     1      46.754   5.522  13.649  0.00  0.00    +0.000 N 
ATOM      8  C   UNL     1      47.459   6.291  12.627  0.00  0.00    +0.000 C 
ATOM      9  C   UNL     1      46.522   7.389  12.116  0.00  0.00    +0.000 C 
ATOM     10  C   UNL     1      45.155   6.845  11.672  0.00  0.00    +0.000 C 
ATOM     11  C   UNL     1      44.540   5.971  12.772  0.00  0.00    +0.000 C 
ATOM     12  C   UNL     1      45.500   4.883  13.235  0.00  0.00    +0.000 C 
BRANCH  10  13
ATOM     13  N   UNL     1      45.242   6.108  10.407  0.00  0.00    +0.000 NA
ATOM     14  H   UNL     1      45.201   6.748   9.614  0.00  0.00    +0.000 HD
ATOM     15  H   UNL     1      44.434   5.493  10.313  0.00  0.00    +0.000 HD
ENDBRANCH  10  13
ENDBRANCH   4   7
BRANCH   1  16
ATOM     16  C   UNL     1      49.269   3.960  18.544  0.00  0.00    +0.000 C 
BRANCH  16  21
ATOM     17  C   UNL     1      53.454   1.294  17.294  0.00  0.00    +0.000 A 
ATOM     18  C   UNL     1      52.120   0.918  17.383  0.00  0.00    +0.000 A 
ATOM     19  C   UNL     1      51.178   1.861  17.789  0.00  0.00    +0.000 A 
ATOM     20  C   UNL     1      51.578   3.154  18.116  0.00  0.00    +0.000 A 
ATOM     21  N   UNL     1      50.698   4.130  18.495  0.00  0.00    +0.000 N 
ATOM     22  N   UNL     1      52.876   3.515  18.066  0.00  0.00    +0.000 NA
ATOM     23  C   UNL     1      53.786   2.589  17.662  0.00  0.00    +0.000 A 
ATOM     24  H   UNL     1      51.121   4.999  18.796  0.00  0.00    +0.000 HD
BRANCH  17  26
ATOM     25  N   UNL     1      54.102  -0.689  16.065  0.00  0.00    +0.000 N 
ATOM     26  C   UNL     1      54.506   0.372  16.831  0.00  0.00    +0.000 C 
ATOM     27  O   UNL     1      55.690   0.561  17.083  0.00  0.00    +0.000 OA
ATOM     28  H   UNL     1      54.841  -1.257  15.664  0.00  0.00    +0.000 HD
ATOM     29  H   UNL     1      53.197  -0.730  15.633  0.00  0.00    +0.000 HD
ENDBRANCH  17  26
ENDBRANCH  16  21
ENDBRANCH   1  16
TORSDOF 5
ENDMDL
MODEL 7
REMARK VINA RESULT:    -5.647      4.977      6.996
REMARK INTER + INTRA:          -7.826
REMARK INTER:                  -7.228
REMARK INTRA:                  -0.598
REMARK UNBOUND:                -0.694
REMARK  Name = 
REMARK  5 active torsions:
REMARK  status: ('A' for Active; 'I' for Inactive)
REMARK    1  A    between atoms: C_2  and  C_4
REMARK    2  A    between atoms: N_8  and  C_9
REMARK    3  A    between atoms: C_9  and  C_10
REMARK    4  A    between atoms: C_13  and  N_14
REMARK    5  A    between atoms: C_17  and  N_18
REMARK                            x       y       z     vdW  Elec       q    Type
REMARK                         _______ _______ _______ _____ _____    ______ ____
ROOT
ATOM      1  C   UNL     1      48.582   4.175  16.792  0.00  0.00    +0.000 A 
ATOM      2  C   UNL     1      49.290   5.367  16.956  0.00  0.00    +0.000 A 
ATOM      3  C   UNL     1      50.587   5.346  17.464  0.00  0.00    +0.000 A 
ATOM      4  C   UNL     1      51.231   4.147  17.811  0.00  0.00    +0.000 A 
ATOM      5  C   UNL     1      50.493   2.966  17.677  0.00  0.00    +0.000 A 
ATOM      6  C   UNL     1      49.192   2.973  17.166  0.00  0.00    +0.000 A 
ENDROOT
BRANCH   4   7
ATOM      7  N   UNL     1      52.529   4.171  18.281  0.00  0.00    +0.000 N 
ATOM      8  C   UNL     1      53.610   4.823  17.546  0.00  0.00    +0.000 C 
ATOM      9  C   UNL     1      54.853   3.932  17.624  0.00  0.00    +0.000 C 
ATOM     10  C   UNL     1      55.212   3.537  19.065  0.00  0.00    +0.000 C 
ATOM     11  C   UNL     1      53.990   2.954  19.784  0.00  0.00    +0.000 C 
ATOM     12  C   UNL     1      52.785   3.882  19.696  0.00  0.00    +0.000 C 
BRANCH  10  13
ATOM     13  N   UNL     1      55.775   4.662  19.819  0.00  0.00    +0.000 NA
ATOM     14  H   UNL     1      56.572   4.359  20.378  0.00  0.00    +0.000 HD
ATOM     15  H   UNL     1      55.083   5.010  20.483  0.00  0.00    +0.000 HD
ENDBRANCH  10  13
ENDBRANCH   4   7
BRANCH   1  16
ATOM     16  C   UNL     1      47.203   4.183  16.194  0.00  0.00    +0.000 C 
BRANCH  16  21
ATOM     17  C   UNL     1      45.471   4.825  11.421  0.00  0.00    +0.000 A 
ATOM     18  C   UNL     1      45.605   3.684  12.203  0.00  0.00    +0.000 A 
ATOM     19  C   UNL     1      46.150   3.800  13.480  0.00  0.00    +0.000 A 
ATOM     20  C   UNL     1      46.567   5.042  13.952  0.00  0.00    +0.000 A 
ATOM     21  N   UNL     1      47.084   5.223  15.206  0.00  0.00    +0.000 N 
ATOM     22  N   UNL     1      46.473   6.147  13.185  0.00  0.00    +0.000 NA
ATOM     23  C   UNL     1      45.935   6.023  11.943  0.00  0.00    +0.000 A 
ATOM     24  H   UNL     1      47.436   6.153  15.396  0.00  0.00    +0.000 HD
BRANCH  17  26
ATOM     25  N   UNL     1      43.561   5.200   9.980  0.00  0.00    +0.000 N 
ATOM     26  C   UNL     1      44.866   4.796  10.078  0.00  0.00    +0.000 C 
ATOM     27  O   UNL     1      45.506   4.465   9.086  0.00  0.00    +0.000 OA
ATOM     28  H   UNL     1      43.187   5.277   9.041  0.00  0.00    +0.000 HD
ATOM     29  H   UNL     1      43.098   5.710  10.710  0.00  0.00    +0.000 HD
ENDBRANCH  17  26
ENDBRANCH  16  21
ENDBRANCH   1  16
TORSDOF 5
ENDMDL
MODEL 8
REMARK VINA RESULT:    -5.628      4.356      7.753
REMARK INTER + INTRA:          -7.803
REMARK INTER:                  -7.086
REMARK INTRA:                  -0.716
REMARK UNBOUND:                -0.694
REMARK  Name = 
REMARK  5 active torsions:
REMARK  status: ('A' for Active; 'I' for Inactive)
REMARK    1  A    between atoms: C_2  and  C_4
REMARK    2  A    between atoms: N_8  and  C_9
REMARK    3  A    between atoms: C_9  and  C_10
REMARK    4  A    between atoms: C_13  and  N_14
REMARK    5  A    between atoms: C_17  and  N_18
REMARK                            x       y       z     vdW  Elec       q    Type
REMARK                         _______ _______ _______ _____ _____    ______ ____
ROOT
ATOM      1  C   UNL     1      48.897   7.562  13.055  0.00  0.00    +0.000 A 
ATOM      2  C   UNL     1      48.414   6.606  13.951  0.00  0.00    +0.000 A 
ATOM      3  C   UNL     1      47.288   5.851  13.629  0.00  0.00    +0.000 A 
ATOM      4  C   UNL     1      46.615   6.003  12.406  0.00  0.00    +0.000 A 
ATOM      5  C   UNL     1      47.088   6.992  11.537  0.00  0.00    +0.000 A 
ATOM      6  C   UNL     1      48.218   7.756  11.848  0.00  0.00    +0.000 A 
ENDROOT
BRANCH   4   7
ATOM      7  N   UNL     1      45.522   5.210  12.115  0.00  0.00    +0.000 N 
ATOM      8  C   UNL     1      45.270   4.699  10.770  0.00  0.00    +0.000 C 
ATOM      9  C   UNL     1      43.771   4.814  10.483  0.00  0.00    +0.000 C 
ATOM     10  C   UNL     1      42.904   4.175  11.579  0.00  0.00    +0.000 C 
ATOM     11  C   UNL     1      43.310   4.700  12.962  0.00  0.00    +0.000 C 
ATOM     12  C   UNL     1      44.805   4.547  13.209  0.00  0.00    +0.000 C 
BRANCH  10  13
ATOM     13  N   UNL     1      42.961   2.710  11.539  0.00  0.00    +0.000 NA
ATOM     14  H   UNL     1      43.598   2.394  10.808  0.00  0.00    +0.000 HD
ATOM     15  H   UNL     1      42.044   2.337  11.293  0.00  0.00    +0.000 HD
ENDBRANCH  10  13
ENDBRANCH   4   7
BRANCH   1  16
ATOM     16  C   UNL     1      50.141   8.344  13.371  0.00  0.00    +0.000 C 
BRANCH  16  21
ATOM     17  C   UNL     1      53.120   9.542   9.386  0.00  0.00    +0.000 A 
ATOM     18  C   UNL     1      51.972  10.143   9.887  0.00  0.00    +0.000 A 
ATOM     19  C   UNL     1      51.333   9.571  10.985  0.00  0.00    +0.000 A 
ATOM     20  C   UNL     1      51.836   8.405  11.558  0.00  0.00    +0.000 A 
ATOM     21  N   UNL     1      51.270   7.812  12.653  0.00  0.00    +0.000 N 
ATOM     22  N   UNL     1      52.930   7.798  11.055  0.00  0.00    +0.000 NA
ATOM     23  C   UNL     1      53.547   8.368   9.986  0.00  0.00    +0.000 A 
ATOM     24  H   UNL     1      51.672   6.921  12.916  0.00  0.00    +0.000 HD
BRANCH  17  26
ATOM     25  N   UNL     1      53.171  10.385   7.116  0.00  0.00    +0.000 N 
ATOM     26  C   UNL     1      53.878  10.106   8.256  0.00  0.00    +0.000 C 
ATOM     27  O   UNL     1      55.076  10.354   8.339  0.00  0.00    +0.000 OA
ATOM     28  H   UNL     1      53.678  10.869   6.384  0.00  0.00    +0.000 HD
ATOM     29  H   UNL     1      52.169  10.436   7.102  0.00  0.00    +0.000 HD
ENDBRANCH  17  26
ENDBRANCH  16  21
ENDBRANCH   1  16
TORSDOF 5
ENDMDL
MODEL 9
REMARK VINA RESULT:    -5.624      4.399      9.561
REMARK INTER + INTRA:          -7.798
REMARK INTER:                  -7.197
REMARK INTRA:                  -0.601
REMARK UNBOUND:                -0.694
REMARK  Name = 
REMARK  5 active torsions:
REMARK  status: ('A' for Active; 'I' for Inactive)
REMARK    1  A    between atoms: C_2  and  C_4
REMARK    2  A    between atoms: N_8  and  C_9
REMARK    3  A    between atoms: C_9  and  C_10
REMARK    4  A    between atoms: C_13  and  N_14
REMARK    5  A    between atoms: C_17  and  N_18
REMARK                            x       y       z     vdW  Elec       q    Type
REMARK                         _______ _______ _______ _____ _____    ______ ____
ROOT
ATOM      1  C   UNL     1      47.929   8.465  13.476  0.00  0.00    +0.000 A 
ATOM      2  C   UNL     1      46.564   8.699  13.295  0.00  0.00    +0.000 A 
ATOM      3  C   UNL     1      45.730   7.671  12.859  0.00  0.00    +0.000 A 
ATOM      4  C   UNL     1      46.213   6.378  12.605  0.00  0.00    +0.000 A 
ATOM      5  C   UNL     1      47.589   6.171  12.754  0.00  0.00    +0.000 A 
ATOM      6  C   UNL     1      48.436   7.193  13.192  0.00  0.00    +0.000 A 
ENDROOT
BRANCH   4   7
ATOM      7  N   UNL     1      45.344   5.381  12.205  0.00  0.00    +0.000 N 
ATOM      8  C   UNL     1      45.237   4.956  10.812  0.00  0.00    +0.000 C 
ATOM      9  C   UNL     1      43.757   4.742  10.486  0.00  0.00    +0.000 C 
ATOM     10  C   UNL     1      43.054   3.814  11.489  0.00  0.00    +0.000 C 
ATOM     11  C   UNL     1      43.307   4.286  12.927  0.00  0.00    +0.000 C 
ATOM     12  C   UNL     1      44.792   4.466  13.211  0.00  0.00    +0.000 C 
BRANCH  10  13
ATOM     13  N   UNL     1      43.459   2.415  11.319  0.00  0.00    +0.000 NA
ATOM     14  H   UNL     1      44.264   2.198  11.907  0.00  0.00    +0.000 HD
ATOM     15  H   UNL     1      43.764   2.260  10.358  0.00  0.00    +0.000 HD
ENDBRANCH  10  13
ENDBRANCH   4   7
BRANCH   1  16
ATOM     16  C   UNL     1      48.826   9.552  13.997  0.00  0.00    +0.000 C 
BRANCH  16  21
ATOM     17  C   UNL     1      48.416   8.354  18.956  0.00  0.00    +0.000 A 
ATOM     18  C   UNL     1      48.881   7.622  17.871  0.00  0.00    +0.000 A 
ATOM     19  C   UNL     1      48.845   8.197  16.602  0.00  0.00    +0.000 A 
ATOM     20  C   UNL     1      48.333   9.481  16.430  0.00  0.00    +0.000 A 
ATOM     21  N   UNL     1      48.296  10.108  15.215  0.00  0.00    +0.000 N 
ATOM     22  N   UNL     1      47.847  10.182  17.474  0.00  0.00    +0.000 NA
ATOM     23  C   UNL     1      47.893   9.613  18.708  0.00  0.00    +0.000 A 
ATOM     24  H   UNL     1      47.816  10.999  15.205  0.00  0.00    +0.000 HD
BRANCH  17  26
ATOM     25  N   UNL     1      49.698   7.573  20.856  0.00  0.00    +0.000 N 
ATOM     26  C   UNL     1      48.459   7.836  20.334  0.00  0.00    +0.000 C 
ATOM     27  O   UNL     1      47.442   7.685  21.002  0.00  0.00    +0.000 OA
ATOM     28  H   UNL     1      49.724   7.319  21.837  0.00  0.00    +0.000 HD
ATOM     29  H   UNL     1      50.543   7.921  20.442  0.00  0.00    +0.000 HD
ENDBRANCH  17  26
ENDBRANCH  16  21
ENDBRANCH   1  16
TORSDOF 5
ENDMDL
