MODEL 1
REMARK VINA RESULT:    -7.464      0.000      0.000
REMARK INTER + INTRA:          -9.552
REMARK INTER:                  -9.428
REMARK INTRA:                  -0.124
REMARK UNBOUND:                -0.124
REMARK  Name = 
REMARK  5 active torsions:
REMARK  status: ('A' for Active; 'I' for Inactive)
REMARK    1  A    between atoms: N_1  and  C_2
REMARK    2  A    between atoms: C_2  and  C_3
REMARK    3  A    between atoms: C_5  and  C_6
REMARK    4  A    between atoms: C_6  and  N_7
REMARK    5  A    between atoms: C_12  and  C_13
REMARK                            x       y       z     vdW  Elec       q    Type
REMARK                         _______ _______ _______ _____ _____    ______ ____
ROOT
ATOM      1  N   UNL     1      44.055   4.532  10.841  0.00  0.00    +0.000 N 
ATOM      2  C   UNL     1      43.489   3.418  11.411  0.00  0.00    +0.000 A 
ATOM      3  C   UNL     1      43.899   2.318  10.693  0.00  0.00    +0.000 A 
ATOM      4  C   UNL     1      44.747   2.772   9.648  0.00  0.00    +0.000 A 
ATOM      5  C   UNL     1      45.412   2.120   8.582  0.00  0.00    +0.000 A 
ATOM      6  C   UNL     1      46.195   2.866   7.686  0.00  0.00    +0.000 A 
ATOM      7  C   UNL     1      46.367   4.235   7.906  0.00  0.00    +0.000 A 
ATOM      8  C   UNL     1      45.756   4.888   8.981  0.00  0.00    +0.000 A 
ATOM      9  C   UNL     1      44.897   4.151   9.809  0.00  0.00    +0.000 A 
ENDROOT
BRANCH   6  10
ATOM     10  C   UNL     1      46.858   2.278   6.489  0.00  0.00    +0.000 C 
ATOM     11  N   UNL     1      47.109   3.084   5.411  0.00  0.00    +0.000 N 
ATOM     12  O   UNL     1      47.187   1.096   6.448  0.00  0.00    +0.000 OA
ATOM     13  H   UNL     1      46.842   4.052   5.334  0.00  0.00    +0.000 HD
ATOM     14  H   UNL     1      47.554   2.650   4.613  0.00  0.00    +0.000 HD
ENDBRANCH   6  10
BRANCH   1  15
ATOM     15  C   UNL     1      43.797   5.894  11.296  0.00  0.00    +0.000 C 
BRANCH  15  18
ATOM     16  C   UNL     1      46.633   6.597  12.156  0.00  0.00    +0.000 C 
ATOM     17  C   UNL     1      45.422   7.333  12.705  0.00  0.00    +0.000 C 
ATOM     18  C   UNL     1      44.373   6.233  12.692  0.00  0.00    +0.000 C 
ATOM     19  C   UNL     1      45.223   5.075  13.218  0.00  0.00    +0.000 C 
ATOM     20  O   UNL     1      46.572   5.279  12.740  0.00  0.00    +0.000 OA
BRANCH  16  21
ATOM     21  C   UNL     1      47.988   7.284  12.352  0.00  0.00    +0.000 C 
BRANCH  21  22
ATOM     22  N   UNL     1      49.011   6.420  12.939  0.00  0.00    +0.000 NA
ATOM     23  H   UNL     1      48.638   6.007  13.793  0.00  0.00    +0.000 HD
ATOM     24  H   UNL     1      49.790   7.014  13.225  0.00  0.00    +0.000 HD
ENDBRANCH  21  22
ENDBRANCH  16  21
ENDBRANCH  15  18
ENDBRANCH   1  15
TORSDOF 5
ENDMDL
MODEL 2
REMARK VINA RESULT:    -7.166      1.869      6.204
REMARK INTER + INTRA:          -9.176
REMARK INTER:                  -8.675
REMARK INTRA:                  -0.501
REMARK UNBOUND:                -0.124
REMARK  Name = 
REMARK  5 active torsions:
REMARK  status: ('A' for Active; 'I' for Inactive)
REMARK    1  A    between atoms: N_1  and  C_2
REMARK    2  A    between atoms: C_2  and  C_3
REMARK    3  A    between atoms: C_5  and  C_6
REMARK    4  A    between atoms: C_6  and  N_7
REMARK    5  A    between atoms: C_12  and  C_13
REMARK                            x       y       z     vdW  Elec       q    Type
REMARK                         _______ _______ _______ _____ _____    ______ ____
ROOT
ATOM      1  N   UNL     1      44.400   4.051  11.066  0.00  0.00    +0.000 N 
ATOM      2  C   UNL     1      43.062   4.159  11.359  0.00  0.00    +0.000 A 
ATOM      3  C   UNL     1      42.845   5.402  11.907  0.00  0.00    +0.000 A 
ATOM      4  C   UNL     1      44.091   6.082  11.950  0.00  0.00    +0.000 A 
ATOM      5  C   UNL     1      44.494   7.345  12.446  0.00  0.00    +0.000 A 
ATOM      6  C   UNL     1      45.838   7.740  12.344  0.00  0.00    +0.000 A 
ATOM      7  C   UNL     1      46.746   6.909  11.684  0.00  0.00    +0.000 A 
ATOM      8  C   UNL     1      46.357   5.677  11.146  0.00  0.00    +0.000 A 
ATOM      9  C   UNL     1      45.035   5.251  11.343  0.00  0.00    +0.000 A 
ENDROOT
BRANCH   6  10
ATOM     10  C   UNL     1      46.366   9.011  12.914  0.00  0.00    +0.000 C 
ATOM     11  N   UNL     1      46.825   9.015  14.203  0.00  0.00    +0.000 N 
ATOM     12  O   UNL     1      46.404  10.048  12.256  0.00  0.00    +0.000 OA
ATOM     13  H   UNL     1      46.799   8.230  14.832  0.00  0.00    +0.000 HD
ATOM     14  H   UNL     1      47.170   9.897  14.559  0.00  0.00    +0.000 HD
ENDBRANCH   6  10
BRANCH   1  15
ATOM     15  C   UNL     1      45.015   2.844  10.527  0.00  0.00    +0.000 C 
BRANCH  15  18
ATOM     16  C   UNL     1      46.596   2.225   7.997  0.00  0.00    +0.000 C 
ATOM     17  C   UNL     1      45.389   1.400   8.412  0.00  0.00    +0.000 C 
ATOM     18  C   UNL     1      44.536   2.447   9.110  0.00  0.00    +0.000 C 
ATOM     19  C   UNL     1      44.727   3.609   8.133  0.00  0.00    +0.000 C 
ATOM     20  O   UNL     1      46.059   3.500   7.586  0.00  0.00    +0.000 OA
BRANCH  16  21
ATOM     21  C   UNL     1      47.521   1.591   6.954  0.00  0.00    +0.000 C 
BRANCH  21  22
ATOM     22  N   UNL     1      48.534   2.506   6.429  0.00  0.00    +0.000 NA
ATOM     23  H   UNL     1      48.481   3.384   6.945  0.00  0.00    +0.000 HD
ATOM     24  H   UNL     1      48.282   2.726   5.464  0.00  0.00    +0.000 HD
ENDBRANCH  21  22
ENDBRANCH  16  21
ENDBRANCH  15  18
ENDBRANCH   1  15
TORSDOF 5
ENDMDL
MODEL 3
REMARK VINA RESULT:    -6.408      3.044      4.887
REMARK INTER + INTRA:          -8.219
REMARK INTER:                  -7.513
REMARK INTRA:                  -0.706
REMARK UNBOUND:                -0.124
REMARK  Name = 
REMARK  5 active torsions:
REMARK  status: ('A' for Active; 'I' for Inactive)
REMARK    1  A    between atoms: N_1  and  C_2
REMARK    2  A    between atoms: C_2  and  C_3
REMARK    3  A    between atoms: C_5  and  C_6
REMARK    4  A    between atoms: C_6  and  N_7
REMARK    5  A    between atoms: C_12  and  C_13
REMARK                            x       y       z     vdW  Elec       q    Type
REMARK                         _______ _______ _______ _____ _____    ______ ____
ROOT
ATOM      1  N   UNL     1      47.117   7.189  12.554  0.00  0.00    +0.000 N 
ATOM      2  C   UNL     1      47.619   6.736  13.750  0.00  0.00    +0.000 A 
ATOM      3  C   UNL     1      47.164   5.452  13.944  0.00  0.00    +0.000 A 
ATOM      4  C   UNL     1      46.356   5.104  12.829  0.00  0.00    +0.000 A 
ATOM      5  C   UNL     1      45.593   3.958  12.501  0.00  0.00    +0.000 A 
ATOM      6  C   UNL     1      44.879   3.917  11.292  0.00  0.00    +0.000 A 
ATOM      7  C   UNL     1      44.994   4.981  10.394  0.00  0.00    +0.000 A 
ATOM      8  C   UNL     1      45.781   6.101  10.680  0.00  0.00    +0.000 A 
ATOM      9  C   UNL     1      46.408   6.174  11.933  0.00  0.00    +0.000 A 
ENDROOT
BRANCH   6  10
ATOM     10  C   UNL     1      43.983   2.792  10.905  0.00  0.00    +0.000 C 
ATOM     11  N   UNL     1      44.319   2.021   9.825  0.00  0.00    +0.000 N 
ATOM     12  O   UNL     1      42.959   2.536  11.534  0.00  0.00    +0.000 OA
ATOM     13  H   UNL     1      45.114   2.175   9.226  0.00  0.00    +0.000 HD
ATOM     14  H   UNL     1      43.684   1.270   9.588  0.00  0.00    +0.000 HD
ENDBRANCH   6  10
BRANCH   1  15
ATOM     15  C   UNL     1      47.337   8.537  12.043  0.00  0.00    +0.000 C 
BRANCH  15  18
ATOM     16  C   UNL     1      44.711   9.730  11.064  0.00  0.00    +0.000 C 
ATOM     17  C   UNL     1      44.936   9.375  12.524  0.00  0.00    +0.000 C 
ATOM     18  C   UNL     1      46.429   9.624  12.666  0.00  0.00    +0.000 C 
ATOM     19  C   UNL     1      46.536  10.930  11.876  0.00  0.00    +0.000 C 
ATOM     20  O   UNL     1      45.551  10.878  10.820  0.00  0.00    +0.000 OA
BRANCH  16  21
ATOM     21  C   UNL     1      43.255   9.943  10.637  0.00  0.00    +0.000 C 
BRANCH  21  22
ATOM     22  N   UNL     1      42.397   8.780  10.860  0.00  0.00    +0.000 NA
ATOM     23  H   UNL     1      42.575   8.097  10.124  0.00  0.00    +0.000 HD
ATOM     24  H   UNL     1      41.429   9.083  10.742  0.00  0.00    +0.000 HD
ENDBRANCH  21  22
ENDBRANCH  16  21
ENDBRANCH  15  18
ENDBRANCH   1  15
TORSDOF 5
ENDMDL
MODEL 4
REMARK VINA RESULT:    -6.307      3.937      5.450
REMARK INTER + INTRA:          -8.091
REMARK INTER:                  -7.779
REMARK INTRA:                  -0.311
REMARK UNBOUND:                -0.124
REMARK  Name = 
REMARK  5 active torsions:
REMARK  status: ('A' for Active; 'I' for Inactive)
REMARK    1  A    between atoms: N_1  and  C_2
REMARK    2  A    between atoms: C_2  and  C_3
REMARK    3  A    between atoms: C_5  and  C_6
REMARK    4  A    between atoms: C_6  and  N_7
REMARK    5  A    between atoms: C_12  and  C_13
REMARK                            x       y       z     vdW  Elec       q    Type
REMARK                         _______ _______ _______ _____ _____    ______ ____
ROOT
ATOM      1  N   UNL     1      47.428   5.887  14.124  0.00  0.00    +0.000 N 
ATOM      2  C   UNL     1      47.451   7.213  13.766  0.00  0.00    +0.000 A 
ATOM      3  C   UNL     1      46.685   7.360  12.633  0.00  0.00    +0.000 A 
ATOM      4  C   UNL     1      46.172   6.083  12.283  0.00  0.00    +0.000 A 
ATOM      5  C   UNL     1      45.381   5.613  11.209  0.00  0.00    +0.000 A 
ATOM      6  C   UNL     1      45.035   4.253  11.138  0.00  0.00    +0.000 A 
ATOM      7  C   UNL     1      45.416   3.397  12.174  0.00  0.00    +0.000 A 
ATOM      8  C   UNL     1      46.158   3.853  13.268  0.00  0.00    +0.000 A 
ATOM      9  C   UNL     1      46.582   5.190  13.277  0.00  0.00    +0.000 A 
ENDROOT
BRANCH   6  10
ATOM     10  C   UNL     1      44.281   3.656  10.001  0.00  0.00    +0.000 C 
ATOM     11  N   UNL     1      44.136   4.383   8.850  0.00  0.00    +0.000 N 
ATOM     12  O   UNL     1      43.794   2.530  10.069  0.00  0.00    +0.000 OA
ATOM     13  H   UNL     1      44.463   5.325   8.713  0.00  0.00    +0.000 HD
ATOM     14  H   UNL     1      43.613   3.948   8.102  0.00  0.00    +0.000 HD
ENDBRANCH   6  10
BRANCH   1  15
ATOM     15  C   UNL     1      48.181   5.338  15.246  0.00  0.00    +0.000 C 
BRANCH  15  18
ATOM     16  C   UNL     1      48.801   4.509  18.111  0.00  0.00    +0.000 C 
ATOM     17  C   UNL     1      47.437   5.043  17.708  0.00  0.00    +0.000 C 
ATOM     18  C   UNL     1      47.335   4.549  16.274  0.00  0.00    +0.000 C 
ATOM     19  C   UNL     1      47.894   3.137  16.460  0.00  0.00    +0.000 C 
ATOM     20  O   UNL     1      48.890   3.202  17.505  0.00  0.00    +0.000 OA
BRANCH  16  21
ATOM     21  C   UNL     1      49.109   4.503  19.611  0.00  0.00    +0.000 C 
BRANCH  21  22
ATOM     22  N   UNL     1      48.327   3.529  20.372  0.00  0.00    +0.000 NA
ATOM     23  H   UNL     1      47.465   3.975  20.685  0.00  0.00    +0.000 HD
ATOM     24  H   UNL     1      48.855   3.301  21.216  0.00  0.00    +0.000 HD
ENDBRANCH  21  22
ENDBRANCH  16  21
ENDBRANCH  15  18
ENDBRANCH   1  15
TORSDOF 5
ENDMDL
MODEL 5
REMARK VINA RESULT:    -6.135      3.944      8.054
REMARK INTER + INTRA:          -7.873
REMARK INTER:                  -7.306
REMARK INTRA:                  -0.567
REMARK UNBOUND:                -0.124
REMARK  Name = 
REMARK  5 active torsions:
REMARK  status: ('A' for Active; 'I' for Inactive)
REMARK    1  A    between atoms: N_1  and  C_2
REMARK    2  A    between atoms: C_2  and  C_3
REMARK    3  A    between atoms: C_5  and  C_6
REMARK    4  A    between atoms: C_6  and  N_7
REMARK    5  A    between atoms: C_12  and  C_13
REMARK                            x       y       z     vdW  Elec       q    Type
REMARK                         _______ _______ _______ _____ _____    ______ ____
ROOT
ATOM      1  N   UNL     1      47.775   6.185  13.905  0.00  0.00    +0.000 N 
ATOM      2  C   UNL     1      48.572   7.303  13.912  0.00  0.00    +0.000 A 
ATOM      3  C   UNL     1      49.157   7.401  15.153  0.00  0.00    +0.000 A 
ATOM      4  C   UNL     1      48.705   6.305  15.935  0.00  0.00    +0.000 A 
ATOM      5  C   UNL     1      48.920   5.913  17.278  0.00  0.00    +0.000 A 
ATOM      6  C   UNL     1      48.312   4.747  17.772  0.00  0.00    +0.000 A 
ATOM      7  C   UNL     1      47.562   3.948  16.905  0.00  0.00    +0.000 A 
ATOM      8  C   UNL     1      47.378   4.294  15.562  0.00  0.00    +0.000 A 
ATOM      9  C   UNL     1      47.907   5.511  15.108  0.00  0.00    +0.000 A 
ENDROOT
BRANCH   6  10
ATOM     10  C   UNL     1      48.411   4.307  19.191  0.00  0.00    +0.000 C 
ATOM     11  N   UNL     1      48.285   2.975  19.480  0.00  0.00    +0.000 N 
ATOM     12  O   UNL     1      48.610   5.107  20.103  0.00  0.00    +0.000 OA
ATOM     13  H   UNL     1      48.082   2.252  18.810  0.00  0.00    +0.000 HD
ATOM     14  H   UNL     1      48.351   2.714  20.455  0.00  0.00    +0.000 HD
ENDBRANCH   6  10
BRANCH   1  15
ATOM     15  C   UNL     1      46.944   5.790  12.773  0.00  0.00    +0.000 C 
BRANCH  15  18
ATOM     16  C   UNL     1      44.522   4.264  11.733  0.00  0.00    +0.000 C 
ATOM     17  C   UNL     1      44.577   4.812  13.148  0.00  0.00    +0.000 C 
ATOM     18  C   UNL     1      45.430   6.055  12.954  0.00  0.00    +0.000 C 
ATOM     19  C   UNL     1      44.815   6.574  11.652  0.00  0.00    +0.000 C 
ATOM     20  O   UNL     1      44.403   5.423  10.882  0.00  0.00    +0.000 OA
BRANCH  16  21
ATOM     21  C   UNL     1      43.453   3.200  11.461  0.00  0.00    +0.000 C 
BRANCH  21  22
ATOM     22  N   UNL     1      43.470   2.088  12.410  0.00  0.00    +0.000 NA
ATOM     23  H   UNL     1      42.935   1.314  12.017  0.00  0.00    +0.000 HD
ATOM     24  H   UNL     1      42.966   2.388  13.246  0.00  0.00    +0.000 HD
ENDBRANCH  21  22
ENDBRANCH  16  21
ENDBRANCH  15  18
ENDBRANCH   1  15
TORSDOF 5
ENDMDL
MODEL 6
REMARK VINA RESULT:    -5.909      3.058      4.807
REMARK INTER + INTRA:          -7.588
REMARK INTER:                  -7.046
REMARK INTRA:                  -0.542
REMARK UNBOUND:                -0.124
REMARK  Name = 
REMARK  5 active torsions:
REMARK  status: ('A' for Active; 'I' for Inactive)
REMARK    1  A    between atoms: N_1  and  C_2
REMARK    2  A    between atoms: C_2  and  C_3
REMARK    3  A    between atoms: C_5  and  C_6
REMARK    4  A    between atoms: C_6  and  N_7
REMARK    5  A    between atoms: C_12  and  C_13
REMARK                            x       y       z     vdW  Elec       q    Type
REMARK                         _______ _______ _______ _____ _____    ______ ____
ROOT
ATOM      1  N   UNL     1      47.243   6.856  13.200  0.00  0.00    +0.000 N 
ATOM      2  C   UNL     1      47.705   6.221  14.328  0.00  0.00    +0.000 A 
ATOM      3  C   UNL     1      47.211   4.937  14.325  0.00  0.00    +0.000 A 
ATOM      4  C   UNL     1      46.421   4.776  13.156  0.00  0.00    +0.000 A 
ATOM      5  C   UNL     1      45.636   3.713  12.651  0.00  0.00    +0.000 A 
ATOM      6  C   UNL     1      44.949   3.867  11.435  0.00  0.00    +0.000 A 
ATOM      7  C   UNL     1      45.114   5.045  10.703  0.00  0.00    +0.000 A 
ATOM      8  C   UNL     1      45.923   6.089  11.163  0.00  0.00    +0.000 A 
ATOM      9  C   UNL     1      46.522   5.962  12.425  0.00  0.00    +0.000 A 
ENDROOT
BRANCH   6  10
ATOM     10  C   UNL     1      44.034   2.836  10.873  0.00  0.00    +0.000 C 
ATOM     11  N   UNL     1      44.434   2.127   9.773  0.00  0.00    +0.000 N 
ATOM     12  O   UNL     1      42.937   2.604  11.375  0.00  0.00    +0.000 OA
ATOM     13  H   UNL     1      45.293   2.272   9.269  0.00  0.00    +0.000 HD
ATOM     14  H   UNL     1      43.784   1.440   9.414  0.00  0.00    +0.000 HD
ENDBRANCH   6  10
BRANCH   1  15
ATOM     15  C   UNL     1      47.510   8.256  12.893  0.00  0.00    +0.000 C 
BRANCH  15  18
ATOM     16  C   UNL     1      50.527   8.624  12.688  0.00  0.00    +0.000 C 
ATOM     17  C   UNL     1      49.754   7.769  11.698  0.00  0.00    +0.000 C 
ATOM     18  C   UNL     1      48.416   8.490  11.661  0.00  0.00    +0.000 C 
ATOM     19  C   UNL     1      48.918   9.936  11.629  0.00  0.00    +0.000 C 
ATOM     20  O   UNL     1      50.143   9.984  12.394  0.00  0.00    +0.000 OA
BRANCH  16  21
ATOM     21  C   UNL     1      52.044   8.416  12.720  0.00  0.00    +0.000 C 
BRANCH  21  22
ATOM     22  N   UNL     1      52.549   7.940  14.007  0.00  0.00    +0.000 NA
ATOM     23  H   UNL     1      53.301   8.558  14.312  0.00  0.00    +0.000 HD
ATOM     24  H   UNL     1      52.975   7.025  13.853  0.00  0.00    +0.000 HD
ENDBRANCH  21  22
ENDBRANCH  16  21
ENDBRANCH  15  18
ENDBRANCH   1  15
TORSDOF 5
ENDMDL
MODEL 7
REMARK VINA RESULT:    -5.771      3.757      5.547
REMARK INTER + INTRA:          -7.413
REMARK INTER:                  -7.061
REMARK INTRA:                  -0.352
REMARK UNBOUND:                -0.124
REMARK  Name = 
REMARK  5 active torsions:
REMARK  status: ('A' for Active; 'I' for Inactive)
REMARK    1  A    between atoms: N_1  and  C_2
REMARK    2  A    between atoms: C_2  and  C_3
REMARK    3  A    between atoms: C_5  and  C_6
REMARK    4  A    between atoms: C_6  and  N_7
REMARK    5  A    between atoms: C_12  and  C_13
REMARK                            x       y       z     vdW  Elec       q    Type
REMARK                         _______ _______ _______ _____ _____    ______ ____
ROOT
ATOM      1  N   UNL     1      47.637   6.308  13.864  0.00  0.00    +0.000 N 
ATOM      2  C   UNL     1      47.964   7.472  13.212  0.00  0.00    +0.000 A 
ATOM      3  C   UNL     1      47.295   7.489  12.010  0.00  0.00    +0.000 A 
ATOM      4  C   UNL     1      46.530   6.296  11.920  0.00  0.00    +0.000 A 
ATOM      5  C   UNL     1      45.699   5.747  10.916  0.00  0.00    +0.000 A 
ATOM      6  C   UNL     1      45.067   4.510  11.130  0.00  0.00    +0.000 A 
ATOM      7  C   UNL     1      45.209   3.876  12.366  0.00  0.00    +0.000 A 
ATOM      8  C   UNL     1      45.989   4.427  13.389  0.00  0.00    +0.000 A 
ATOM      9  C   UNL     1      46.694   5.611  13.126  0.00  0.00    +0.000 A 
ENDROOT
BRANCH   6  10
ATOM     10  C   UNL     1      44.247   3.818  10.098  0.00  0.00    +0.000 C 
ATOM     11  N   UNL     1      44.103   4.402   8.868  0.00  0.00    +0.000 N 
ATOM     12  O   UNL     1      43.706   2.738  10.320  0.00  0.00    +0.000 OA
ATOM     13  H   UNL     1      44.473   5.301   8.604  0.00  0.00    +0.000 HD
ATOM     14  H   UNL     1      43.533   3.907   8.194  0.00  0.00    +0.000 HD
ENDBRANCH   6  10
BRANCH   1  15
ATOM     15  C   UNL     1      48.207   5.911  15.146  0.00  0.00    +0.000 C 
BRANCH  15  18
ATOM     16  C   UNL     1      49.556   6.027  17.875  0.00  0.00    +0.000 C 
ATOM     17  C   UNL     1      50.341   6.188  16.585  0.00  0.00    +0.000 C 
ATOM     18  C   UNL     1      49.309   6.853  15.688  0.00  0.00    +0.000 C 
ATOM     19  C   UNL     1      48.720   7.849  16.688  0.00  0.00    +0.000 C 
ATOM     20  O   UNL     1      48.770   7.231  17.993  0.00  0.00    +0.000 OA
BRANCH  16  21
ATOM     21  C   UNL     1      50.375   5.712  19.130  0.00  0.00    +0.000 C 
BRANCH  21  22
ATOM     22  N   UNL     1      50.158   4.365  19.656  0.00  0.00    +0.000 NA
ATOM     23  H   UNL     1      50.968   3.789  19.425  0.00  0.00    +0.000 HD
ATOM     24  H   UNL     1      49.367   3.961  19.154  0.00  0.00    +0.000 HD
ENDBRANCH  21  22
ENDBRANCH  16  21
ENDBRANCH  15  18
ENDBRANCH   1  15
TORSDOF 5
ENDMDL
MODEL 8
REMARK VINA RESULT:    -5.676      3.165      4.919
REMARK INTER + INTRA:          -7.294
REMARK INTER:                  -6.812
REMARK INTRA:                  -0.482
REMARK UNBOUND:                -0.124
REMARK  Name = 
REMARK  5 active torsions:
REMARK  status: ('A' for Active; 'I' for Inactive)
REMARK    1  A    between atoms: N_1  and  C_2
REMARK    2  A    between atoms: C_2  and  C_3
REMARK    3  A    between atoms: C_5  and  C_6
REMARK    4  A    between atoms: C_6  and  N_7
REMARK    5  A    between atoms: C_12  and  C_13
REMARK                            x       y       z     vdW  Elec       q    Type
REMARK                         _______ _______ _______ _____ _____    ______ ____
ROOT
ATOM      1  N   UNL     1      46.265   7.938  12.776  0.00  0.00    +0.000 N 
ATOM      2  C   UNL     1      45.462   8.842  12.124  0.00  0.00    +0.000 A 
ATOM      3  C   UNL     1      44.517   8.136  11.415  0.00  0.00    +0.000 A 
ATOM      4  C   UNL     1      44.747   6.753  11.640  0.00  0.00    +0.000 A 
ATOM      5  C   UNL     1      44.141   5.573  11.146  0.00  0.00    +0.000 A 
ATOM      6  C   UNL     1      44.611   4.317  11.565  0.00  0.00    +0.000 A 
ATOM      7  C   UNL     1      45.623   4.253  12.526  0.00  0.00    +0.000 A 
ATOM      8  C   UNL     1      46.202   5.409  13.061  0.00  0.00    +0.000 A 
ATOM      9  C   UNL     1      45.793   6.654  12.560  0.00  0.00    +0.000 A 
ENDROOT
BRANCH   6  10
ATOM     10  C   UNL     1      44.093   3.027  11.032  0.00  0.00    +0.000 C 
ATOM     11  N   UNL     1      44.814   2.373  10.070  0.00  0.00    +0.000 N 
ATOM     12  O   UNL     1      43.043   2.536  11.438  0.00  0.00    +0.000 OA
ATOM     13  H   UNL     1      45.662   2.713   9.647  0.00  0.00    +0.000 HD
ATOM     14  H   UNL     1      44.429   1.503   9.727  0.00  0.00    +0.000 HD
ENDBRANCH   6  10
BRANCH   1  15
ATOM     15  C   UNL     1      47.422   8.316  13.581  0.00  0.00    +0.000 C 
BRANCH  15  18
ATOM     16  C   UNL     1      50.201   8.514  12.350  0.00  0.00    +0.000 C 
ATOM     17  C   UNL     1      49.021   9.292  11.794  0.00  0.00    +0.000 C 
ATOM     18  C   UNL     1      48.207   9.541  13.054  0.00  0.00    +0.000 C 
ATOM     19  C   UNL     1      49.344   9.903  14.012  0.00  0.00    +0.000 C 
ATOM     20  O   UNL     1      50.502   9.137  13.616  0.00  0.00    +0.000 OA
BRANCH  16  21
ATOM     21  C   UNL     1      51.420   8.387  11.431  0.00  0.00    +0.000 C 
BRANCH  21  22
ATOM     22  N   UNL     1      51.575   7.062  10.832  0.00  0.00    +0.000 NA
ATOM     23  H   UNL     1      51.889   7.174   9.869  0.00  0.00    +0.000 HD
ATOM     24  H   UNL     1      50.648   6.635  10.784  0.00  0.00    +0.000 HD
ENDBRANCH  21  22
ENDBRANCH  16  21
ENDBRANCH  15  18
ENDBRANCH   1  15
TORSDOF 5
ENDMDL
MODEL 9
REMARK VINA RESULT:    -5.603      3.731      5.634
REMARK INTER + INTRA:          -7.201
REMARK INTER:                  -6.733
REMARK INTRA:                  -0.467
REMARK UNBOUND:                -0.124
REMARK  Name = 
REMARK  5 active torsions:
REMARK  status: ('A' for Active; 'I' for Inactive)
REMARK    1  A    between atoms: N_1  and  C_2
REMARK    2  A    between atoms: C_2  and  C_3
REMARK    3  A    between atoms: C_5  and  C_6
REMARK    4  A    between atoms: C_6  and  N_7
REMARK    5  A    between atoms: C_12  and  C_13
REMARK                            x       y       z     vdW  Elec       q    Type
REMARK                         _______ _______ _______ _____ _____    ______ ____
ROOT
ATOM      1  N   UNL     1      47.265   7.744  13.137  0.00  0.00    +0.000 N 
ATOM      2  C   UNL     1      46.494   8.840  12.834  0.00  0.00    +0.000 A 
ATOM      3  C   UNL     1      45.257   8.392  12.433  0.00  0.00    +0.000 A 
ATOM      4  C   UNL     1      45.267   6.973  12.492  0.00  0.00    +0.000 A 
ATOM      5  C   UNL     1      44.319   5.978  12.156  0.00  0.00    +0.000 A 
ATOM      6  C   UNL     1      44.638   4.621  12.328  0.00  0.00    +0.000 A 
ATOM      7  C   UNL     1      45.864   4.275  12.901  0.00  0.00    +0.000 A 
ATOM      8  C   UNL     1      46.796   5.246  13.283  0.00  0.00    +0.000 A 
ATOM      9  C   UNL     1      46.506   6.592  13.014  0.00  0.00    +0.000 A 
ENDROOT
BRANCH   6  10
ATOM     10  C   UNL     1      43.737   3.507  11.921  0.00  0.00    +0.000 C 
ATOM     11  N   UNL     1      43.818   2.315  12.588  0.00  0.00    +0.000 N 
ATOM     12  O   UNL     1      42.923   3.635  11.010  0.00  0.00    +0.000 OA
ATOM     13  H   UNL     1      44.478   2.101  13.318  0.00  0.00    +0.000 HD
ATOM     14  H   UNL     1      43.196   1.579  12.281  0.00  0.00    +0.000 HD
ENDBRANCH   6  10
BRANCH   1  15
ATOM     15  C   UNL     1      48.664   7.825  13.541  0.00  0.00    +0.000 C 
BRANCH  15  18
ATOM     16  C   UNL     1      51.087   7.360  15.327  0.00  0.00    +0.000 C 
ATOM     17  C   UNL     1      50.284   8.648  15.385  0.00  0.00    +0.000 C 
ATOM     18  C   UNL     1      48.891   8.147  15.038  0.00  0.00    +0.000 C 
ATOM     19  C   UNL     1      48.877   6.865  15.871  0.00  0.00    +0.000 C 
ATOM     20  O   UNL     1      50.227   6.351  15.897  0.00  0.00    +0.000 OA
BRANCH  16  21
ATOM     21  C   UNL     1      52.479   7.402  15.967  0.00  0.00    +0.000 C 
BRANCH  21  22
ATOM     22  N   UNL     1      53.540   6.875  15.110  0.00  0.00    +0.000 NA
ATOM     23  H   UNL     1      54.414   7.345  15.346  0.00  0.00    +0.000 HD
ATOM     24  H   UNL     1      53.322   7.143  14.149  0.00  0.00    +0.000 HD
ENDBRANCH  21  22
ENDBRANCH  16  21
ENDBRANCH  15  18
ENDBRANCH   1  15
TORSDOF 5
ENDMDL
