MODEL 1
REMARK VINA RESULT:    -8.203      0.000      0.000
REMARK INTER + INTRA:          -9.272
REMARK INTER:                  -9.642
REMARK INTRA:                   0.370
REMARK UNBOUND:                 0.370
REMARK  Name = 
REMARK  3 active torsions:
REMARK  status: ('A' for Active; 'I' for Inactive)
REMARK    1  A    between atoms: C_2  and  C_4
REMARK    2  A    between atoms: N_8  and  C_9
REMARK    3  A    between atoms: C_9  and  C_10
REMARK                            x       y       z     vdW  Elec       q    Type
REMARK                         _______ _______ _______ _____ _____    ______ ____
ROOT
ATOM      1  C   UNL     1      46.373   2.132   7.914  0.00  0.00    +0.000 A 
ATOM      2  C   UNL     1      46.450   3.443   7.458  0.00  0.00    +0.000 A 
ATOM      3  C   UNL     1      45.755   4.431   8.145  0.00  0.00    +0.000 A 
ATOM      4  C   UNL     1      45.017   4.106   9.288  0.00  0.00    +0.000 A 
ATOM      5  N   UNL     1      44.394   5.185   9.934  0.00  0.00    +0.000 N 
ATOM      6  N   UNL     1      44.933   2.840   9.734  0.00  0.00    +0.000 NA
ATOM      7  C   UNL     1      45.591   1.878   9.032  0.00  0.00    +0.000 A 
ATOM      8  H   UNL     1      43.720   5.614   9.296  0.00  0.00    +0.000 HD
ENDROOT
BRANCH   1  10
ATOM      9  N   UNL     1      46.743  -0.247   7.624  0.00  0.00    +0.000 N 
ATOM     10  C   UNL     1      47.075   1.023   7.247  0.00  0.00    +0.000 C 
ATOM     11  O   UNL     1      47.899   1.228   6.362  0.00  0.00    +0.000 OA
ATOM     12  H   UNL     1      47.159  -1.000   7.091  0.00  0.00    +0.000 HD
ATOM     13  H   UNL     1      45.911  -0.457   8.159  0.00  0.00    +0.000 HD
ENDBRANCH   1  10
BRANCH   5  14
ATOM     14  C   UNL     1      43.891   5.209  11.333  0.00  0.00    +0.000 C 
ATOM     15  C   UNL     1      42.767   4.198  11.572  0.00  0.00    +0.000 C 
ATOM     16  C   UNL     1      42.522   5.651  11.812  0.00  0.00    +0.000 C 
BRANCH  14  17
ATOM     17  C   UNL     1      45.068   5.250  12.350  0.00  0.00    +0.000 A 
ATOM     18  N   UNL     1      45.745   6.428  12.448  0.00  0.00    +0.000 NA
ATOM     19  C   UNL     1      46.853   6.446  13.209  0.00  0.00    +0.000 A 
ATOM     20  C   UNL     1      47.328   5.347  13.876  0.00  0.00    +0.000 A 
ATOM     21  C   UNL     1      46.571   4.208  13.750  0.00  0.00    +0.000 A 
ATOM     22  N   UNL     1      45.452   4.132  13.005  0.00  0.00    +0.000 NA
ENDBRANCH  14  17
ENDBRANCH   5  14
TORSDOF 3
ENDMDL
MODEL 2
REMARK VINA RESULT:    -7.446      1.511      1.927
REMARK INTER + INTRA:          -8.382
REMARK INTER:                  -7.988
REMARK INTRA:                  -0.394
REMARK UNBOUND:                 0.370
REMARK  Name = 
REMARK  3 active torsions:
REMARK  status: ('A' for Active; 'I' for Inactive)
REMARK    1  A    between atoms: C_2  and  C_4
REMARK    2  A    between atoms: N_8  and  C_9
REMARK    3  A    between atoms: C_9  and  C_10
REMARK                            x       y       z     vdW  Elec       q    Type
REMARK                         _______ _______ _______ _____ _____    ______ ____
ROOT
ATOM      1  C   UNL     1      46.355   3.083   7.590  0.00  0.00    +0.000 A 
ATOM      2  C   UNL     1      45.721   2.079   8.313  0.00  0.00    +0.000 A 
ATOM      3  C   UNL     1      45.110   2.409   9.518  0.00  0.00    +0.000 A 
ATOM      4  C   UNL     1      45.115   3.732   9.969  0.00  0.00    +0.000 A 
ATOM      5  N   UNL     1      44.428   3.966  11.170  0.00  0.00    +0.000 N 
ATOM      6  N   UNL     1      45.730   4.709   9.277  0.00  0.00    +0.000 NA
ATOM      7  C   UNL     1      46.352   4.366   8.118  0.00  0.00    +0.000 A 
ATOM      8  H   UNL     1      44.870   3.428  11.920  0.00  0.00    +0.000 HD
ENDROOT
BRANCH   1  10
ATOM      9  N   UNL     1      48.361   2.527   6.344  0.00  0.00    +0.000 N 
ATOM     10  C   UNL     1      47.028   2.823   6.306  0.00  0.00    +0.000 C 
ATOM     11  O   UNL     1      46.410   2.835   5.246  0.00  0.00    +0.000 OA
ATOM     12  H   UNL     1      48.789   2.254   5.469  0.00  0.00    +0.000 HD
ATOM     13  H   UNL     1      48.837   2.269   7.198  0.00  0.00    +0.000 HD
ENDBRANCH   1  10
BRANCH   5  14
ATOM     14  C   UNL     1      43.943   5.278  11.674  0.00  0.00    +0.000 C 
ATOM     15  C   UNL     1      42.669   5.152  12.513  0.00  0.00    +0.000 C 
ATOM     16  C   UNL     1      42.668   5.999  11.285  0.00  0.00    +0.000 C 
BRANCH  14  17
ATOM     17  C   UNL     1      45.116   6.126  12.245  0.00  0.00    +0.000 A 
ATOM     18  N   UNL     1      45.195   7.417  11.820  0.00  0.00    +0.000 NA
ATOM     19  C   UNL     1      46.278   8.126  12.183  0.00  0.00    +0.000 A 
ATOM     20  C   UNL     1      47.293   7.612  12.947  0.00  0.00    +0.000 A 
ATOM     21  C   UNL     1      47.123   6.314  13.360  0.00  0.00    +0.000 A 
ATOM     22  N   UNL     1      46.059   5.558  13.030  0.00  0.00    +0.000 NA
ENDBRANCH  14  17
ENDBRANCH   5  14
TORSDOF 3
ENDMDL
MODEL 3
REMARK VINA RESULT:    -7.268      2.999      6.388
REMARK INTER + INTRA:          -8.173
REMARK INTER:                  -7.930
REMARK INTRA:                  -0.243
REMARK UNBOUND:                 0.370
REMARK  Name = 
REMARK  3 active torsions:
REMARK  status: ('A' for Active; 'I' for Inactive)
REMARK    1  A    between atoms: C_2  and  C_4
REMARK    2  A    between atoms: N_8  and  C_9
REMARK    3  A    between atoms: C_9  and  C_10
REMARK                            x       y       z     vdW  Elec       q    Type
REMARK                         _______ _______ _______ _____ _____    ______ ____
ROOT
ATOM      1  C   UNL     1      47.599   5.151  15.221  0.00  0.00    +0.000 A 
ATOM      2  C   UNL     1      47.669   6.324  14.478  0.00  0.00    +0.000 A 
ATOM      3  C   UNL     1      47.051   6.365  13.234  0.00  0.00    +0.000 A 
ATOM      4  C   UNL     1      46.350   5.251  12.761  0.00  0.00    +0.000 A 
ATOM      5  N   UNL     1      45.721   5.413  11.517  0.00  0.00    +0.000 N 
ATOM      6  N   UNL     1      46.281   4.110  13.471  0.00  0.00    +0.000 NA
ATOM      7  C   UNL     1      46.920   4.073  14.671  0.00  0.00    +0.000 A 
ATOM      8  H   UNL     1      46.430   5.603  10.805  0.00  0.00    +0.000 HD
ENDROOT
BRANCH   1  10
ATOM      9  N   UNL     1      47.436   5.233  17.639  0.00  0.00    +0.000 N 
ATOM     10  C   UNL     1      48.227   5.019  16.547  0.00  0.00    +0.000 C 
ATOM     11  O   UNL     1      49.403   4.693  16.667  0.00  0.00    +0.000 OA
ATOM     12  H   UNL     1      47.851   5.042  18.542  0.00  0.00    +0.000 HD
ATOM     13  H   UNL     1      46.426   5.257  17.585  0.00  0.00    +0.000 HD
ENDBRANCH   1  10
BRANCH   5  14
ATOM     14  C   UNL     1      44.623   4.578  10.963  0.00  0.00    +0.000 C 
ATOM     15  C   UNL     1      43.276   5.306  10.957  0.00  0.00    +0.000 C 
ATOM     16  C   UNL     1      43.423   4.023  11.706  0.00  0.00    +0.000 C 
BRANCH  14  17
ATOM     17  C   UNL     1      45.072   3.857   9.659  0.00  0.00    +0.000 A 
ATOM     18  N   UNL     1      45.043   2.496   9.678  0.00  0.00    +0.000 NA
ATOM     19  C   UNL     1      45.562   1.848   8.620  0.00  0.00    +0.000 A 
ATOM     20  C   UNL     1      46.116   2.489   7.542  0.00  0.00    +0.000 A 
ATOM     21  C   UNL     1      46.077   3.861   7.587  0.00  0.00    +0.000 A 
ATOM     22  N   UNL     1      45.569   4.561   8.618  0.00  0.00    +0.000 NA
ENDBRANCH  14  17
ENDBRANCH   5  14
TORSDOF 3
ENDMDL
MODEL 4
REMARK VINA RESULT:    -7.238      3.161      6.528
REMARK INTER + INTRA:          -8.138
REMARK INTER:                  -7.982
REMARK INTRA:                  -0.157
REMARK UNBOUND:                 0.370
REMARK  Name = 
REMARK  3 active torsions:
REMARK  status: ('A' for Active; 'I' for Inactive)
REMARK    1  A    between atoms: C_2  and  C_4
REMARK    2  A    between atoms: N_8  and  C_9
REMARK    3  A    between atoms: C_9  and  C_10
REMARK                            x       y       z     vdW  Elec       q    Type
REMARK                         _______ _______ _______ _____ _____    ______ ____
ROOT
ATOM      1  C   UNL     1      46.812   8.309  13.041  0.00  0.00    +0.000 A 
ATOM      2  C   UNL     1      45.657   8.744  12.401  0.00  0.00    +0.000 A 
ATOM      3  C   UNL     1      44.956   7.845  11.605  0.00  0.00    +0.000 A 
ATOM      4  C   UNL     1      45.398   6.525  11.480  0.00  0.00    +0.000 A 
ATOM      5  N   UNL     1      44.591   5.687  10.694  0.00  0.00    +0.000 N 
ATOM      6  N   UNL     1      46.517   6.096  12.091  0.00  0.00    +0.000 NA
ATOM      7  C   UNL     1      47.211   6.995  12.840  0.00  0.00    +0.000 A 
ATOM      8  H   UNL     1      44.562   6.049   9.738  0.00  0.00    +0.000 HD
ENDROOT
BRANCH   1  10
ATOM      9  N   UNL     1      47.507   9.024  15.251  0.00  0.00    +0.000 N 
ATOM     10  C   UNL     1      47.617   9.193  13.901  0.00  0.00    +0.000 C 
ATOM     11  O   UNL     1      48.384  10.023  13.424  0.00  0.00    +0.000 OA
ATOM     12  H   UNL     1      48.138   9.567  15.827  0.00  0.00    +0.000 HD
ATOM     13  H   UNL     1      47.085   8.203  15.665  0.00  0.00    +0.000 HD
ENDBRANCH   1  10
BRANCH   5  14
ATOM     14  C   UNL     1      44.587   4.201  10.698  0.00  0.00    +0.000 C 
ATOM     15  C   UNL     1      43.251   3.617  11.164  0.00  0.00    +0.000 C 
ATOM     16  C   UNL     1      44.505   3.283  11.902  0.00  0.00    +0.000 C 
BRANCH  14  17
ATOM     17  C   UNL     1      45.217   3.636   9.392  0.00  0.00    +0.000 A 
ATOM     18  N   UNL     1      45.345   2.282   9.316  0.00  0.00    +0.000 NA
ATOM     19  C   UNL     1      46.017   1.780   8.265  0.00  0.00    +0.000 A 
ATOM     20  C   UNL     1      46.575   2.559   7.286  0.00  0.00    +0.000 A 
ATOM     21  C   UNL     1      46.375   3.910   7.420  0.00  0.00    +0.000 A 
ATOM     22  N   UNL     1      45.709   4.469   8.448  0.00  0.00    +0.000 NA
ENDBRANCH  14  17
ENDBRANCH   5  14
TORSDOF 3
ENDMDL
MODEL 5
REMARK VINA RESULT:    -6.305      6.207      8.867
REMARK INTER + INTRA:          -7.041
REMARK INTER:                  -6.727
REMARK INTRA:                  -0.314
REMARK UNBOUND:                 0.370
REMARK  Name = 
REMARK  3 active torsions:
REMARK  status: ('A' for Active; 'I' for Inactive)
REMARK    1  A    between atoms: C_2  and  C_4
REMARK    2  A    between atoms: N_8  and  C_9
REMARK    3  A    between atoms: C_9  and  C_10
REMARK                            x       y       z     vdW  Elec       q    Type
REMARK                         _______ _______ _______ _____ _____    ______ ____
ROOT
ATOM      1  C   UNL     1      52.542   1.745  17.854  0.00  0.00    +0.000 A 
ATOM      2  C   UNL     1      52.699   3.061  18.274  0.00  0.00    +0.000 A 
ATOM      3  C   UNL     1      51.677   3.968  18.023  0.00  0.00    +0.000 A 
ATOM      4  C   UNL     1      50.505   3.548  17.385  0.00  0.00    +0.000 A 
ATOM      5  N   UNL     1      49.516   4.530  17.225  0.00  0.00    +0.000 N 
ATOM      6  N   UNL     1      50.346   2.278  16.972  0.00  0.00    +0.000 NA
ATOM      7  C   UNL     1      51.369   1.409  17.194  0.00  0.00    +0.000 A 
ATOM      8  H   UNL     1      49.882   5.283  16.638  0.00  0.00    +0.000 HD
ENDROOT
BRANCH   1  10
ATOM      9  N   UNL     1      53.152  -0.529  18.435  0.00  0.00    +0.000 N 
ATOM     10  C   UNL     1      53.575   0.719  18.076  0.00  0.00    +0.000 C 
ATOM     11  O   UNL     1      54.765   0.963  17.910  0.00  0.00    +0.000 OA
ATOM     12  H   UNL     1      53.861  -1.249  18.487  0.00  0.00    +0.000 HD
ATOM     13  H   UNL     1      52.190  -0.827  18.341  0.00  0.00    +0.000 HD
ENDBRANCH   1  10
BRANCH   5  14
ATOM     14  C   UNL     1      48.073   4.299  16.952  0.00  0.00    +0.000 C 
ATOM     15  C   UNL     1      47.174   4.772  18.098  0.00  0.00    +0.000 C 
ATOM     16  C   UNL     1      47.141   3.342  17.670  0.00  0.00    +0.000 C 
BRANCH  14  17
ATOM     17  C   UNL     1      47.701   4.731  15.504  0.00  0.00    +0.000 A 
ATOM     18  N   UNL     1      48.292   5.866  15.038  0.00  0.00    +0.000 NA
ATOM     19  C   UNL     1      47.878   6.339  13.850  0.00  0.00    +0.000 A 
ATOM     20  C   UNL     1      46.899   5.741  13.100  0.00  0.00    +0.000 A 
ATOM     21  C   UNL     1      46.377   4.585  13.625  0.00  0.00    +0.000 A 
ATOM     22  N   UNL     1      46.753   4.064  14.808  0.00  0.00    +0.000 NA
ENDBRANCH  14  17
ENDBRANCH   5  14
TORSDOF 3
ENDMDL
MODEL 6
REMARK VINA RESULT:    -6.152      3.585      5.659
REMARK INTER + INTRA:          -6.861
REMARK INTER:                  -6.527
REMARK INTRA:                  -0.334
REMARK UNBOUND:                 0.370
REMARK  Name = 
REMARK  3 active torsions:
REMARK  status: ('A' for Active; 'I' for Inactive)
REMARK    1  A    between atoms: C_2  and  C_4
REMARK    2  A    between atoms: N_8  and  C_9
REMARK    3  A    between atoms: C_9  and  C_10
REMARK                            x       y       z     vdW  Elec       q    Type
REMARK                         _______ _______ _______ _____ _____    ______ ____
ROOT
ATOM      1  C   UNL     1      44.658   4.417  12.223  0.00  0.00    +0.000 A 
ATOM      2  C   UNL     1      44.221   5.735  12.167  0.00  0.00    +0.000 A 
ATOM      3  C   UNL     1      45.034   6.732  12.694  0.00  0.00    +0.000 A 
ATOM      4  C   UNL     1      46.279   6.405  13.241  0.00  0.00    +0.000 A 
ATOM      5  N   UNL     1      47.043   7.490  13.700  0.00  0.00    +0.000 N 
ATOM      6  N   UNL     1      46.709   5.132  13.303  0.00  0.00    +0.000 NA
ATOM      7  C   UNL     1      45.888   4.164  12.814  0.00  0.00    +0.000 A 
ATOM      8  H   UNL     1      46.537   7.962  14.453  0.00  0.00    +0.000 HD
ENDROOT
BRANCH   1  10
ATOM      9  N   UNL     1      43.683   2.214  12.500  0.00  0.00    +0.000 N 
ATOM     10  C   UNL     1      43.861   3.299  11.691  0.00  0.00    +0.000 C 
ATOM     11  O   UNL     1      43.344   3.355  10.579  0.00  0.00    +0.000 OA
ATOM     12  H   UNL     1      43.053   1.497  12.164  0.00  0.00    +0.000 HD
ATOM     13  H   UNL     1      43.879   2.236  13.492  0.00  0.00    +0.000 HD
ENDBRANCH   1  10
BRANCH   5  14
ATOM     14  C   UNL     1      48.507   7.498  13.957  0.00  0.00    +0.000 C 
ATOM     15  C   UNL     1      49.209   8.706  13.332  0.00  0.00    +0.000 C 
ATOM     16  C   UNL     1      49.622   7.325  12.944  0.00  0.00    +0.000 C 
BRANCH  14  17
ATOM     17  C   UNL     1      48.815   7.162  15.445  0.00  0.00    +0.000 A 
ATOM     18  N   UNL     1      49.137   5.868  15.722  0.00  0.00    +0.000 NA
ATOM     19  C   UNL     1      49.264   5.522  17.015  0.00  0.00    +0.000 A 
ATOM     20  C   UNL     1      49.081   6.399  18.051  0.00  0.00    +0.000 A 
ATOM     21  C   UNL     1      48.790   7.691  17.687  0.00  0.00    +0.000 A 
ATOM     22  N   UNL     1      48.652   8.095  16.410  0.00  0.00    +0.000 NA
ENDBRANCH  14  17
ENDBRANCH   5  14
TORSDOF 3
ENDMDL
MODEL 7
REMARK VINA RESULT:    -6.061      4.071      6.636
REMARK INTER + INTRA:          -6.755
REMARK INTER:                  -6.499
REMARK INTRA:                  -0.256
REMARK UNBOUND:                 0.370
REMARK  Name = 
REMARK  3 active torsions:
REMARK  status: ('A' for Active; 'I' for Inactive)
REMARK    1  A    between atoms: C_2  and  C_4
REMARK    2  A    between atoms: N_8  and  C_9
REMARK    3  A    between atoms: C_9  and  C_10
REMARK                            x       y       z     vdW  Elec       q    Type
REMARK                         _______ _______ _______ _____ _____    ______ ____
ROOT
ATOM      1  C   UNL     1      46.060   5.548  12.163  0.00  0.00    +0.000 A 
ATOM      2  C   UNL     1      45.365   4.503  12.761  0.00  0.00    +0.000 A 
ATOM      3  C   UNL     1      45.832   3.994  13.967  0.00  0.00    +0.000 A 
ATOM      4  C   UNL     1      46.964   4.549  14.572  0.00  0.00    +0.000 A 
ATOM      5  N   UNL     1      47.321   3.995  15.811  0.00  0.00    +0.000 N 
ATOM      6  N   UNL     1      47.645   5.558  13.999  0.00  0.00    +0.000 NA
ATOM      7  C   UNL     1      47.196   6.023  12.802  0.00  0.00    +0.000 A 
ATOM      8  H   UNL     1      47.547   3.006  15.685  0.00  0.00    +0.000 HD
ENDROOT
BRANCH   1  10
ATOM      9  N   UNL     1      44.802   7.224  10.943  0.00  0.00    +0.000 N 
ATOM     10  C   UNL     1      45.638   6.146  10.885  0.00  0.00    +0.000 C 
ATOM     11  O   UNL     1      46.050   5.718   9.812  0.00  0.00    +0.000 OA
ATOM     12  H   UNL     1      44.599   7.687  10.066  0.00  0.00    +0.000 HD
ATOM     13  H   UNL     1      44.644   7.747  11.794  0.00  0.00    +0.000 HD
ENDBRANCH   1  10
BRANCH   5  14
ATOM     14  C   UNL     1      48.203   4.613  16.837  0.00  0.00    +0.000 C 
ATOM     15  C   UNL     1      47.440   5.026  18.098  0.00  0.00    +0.000 C 
ATOM     16  C   UNL     1      48.192   6.051  17.317  0.00  0.00    +0.000 C 
BRANCH  14  17
ATOM     17  C   UNL     1      49.516   3.797  17.010  0.00  0.00    +0.000 A 
ATOM     18  N   UNL     1      49.426   2.452  16.815  0.00  0.00    +0.000 NA
ATOM     19  C   UNL     1      50.509   1.708  17.100  0.00  0.00    +0.000 A 
ATOM     20  C   UNL     1      51.681   2.235  17.577  0.00  0.00    +0.000 A 
ATOM     21  C   UNL     1      51.701   3.601  17.716  0.00  0.00    +0.000 A 
ATOM     22  N   UNL     1      50.648   4.395  17.444  0.00  0.00    +0.000 NA
ENDBRANCH  14  17
ENDBRANCH   5  14
TORSDOF 3
ENDMDL
MODEL 8
REMARK VINA RESULT:    -5.817      3.576      5.784
REMARK INTER + INTRA:          -6.467
REMARK INTER:                  -6.524
REMARK INTRA:                   0.057
REMARK UNBOUND:                 0.370
REMARK  Name = 
REMARK  3 active torsions:
REMARK  status: ('A' for Active; 'I' for Inactive)
REMARK    1  A    between atoms: C_2  and  C_4
REMARK    2  A    between atoms: N_8  and  C_9
REMARK    3  A    between atoms: C_9  and  C_10
REMARK                            x       y       z     vdW  Elec       q    Type
REMARK                         _______ _______ _______ _____ _____    ______ ____
ROOT
ATOM      1  C   UNL     1      44.824   4.722  11.549  0.00  0.00    +0.000 A 
ATOM      2  C   UNL     1      44.876   4.340  12.884  0.00  0.00    +0.000 A 
ATOM      3  C   UNL     1      45.853   4.897  13.701  0.00  0.00    +0.000 A 
ATOM      4  C   UNL     1      46.743   5.844  13.185  0.00  0.00    +0.000 A 
ATOM      5  N   UNL     1      47.658   6.380  14.104  0.00  0.00    +0.000 N 
ATOM      6  N   UNL     1      46.703   6.217  11.893  0.00  0.00    +0.000 NA
ATOM      7  C   UNL     1      45.763   5.638  11.098  0.00  0.00    +0.000 A 
ATOM      8  H   UNL     1      48.250   5.629  14.466  0.00  0.00    +0.000 HD
ENDROOT
BRANCH   1  10
ATOM      9  N   UNL     1      43.905   4.578   9.309  0.00  0.00    +0.000 N 
ATOM     10  C   UNL     1      43.823   4.182  10.613  0.00  0.00    +0.000 C 
ATOM     11  O   UNL     1      42.972   3.378  10.980  0.00  0.00    +0.000 OA
ATOM     12  H   UNL     1      43.277   4.125   8.658  0.00  0.00    +0.000 HD
ATOM     13  H   UNL     1      44.724   5.033   8.927  0.00  0.00    +0.000 HD
ENDBRANCH   1  10
BRANCH   5  14
ATOM     14  C   UNL     1      48.433   7.640  13.952  0.00  0.00    +0.000 C 
ATOM     15  C   UNL     1      47.632   8.877  14.366  0.00  0.00    +0.000 C 
ATOM     16  C   UNL     1      48.170   8.771  12.978  0.00  0.00    +0.000 C 
BRANCH  14  17
ATOM     17  C   UNL     1      49.876   7.480  14.512  0.00  0.00    +0.000 A 
ATOM     18  N   UNL     1      50.019   6.674  15.601  0.00  0.00    +0.000 NA
ATOM     19  C   UNL     1      51.226   6.635  16.191  0.00  0.00    +0.000 A 
ATOM     20  C   UNL     1      52.302   7.363  15.754  0.00  0.00    +0.000 A 
ATOM     21  C   UNL     1      52.084   8.125  14.633  0.00  0.00    +0.000 A 
ATOM     22  N   UNL     1      50.898   8.201  14.000  0.00  0.00    +0.000 NA
ENDBRANCH  14  17
ENDBRANCH   5  14
TORSDOF 3
ENDMDL
MODEL 9
REMARK VINA RESULT:    -5.809      3.371      6.376
REMARK INTER + INTRA:          -6.459
REMARK INTER:                  -6.205
REMARK INTRA:                  -0.253
REMARK UNBOUND:                 0.370
REMARK  Name = 
REMARK  3 active torsions:
REMARK  status: ('A' for Active; 'I' for Inactive)
REMARK    1  A    between atoms: C_2  and  C_4
REMARK    2  A    between atoms: N_8  and  C_9
REMARK    3  A    between atoms: C_9  and  C_10
REMARK                            x       y       z     vdW  Elec       q    Type
REMARK                         _______ _______ _______ _____ _____    ______ ____
ROOT
ATOM      1  C   UNL     1      49.127   8.443  12.672  0.00  0.00    +0.000 A 
ATOM      2  C   UNL     1      48.035   9.249  12.373  0.00  0.00    +0.000 A 
ATOM      3  C   UNL     1      46.830   8.643  12.037  0.00  0.00    +0.000 A 
ATOM      4  C   UNL     1      46.722   7.249  12.032  0.00  0.00    +0.000 A 
ATOM      5  N   UNL     1      45.450   6.740  11.729  0.00  0.00    +0.000 N 
ATOM      6  N   UNL     1      47.775   6.461  12.316  0.00  0.00    +0.000 NA
ATOM      7  C   UNL     1      48.957   7.068  12.609  0.00  0.00    +0.000 A 
ATOM      8  H   UNL     1      45.189   7.030  10.783  0.00  0.00    +0.000 HD
ENDROOT
BRANCH   1  10
ATOM      9  N   UNL     1      50.497  10.331  13.337  0.00  0.00    +0.000 N 
ATOM     10  C   UNL     1      50.442   9.000  13.035  0.00  0.00    +0.000 C 
ATOM     11  O   UNL     1      51.440   8.291  13.101  0.00  0.00    +0.000 OA
ATOM     12  H   UNL     1      51.383  10.679  13.681  0.00  0.00    +0.000 HD
ATOM     13  H   UNL     1      49.672  10.880  13.532  0.00  0.00    +0.000 HD
ENDBRANCH   1  10
BRANCH   5  14
ATOM     14  C   UNL     1      44.950   5.371  12.020  0.00  0.00    +0.000 C 
ATOM     15  C   UNL     1      43.641   5.379  12.813  0.00  0.00    +0.000 C 
ATOM     16  C   UNL     1      44.844   4.698  13.375  0.00  0.00    +0.000 C 
BRANCH  14  17
ATOM     17  C   UNL     1      45.038   4.463  10.760  0.00  0.00    +0.000 A 
ATOM     18  N   UNL     1      45.426   5.067   9.602  0.00  0.00    +0.000 NA
ATOM     19  C   UNL     1      45.368   4.340   8.473  0.00  0.00    +0.000 A 
ATOM     20  C   UNL     1      44.939   3.040   8.434  0.00  0.00    +0.000 A 
ATOM     21  C   UNL     1      44.595   2.495   9.647  0.00  0.00    +0.000 A 
ATOM     22  N   UNL     1      44.634   3.174  10.809  0.00  0.00    +0.000 NA
ENDBRANCH  14  17
ENDBRANCH   5  14
TORSDOF 3
ENDMDL
