MODEL 1
REMARK VINA RESULT:    -6.793      0.000      0.000
REMARK INTER + INTRA:         -11.179
REMARK INTER:                  -9.572
REMARK INTRA:                  -1.607
REMARK UNBOUND:                -1.607
REMARK  Name = 
REMARK  8 active torsions:
REMARK  status: ('A' for Active; 'I' for Inactive)
REMARK    1  A    between atoms: C_1  and  O_2
REMARK    2  A    between atoms: O_2  and  C_3
REMARK    3  A    between atoms: C_10  and  C_11
REMARK    4  A    between atoms: N_13  and  C_14
REMARK    5  A    between atoms: C_14  and  C_15
REMARK    6  A    between atoms: C_18  and  N_19
REMARK    7  A    between atoms: N_19  and  C_20
REMARK    8  A    between atoms: C_20  and  C_21
REMARK                            x       y       z     vdW  Elec       q    Type
REMARK                         _______ _______ _______ _____ _____    ______ ____
ROOT
ATOM      1  C   UNL     1      48.098   8.780  14.644  0.00  0.00    +0.000 C 
ENDROOT
BRANCH   1   2
ATOM      2  C   UNL     1      47.329   8.269  13.453  0.00  0.00    +0.000 A 
ATOM      3  C   UNL     1      47.943   7.436  12.511  0.00  0.00    +0.000 A 
ATOM      4  C   UNL     1      47.203   6.872  11.465  0.00  0.00    +0.000 A 
ATOM      5  C   UNL     1      45.833   7.116  11.335  0.00  0.00    +0.000 A 
ATOM      6  C   UNL     1      45.255   8.051  12.201  0.00  0.00    +0.000 A 
ATOM      7  C   UNL     1      45.987   8.614  13.255  0.00  0.00    +0.000 A 
BRANCH   5   8
ATOM      8  N   UNL     1      45.019   6.491  10.393  0.00  0.00    +0.000 N 
ATOM      9  H   UNL     1      44.952   6.999   9.517  0.00  0.00    +0.000 HD
BRANCH   8  10
ATOM     10  C   UNL     1      45.017   5.035  10.267  0.00  0.00    +0.000 C 
BRANCH  10  11
ATOM     11  C   UNL     1      43.594   4.483  10.503  0.00  0.00    +0.000 C 
ATOM     12  C   UNL     1      42.823   5.254  11.592  0.00  0.00    +0.000 C 
ATOM     13  C   UNL     1      43.390   4.996  12.986  0.00  0.00    +0.000 C 
ATOM     14  N   UNL     1      43.377   3.566  13.309  0.00  0.00    +0.000 NA
ATOM     15  C   UNL     1      44.146   2.790  12.336  0.00  0.00    +0.000 C 
ATOM     16  C   UNL     1      43.642   2.996  10.904  0.00  0.00    +0.000 C 
ATOM     17  H   UNL     1      42.410   3.241  13.303  0.00  0.00    +0.000 HD
ENDBRANCH  10  11
ENDBRANCH   8  10
ENDBRANCH   5   8
ENDBRANCH   1   2
BRANCH   1  20
ATOM     18  C   UNL     1      49.452   7.107  15.844  0.00  0.00    +0.000 C 
ATOM     19  O   UNL     1      50.445   7.361  15.165  0.00  0.00    +0.000 OA
ATOM     20  N   UNL     1      48.267   7.760  15.644  0.00  0.00    +0.000 N 
ATOM     21  H   UNL     1      47.448   7.496  16.172  0.00  0.00    +0.000 HD
BRANCH  18  29
ATOM     22  C   UNL     1      47.524   4.346  16.511  0.00  0.00    +0.000 A 
ATOM     23  N   UNL     1      46.937   3.234  16.997  0.00  0.00    +0.000 NA
ATOM     24  C   UNL     1      47.439   2.699  18.114  0.00  0.00    +0.000 A 
ATOM     25  N   UNL     1      48.475   3.141  18.821  0.00  0.00    +0.000 NA
ATOM     26  C   UNL     1      49.035   4.247  18.299  0.00  0.00    +0.000 A 
ATOM     27  S   UNL     1      50.370   4.957  19.070  0.00  0.00    +0.000 S 
ATOM     28  C   UNL     1      50.456   6.186  17.900  0.00  0.00    +0.000 A 
ATOM     29  C   UNL     1      49.486   6.087  16.906  0.00  0.00    +0.000 A 
ATOM     30  C   UNL     1      48.637   4.922  17.151  0.00  0.00    +0.000 A 
BRANCH  22  32
ATOM     31  C   UNL     1      47.067   3.966  14.243  0.00  0.00    +0.000 C 
ATOM     32  O   UNL     1      47.038   4.876  15.338  0.00  0.00    +0.000 OA
ENDBRANCH  22  32
ENDBRANCH  18  29
ENDBRANCH   1  20
TORSDOF 7
ENDMDL
MODEL 2
REMARK VINA RESULT:    -6.782      2.467      3.286
REMARK INTER + INTRA:         -11.164
REMARK INTER:                 -10.085
REMARK INTRA:                  -1.079
REMARK UNBOUND:                -1.607
REMARK  Name = 
REMARK  8 active torsions:
REMARK  status: ('A' for Active; 'I' for Inactive)
REMARK    1  A    between atoms: C_1  and  O_2
REMARK    2  A    between atoms: O_2  and  C_3
REMARK    3  A    between atoms: C_10  and  C_11
REMARK    4  A    between atoms: N_13  and  C_14
REMARK    5  A    between atoms: C_14  and  C_15
REMARK    6  A    between atoms: C_18  and  N_19
REMARK    7  A    between atoms: N_19  and  C_20
REMARK    8  A    between atoms: C_20  and  C_21
REMARK                            x       y       z     vdW  Elec       q    Type
REMARK                         _______ _______ _______ _____ _____    ______ ____
ROOT
ATOM      1  C   UNL     1      48.660   7.359  15.064  0.00  0.00    +0.000 C 
ENDROOT
BRANCH   1   2
ATOM      2  C   UNL     1      47.804   6.598  14.084  0.00  0.00    +0.000 A 
ATOM      3  C   UNL     1      47.355   5.307  14.384  0.00  0.00    +0.000 A 
ATOM      4  C   UNL     1      46.472   4.641  13.525  0.00  0.00    +0.000 A 
ATOM      5  C   UNL     1      46.007   5.246  12.355  0.00  0.00    +0.000 A 
ATOM      6  C   UNL     1      46.560   6.481  11.998  0.00  0.00    +0.000 A 
ATOM      7  C   UNL     1      47.439   7.157  12.855  0.00  0.00    +0.000 A 
BRANCH   5   8
ATOM      8  N   UNL     1      45.036   4.689  11.526  0.00  0.00    +0.000 N 
ATOM      9  H   UNL     1      44.642   5.351  10.864  0.00  0.00    +0.000 HD
BRANCH   8  10
ATOM     10  C   UNL     1      45.186   3.325  11.023  0.00  0.00    +0.000 C 
BRANCH  10  11
ATOM     11  C   UNL     1      44.349   3.136   9.738  0.00  0.00    +0.000 C 
ATOM     12  C   UNL     1      44.557   1.758   9.082  0.00  0.00    +0.000 C 
ATOM     13  C   UNL     1      45.945   1.624   8.460  0.00  0.00    +0.000 C 
ATOM     14  N   UNL     1      46.183   2.673   7.462  0.00  0.00    +0.000 NA
ATOM     15  C   UNL     1      46.055   4.008   8.047  0.00  0.00    +0.000 C 
ATOM     16  C   UNL     1      44.686   4.224   8.700  0.00  0.00    +0.000 C 
ATOM     17  H   UNL     1      45.496   2.571   6.714  0.00  0.00    +0.000 HD
ENDBRANCH  10  11
ENDBRANCH   8  10
ENDBRANCH   5   8
ENDBRANCH   1   2
BRANCH   1  20
ATOM     18  C   UNL     1      49.611   6.037  16.914  0.00  0.00    +0.000 C 
ATOM     19  O   UNL     1      48.658   6.297  17.646  0.00  0.00    +0.000 OA
ATOM     20  N   UNL     1      49.681   6.524  15.637  0.00  0.00    +0.000 N 
ATOM     21  H   UNL     1      50.499   6.348  15.072  0.00  0.00    +0.000 HD
BRANCH  18  29
ATOM     22  C   UNL     1      50.108   2.641  16.977  0.00  0.00    +0.000 A 
ATOM     23  N   UNL     1      50.549   1.376  17.122  0.00  0.00    +0.000 NA
ATOM     24  C   UNL     1      51.754   1.193  17.671  0.00  0.00    +0.000 A 
ATOM     25  N   UNL     1      52.592   2.132  18.100  0.00  0.00    +0.000 NA
ATOM     26  C   UNL     1      52.116   3.379  17.933  0.00  0.00    +0.000 A 
ATOM     27  S   UNL     1      53.048   4.708  18.426  0.00  0.00    +0.000 S 
ATOM     28  C   UNL     1      51.849   5.801  17.923  0.00  0.00    +0.000 A 
ATOM     29  C   UNL     1      50.725   5.191  17.372  0.00  0.00    +0.000 A 
ATOM     30  C   UNL     1      50.892   3.737  17.381  0.00  0.00    +0.000 A 
BRANCH  22  32
ATOM     31  C   UNL     1      47.793   2.852  17.285  0.00  0.00    +0.000 C 
ATOM     32  O   UNL     1      48.887   2.837  16.374  0.00  0.00    +0.000 OA
ENDBRANCH  22  32
ENDBRANCH  18  29
ENDBRANCH   1  20
TORSDOF 7
ENDMDL
MODEL 3
REMARK VINA RESULT:    -6.469      2.270      3.179
REMARK INTER + INTRA:         -10.723
REMARK INTER:                  -9.714
REMARK INTRA:                  -1.009
REMARK UNBOUND:                -1.607
REMARK  Name = 
REMARK  8 active torsions:
REMARK  status: ('A' for Active; 'I' for Inactive)
REMARK    1  A    between atoms: C_1  and  O_2
REMARK    2  A    between atoms: O_2  and  C_3
REMARK    3  A    between atoms: C_10  and  C_11
REMARK    4  A    between atoms: N_13  and  C_14
REMARK    5  A    between atoms: C_14  and  C_15
REMARK    6  A    between atoms: C_18  and  N_19
REMARK    7  A    between atoms: N_19  and  C_20
REMARK    8  A    between atoms: C_20  and  C_21
REMARK                            x       y       z     vdW  Elec       q    Type
REMARK                         _______ _______ _______ _____ _____    ______ ____
ROOT
ATOM      1  C   UNL     1      48.050   7.834  13.586  0.00  0.00    +0.000 C 
ENDROOT
BRANCH   1   2
ATOM      2  C   UNL     1      47.002   6.937  12.979  0.00  0.00    +0.000 A 
ATOM      3  C   UNL     1      46.138   7.419  11.989  0.00  0.00    +0.000 A 
ATOM      4  C   UNL     1      45.238   6.560  11.347  0.00  0.00    +0.000 A 
ATOM      5  C   UNL     1      45.182   5.201  11.667  0.00  0.00    +0.000 A 
ATOM      6  C   UNL     1      45.955   4.755  12.745  0.00  0.00    +0.000 A 
ATOM      7  C   UNL     1      46.863   5.606  13.388  0.00  0.00    +0.000 A 
BRANCH   5   8
ATOM      8  N   UNL     1      44.399   4.274  10.982  0.00  0.00    +0.000 N 
ATOM      9  H   UNL     1      43.723   4.702  10.357  0.00  0.00    +0.000 HD
BRANCH   8  10
ATOM     10  C   UNL     1      44.982   3.023  10.503  0.00  0.00    +0.000 C 
BRANCH  10  11
ATOM     11  C   UNL     1      44.411   2.669   9.112  0.00  0.00    +0.000 C 
ATOM     12  C   UNL     1      45.017   1.380   8.524  0.00  0.00    +0.000 C 
ATOM     13  C   UNL     1      46.477   1.568   8.119  0.00  0.00    +0.000 C 
ATOM     14  N   UNL     1      46.624   2.655   7.146  0.00  0.00    +0.000 NA
ATOM     15  C   UNL     1      46.115   3.921   7.676  0.00  0.00    +0.000 C 
ATOM     16  C   UNL     1      44.649   3.817   8.112  0.00  0.00    +0.000 C 
ATOM     17  H   UNL     1      46.097   2.412   6.306  0.00  0.00    +0.000 HD
ENDBRANCH  10  11
ENDBRANCH   8  10
ENDBRANCH   5   8
ENDBRANCH   1   2
BRANCH   1  20
ATOM     18  C   UNL     1      49.076   7.147  15.719  0.00  0.00    +0.000 C 
ATOM     19  O   UNL     1      50.042   6.651  15.144  0.00  0.00    +0.000 OA
ATOM     20  N   UNL     1      48.061   7.742  15.021  0.00  0.00    +0.000 N 
ATOM     21  H   UNL     1      47.249   8.091  15.508  0.00  0.00    +0.000 HD
BRANCH  18  29
ATOM     22  C   UNL     1      48.834   4.612  18.021  0.00  0.00    +0.000 A 
ATOM     23  N   UNL     1      48.725   3.827  19.111  0.00  0.00    +0.000 NA
ATOM     24  C   UNL     1      48.628   4.424  20.303  0.00  0.00    +0.000 A 
ATOM     25  N   UNL     1      48.630   5.731  20.550  0.00  0.00    +0.000 NA
ATOM     26  C   UNL     1      48.747   6.476  19.437  0.00  0.00    +0.000 A 
ATOM     27  S   UNL     1      48.765   8.169  19.557  0.00  0.00    +0.000 S 
ATOM     28  C   UNL     1      48.918   8.338  17.873  0.00  0.00    +0.000 A 
ATOM     29  C   UNL     1      48.961   7.127  17.187  0.00  0.00    +0.000 A 
ATOM     30  C   UNL     1      48.858   6.014  18.131  0.00  0.00    +0.000 A 
BRANCH  22  32
ATOM     31  C   UNL     1      48.711   2.604  16.817  0.00  0.00    +0.000 C 
ATOM     32  O   UNL     1      48.977   4.003  16.795  0.00  0.00    +0.000 OA
ENDBRANCH  22  32
ENDBRANCH  18  29
ENDBRANCH   1  20
TORSDOF 7
ENDMDL
MODEL 4
REMARK VINA RESULT:    -6.399      2.241      2.714
REMARK INTER + INTRA:         -10.625
REMARK INTER:                  -9.571
REMARK INTRA:                  -1.054
REMARK UNBOUND:                -1.607
REMARK  Name = 
REMARK  8 active torsions:
REMARK  status: ('A' for Active; 'I' for Inactive)
REMARK    1  A    between atoms: C_1  and  O_2
REMARK    2  A    between atoms: O_2  and  C_3
REMARK    3  A    between atoms: C_10  and  C_11
REMARK    4  A    between atoms: N_13  and  C_14
REMARK    5  A    between atoms: C_14  and  C_15
REMARK    6  A    between atoms: C_18  and  N_19
REMARK    7  A    between atoms: N_19  and  C_20
REMARK    8  A    between atoms: C_20  and  C_21
REMARK                            x       y       z     vdW  Elec       q    Type
REMARK                         _______ _______ _______ _____ _____    ______ ____
ROOT
ATOM      1  C   UNL     1      49.948   7.732  15.377  0.00  0.00    +0.000 C 
ENDROOT
BRANCH   1   2
ATOM      2  C   UNL     1      49.075   7.228  14.256  0.00  0.00    +0.000 A 
ATOM      3  C   UNL     1      48.107   6.246  14.494  0.00  0.00    +0.000 A 
ATOM      4  C   UNL     1      47.223   5.856  13.480  0.00  0.00    +0.000 A 
ATOM      5  C   UNL     1      47.275   6.438  12.211  0.00  0.00    +0.000 A 
ATOM      6  C   UNL     1      48.326   7.323  11.945  0.00  0.00    +0.000 A 
ATOM      7  C   UNL     1      49.211   7.724  12.955  0.00  0.00    +0.000 A 
BRANCH   5   8
ATOM      8  N   UNL     1      46.349   6.184  11.202  0.00  0.00    +0.000 N 
ATOM      9  H   UNL     1      46.538   5.329  10.688  0.00  0.00    +0.000 HD
BRANCH   8  10
ATOM     10  C   UNL     1      44.933   6.486  11.403  0.00  0.00    +0.000 C 
BRANCH  10  11
ATOM     11  C   UNL     1      44.060   5.345  10.834  0.00  0.00    +0.000 C 
ATOM     12  C   UNL     1      42.754   5.138  11.625  0.00  0.00    +0.000 C 
ATOM     13  C   UNL     1      43.011   4.545  13.008  0.00  0.00    +0.000 C 
ATOM     14  N   UNL     1      43.726   3.269  12.916  0.00  0.00    +0.000 NA
ATOM     15  C   UNL     1      45.005   3.420  12.222  0.00  0.00    +0.000 C 
ATOM     16  C   UNL     1      44.836   4.015  10.821  0.00  0.00    +0.000 C 
ATOM     17  H   UNL     1      43.145   2.608  12.399  0.00  0.00    +0.000 HD
ENDBRANCH  10  11
ENDBRANCH   8  10
ENDBRANCH   5   8
ENDBRANCH   1   2
BRANCH   1  20
ATOM     18  C   UNL     1      50.593   6.158  17.160  0.00  0.00    +0.000 C 
ATOM     19  O   UNL     1      49.694   6.558  17.897  0.00  0.00    +0.000 OA
ATOM     20  N   UNL     1      50.780   6.688  15.913  0.00  0.00    +0.000 N 
ATOM     21  H   UNL     1      51.559   6.387  15.347  0.00  0.00    +0.000 HD
BRANCH  18  29
ATOM     22  C   UNL     1      50.410   2.731  17.085  0.00  0.00    +0.000 A 
ATOM     23  N   UNL     1      50.592   1.398  17.176  0.00  0.00    +0.000 NA
ATOM     24  C   UNL     1      51.734   0.960  17.715  0.00  0.00    +0.000 A 
ATOM     25  N   UNL     1      52.738   1.697  18.181  0.00  0.00    +0.000 NA
ATOM     26  C   UNL     1      52.518   3.019  18.065  0.00  0.00    +0.000 A 
ATOM     27  S   UNL     1      53.691   4.117  18.611  0.00  0.00    +0.000 S 
ATOM     28  C   UNL     1      52.734   5.444  18.155  0.00  0.00    +0.000 A 
ATOM     29  C   UNL     1      51.515   5.090  17.582  0.00  0.00    +0.000 A 
ATOM     30  C   UNL     1      51.392   3.634  17.531  0.00  0.00    +0.000 A 
BRANCH  22  32
ATOM     31  C   UNL     1      48.136   3.227  17.371  0.00  0.00    +0.000 C 
ATOM     32  O   UNL     1      49.255   3.188  16.492  0.00  0.00    +0.000 OA
ENDBRANCH  22  32
ENDBRANCH  18  29
ENDBRANCH   1  20
TORSDOF 7
ENDMDL
MODEL 5
REMARK VINA RESULT:    -6.282      3.400      8.867
REMARK INTER + INTRA:         -10.459
REMARK INTER:                  -9.386
REMARK INTRA:                  -1.073
REMARK UNBOUND:                -1.607
REMARK  Name = 
REMARK  8 active torsions:
REMARK  status: ('A' for Active; 'I' for Inactive)
REMARK    1  A    between atoms: C_1  and  O_2
REMARK    2  A    between atoms: O_2  and  C_3
REMARK    3  A    between atoms: C_10  and  C_11
REMARK    4  A    between atoms: N_13  and  C_14
REMARK    5  A    between atoms: C_14  and  C_15
REMARK    6  A    between atoms: C_18  and  N_19
REMARK    7  A    between atoms: N_19  and  C_20
REMARK    8  A    between atoms: C_20  and  C_21
REMARK                            x       y       z     vdW  Elec       q    Type
REMARK                         _______ _______ _______ _____ _____    ______ ____
ROOT
ATOM      1  C   UNL     1      47.188   3.428  16.859  0.00  0.00    +0.000 C 
ENDROOT
BRANCH   1   2
ATOM      2  C   UNL     1      48.670   3.260  17.081  0.00  0.00    +0.000 A 
ATOM      3  C   UNL     1      49.437   4.312  17.591  0.00  0.00    +0.000 A 
ATOM      4  C   UNL     1      50.791   4.125  17.900  0.00  0.00    +0.000 A 
ATOM      5  C   UNL     1      51.409   2.885  17.717  0.00  0.00    +0.000 A 
ATOM      6  C   UNL     1      50.670   1.877  17.086  0.00  0.00    +0.000 A 
ATOM      7  C   UNL     1      49.314   2.055  16.780  0.00  0.00    +0.000 A 
BRANCH   5   8
ATOM      8  N   UNL     1      52.712   2.601  18.118  0.00  0.00    +0.000 N 
ATOM      9  H   UNL     1      53.318   2.323  17.352  0.00  0.00    +0.000 HD
BRANCH   8  10
ATOM     10  C   UNL     1      53.356   3.397  19.160  0.00  0.00    +0.000 C 
BRANCH  10  11
ATOM     11  C   UNL     1      54.776   3.812  18.712  0.00  0.00    +0.000 C 
ATOM     12  C   UNL     1      55.417   4.859  19.643  0.00  0.00    +0.000 C 
ATOM     13  C   UNL     1      54.742   6.224  19.519  0.00  0.00    +0.000 C 
ATOM     14  N   UNL     1      54.786   6.715  18.138  0.00  0.00    +0.000 NA
ATOM     15  C   UNL     1      54.137   5.782  17.216  0.00  0.00    +0.000 C 
ATOM     16  C   UNL     1      54.755   4.381  17.281  0.00  0.00    +0.000 C 
ATOM     17  H   UNL     1      55.763   6.826  17.864  0.00  0.00    +0.000 HD
ENDBRANCH  10  11
ENDBRANCH   8  10
ENDBRANCH   5   8
ENDBRANCH   1   2
BRANCH   1  20
ATOM     18  C   UNL     1      46.945   4.244  14.547  0.00  0.00    +0.000 C 
ATOM     19  O   UNL     1      47.226   3.141  14.083  0.00  0.00    +0.000 OA
ATOM     20  N   UNL     1      46.909   4.460  15.897  0.00  0.00    +0.000 N 
ATOM     21  H   UNL     1      46.734   5.386  16.257  0.00  0.00    +0.000 HD
BRANCH  18  29
ATOM     22  C   UNL     1      44.188   5.100  12.689  0.00  0.00    +0.000 A 
ATOM     23  N   UNL     1      43.262   5.660  11.886  0.00  0.00    +0.000 NA
ATOM     24  C   UNL     1      43.571   6.812  11.283  0.00  0.00    +0.000 A 
ATOM     25  N   UNL     1      44.709   7.491  11.384  0.00  0.00    +0.000 NA
ATOM     26  C   UNL     1      45.603   6.902  12.198  0.00  0.00    +0.000 A 
ATOM     27  S   UNL     1      47.118   7.625  12.448  0.00  0.00    +0.000 S 
ATOM     28  C   UNL     1      47.601   6.374  13.490  0.00  0.00    +0.000 A 
ATOM     29  C   UNL     1      46.634   5.389  13.675  0.00  0.00    +0.000 A 
ATOM     30  C   UNL     1      45.438   5.712  12.897  0.00  0.00    +0.000 A 
BRANCH  22  32
ATOM     31  C   UNL     1      43.629   2.833  12.475  0.00  0.00    +0.000 C 
ATOM     32  O   UNL     1      43.860   3.936  13.346  0.00  0.00    +0.000 OA
ENDBRANCH  22  32
ENDBRANCH  18  29
ENDBRANCH   1  20
TORSDOF 7
ENDMDL
MODEL 6
REMARK VINA RESULT:    -6.230      2.871      4.064
REMARK INTER + INTRA:         -10.386
REMARK INTER:                  -9.173
REMARK INTRA:                  -1.213
REMARK UNBOUND:                -1.607
REMARK  Name = 
REMARK  8 active torsions:
REMARK  status: ('A' for Active; 'I' for Inactive)
REMARK    1  A    between atoms: C_1  and  O_2
REMARK    2  A    between atoms: O_2  and  C_3
REMARK    3  A    between atoms: C_10  and  C_11
REMARK    4  A    between atoms: N_13  and  C_14
REMARK    5  A    between atoms: C_14  and  C_15
REMARK    6  A    between atoms: C_18  and  N_19
REMARK    7  A    between atoms: N_19  and  C_20
REMARK    8  A    between atoms: C_20  and  C_21
REMARK                            x       y       z     vdW  Elec       q    Type
REMARK                         _______ _______ _______ _____ _____    ______ ____
ROOT
ATOM      1  C   UNL     1      48.697   7.294  14.309  0.00  0.00    +0.000 C 
ENDROOT
BRANCH   1   2
ATOM      2  C   UNL     1      47.744   6.473  13.479  0.00  0.00    +0.000 A 
ATOM      3  C   UNL     1      47.247   5.256  13.959  0.00  0.00    +0.000 A 
ATOM      4  C   UNL     1      46.279   4.545  13.239  0.00  0.00    +0.000 A 
ATOM      5  C   UNL     1      45.776   5.033  12.030  0.00  0.00    +0.000 A 
ATOM      6  C   UNL     1      46.370   6.181  11.494  0.00  0.00    +0.000 A 
ATOM      7  C   UNL     1      47.334   6.901  12.212  0.00  0.00    +0.000 A 
BRANCH   5   8
ATOM      8  N   UNL     1      44.728   4.438  11.330  0.00  0.00    +0.000 N 
ATOM      9  H   UNL     1      44.269   5.069  10.680  0.00  0.00    +0.000 HD
BRANCH   8  10
ATOM     10  C   UNL     1      44.830   3.051  10.882  0.00  0.00    +0.000 C 
BRANCH  10  11
ATOM     11  C   UNL     1      44.200   2.898   9.479  0.00  0.00    +0.000 C 
ATOM     12  C   UNL     1      44.623   1.597   8.769  0.00  0.00    +0.000 C 
ATOM     13  C   UNL     1      46.090   1.627   8.347  0.00  0.00    +0.000 C 
ATOM     14  N   UNL     1      46.367   2.767   7.468  0.00  0.00    +0.000 NA
ATOM     15  C   UNL     1      46.037   4.037   8.115  0.00  0.00    +0.000 C 
ATOM     16  C   UNL     1      44.576   4.088   8.576  0.00  0.00    +0.000 C 
ATOM     17  H   UNL     1      45.803   2.669   6.623  0.00  0.00    +0.000 HD
ENDBRANCH  10  11
ENDBRANCH   8  10
ENDBRANCH   5   8
ENDBRANCH   1   2
BRANCH   1  20
ATOM     18  C   UNL     1      49.121   6.619  16.641  0.00  0.00    +0.000 C 
ATOM     19  O   UNL     1      50.156   6.035  16.328  0.00  0.00    +0.000 OA
ATOM     20  N   UNL     1      48.353   7.256  15.705  0.00  0.00    +0.000 N 
ATOM     21  H   UNL     1      47.477   7.679  15.973  0.00  0.00    +0.000 HD
BRANCH  18  29
ATOM     22  C   UNL     1      47.841   9.121  18.612  0.00  0.00    +0.000 A 
ATOM     23  N   UNL     1      47.331   9.902  19.585  0.00  0.00    +0.000 NA
ATOM     24  C   UNL     1      47.101   9.345  20.778  0.00  0.00    +0.000 A 
ATOM     25  N   UNL     1      47.317   8.082  21.130  0.00  0.00    +0.000 NA
ATOM     26  C   UNL     1      47.821   7.336  20.130  0.00  0.00    +0.000 A 
ATOM     27  S   UNL     1      48.164   5.695  20.396  0.00  0.00    +0.000 S 
ATOM     28  C   UNL     1      48.718   5.500  18.802  0.00  0.00    +0.000 A 
ATOM     29  C   UNL     1      48.653   6.662  18.036  0.00  0.00    +0.000 A 
ATOM     30  C   UNL     1      48.114   7.759  18.839  0.00  0.00    +0.000 A 
BRANCH  22  32
ATOM     31  C   UNL     1      49.282  10.363  17.242  0.00  0.00    +0.000 C 
ATOM     32  O   UNL     1      48.040   9.678  17.370  0.00  0.00    +0.000 OA
ENDBRANCH  22  32
ENDBRANCH  18  29
ENDBRANCH   1  20
TORSDOF 7
ENDMDL
MODEL 7
REMARK VINA RESULT:    -6.147      2.909      3.939
REMARK INTER + INTRA:         -10.269
REMARK INTER:                  -8.983
REMARK INTRA:                  -1.285
REMARK UNBOUND:                -1.607
REMARK  Name = 
REMARK  8 active torsions:
REMARK  status: ('A' for Active; 'I' for Inactive)
REMARK    1  A    between atoms: C_1  and  O_2
REMARK    2  A    between atoms: O_2  and  C_3
REMARK    3  A    between atoms: C_10  and  C_11
REMARK    4  A    between atoms: N_13  and  C_14
REMARK    5  A    between atoms: C_14  and  C_15
REMARK    6  A    between atoms: C_18  and  N_19
REMARK    7  A    between atoms: N_19  and  C_20
REMARK    8  A    between atoms: C_20  and  C_21
REMARK                            x       y       z     vdW  Elec       q    Type
REMARK                         _______ _______ _______ _____ _____    ______ ____
ROOT
ATOM      1  C   UNL     1      50.030   6.968  16.514  0.00  0.00    +0.000 C 
ENDROOT
BRANCH   1   2
ATOM      2  C   UNL     1      48.925   6.271  15.762  0.00  0.00    +0.000 A 
ATOM      3  C   UNL     1      48.610   6.646  14.451  0.00  0.00    +0.000 A 
ATOM      4  C   UNL     1      47.660   5.929  13.712  0.00  0.00    +0.000 A 
ATOM      5  C   UNL     1      47.008   4.819  14.257  0.00  0.00    +0.000 A 
ATOM      6  C   UNL     1      47.233   4.532  15.608  0.00  0.00    +0.000 A 
ATOM      7  C   UNL     1      48.187   5.239  16.351  0.00  0.00    +0.000 A 
BRANCH   5   8
ATOM      8  N   UNL     1      46.148   3.994  13.536  0.00  0.00    +0.000 N 
ATOM      9  H   UNL     1      46.261   3.008  13.750  0.00  0.00    +0.000 HD
BRANCH   8  10
ATOM     10  C   UNL     1      44.777   4.415  13.260  0.00  0.00    +0.000 C 
BRANCH  10  11
ATOM     11  C   UNL     1      44.527   4.447  11.735  0.00  0.00    +0.000 C 
ATOM     12  C   UNL     1      45.103   5.706  11.058  0.00  0.00    +0.000 C 
ATOM     13  C   UNL     1      44.324   6.964  11.433  0.00  0.00    +0.000 C 
ATOM     14  N   UNL     1      42.906   6.836  11.083  0.00  0.00    +0.000 NA
ATOM     15  C   UNL     1      42.291   5.686  11.746  0.00  0.00    +0.000 C 
ATOM     16  C   UNL     1      43.019   4.376  11.425  0.00  0.00    +0.000 C 
ATOM     17  H   UNL     1      42.831   6.714  10.072  0.00  0.00    +0.000 HD
ENDBRANCH  10  11
ENDBRANCH   8  10
ENDBRANCH   5   8
ENDBRANCH   1   2
BRANCH   1  20
ATOM     18  C   UNL     1      51.079   5.724  18.365  0.00  0.00    +0.000 C 
ATOM     19  O   UNL     1      50.333   6.243  19.193  0.00  0.00    +0.000 OA
ATOM     20  N   UNL     1      50.990   6.032  17.035  0.00  0.00    +0.000 N 
ATOM     21  H   UNL     1      51.649   5.640  16.379  0.00  0.00    +0.000 HD
BRANCH  18  29
ATOM     22  C   UNL     1      51.622   2.432  17.555  0.00  0.00    +0.000 A 
ATOM     23  N   UNL     1      52.054   1.163  17.413  0.00  0.00    +0.000 NA
ATOM     24  C   UNL     1      53.140   0.793  18.099  0.00  0.00    +0.000 A 
ATOM     25  N   UNL     1      53.865   1.544  18.922  0.00  0.00    +0.000 NA
ATOM     26  C   UNL     1      53.404   2.803  19.030  0.00  0.00    +0.000 A 
ATOM     27  S   UNL     1      54.203   3.907  20.041  0.00  0.00    +0.000 S 
ATOM     28  C   UNL     1      53.096   5.137  19.658  0.00  0.00    +0.000 A 
ATOM     29  C   UNL     1      52.105   4.745  18.760  0.00  0.00    +0.000 A 
ATOM     30  C   UNL     1      52.296   3.344  18.388  0.00  0.00    +0.000 A 
BRANCH  22  32
ATOM     31  C   UNL     1      49.491   1.860  16.763  0.00  0.00    +0.000 C 
ATOM     32  O   UNL     1      50.530   2.832  16.819  0.00  0.00    +0.000 OA
ENDBRANCH  22  32
ENDBRANCH  18  29
ENDBRANCH   1  20
TORSDOF 7
ENDMDL
MODEL 8
REMARK VINA RESULT:    -6.101      3.044      4.345
REMARK INTER + INTRA:         -10.205
REMARK INTER:                  -9.302
REMARK INTRA:                  -0.903
REMARK UNBOUND:                -1.607
REMARK  Name = 
REMARK  8 active torsions:
REMARK  status: ('A' for Active; 'I' for Inactive)
REMARK    1  A    between atoms: C_1  and  O_2
REMARK    2  A    between atoms: O_2  and  C_3
REMARK    3  A    between atoms: C_10  and  C_11
REMARK    4  A    between atoms: N_13  and  C_14
REMARK    5  A    between atoms: C_14  and  C_15
REMARK    6  A    between atoms: C_18  and  N_19
REMARK    7  A    between atoms: N_19  and  C_20
REMARK    8  A    between atoms: C_20  and  C_21
REMARK                            x       y       z     vdW  Elec       q    Type
REMARK                         _______ _______ _______ _____ _____    ______ ____
ROOT
ATOM      1  C   UNL     1      46.721   6.352  13.090  0.00  0.00    +0.000 C 
ENDROOT
BRANCH   1   2
ATOM      2  C   UNL     1      45.927   5.494  12.138  0.00  0.00    +0.000 A 
ATOM      3  C   UNL     1      45.545   5.987  10.885  0.00  0.00    +0.000 A 
ATOM      4  C   UNL     1      44.903   5.158   9.957  0.00  0.00    +0.000 A 
ATOM      5  C   UNL     1      44.635   3.818  10.249  0.00  0.00    +0.000 A 
ATOM      6  C   UNL     1      44.902   3.370  11.548  0.00  0.00    +0.000 A 
ATOM      7  C   UNL     1      45.550   4.191  12.480  0.00  0.00    +0.000 A 
BRANCH   5   8
ATOM      8  N   UNL     1      44.113   2.913   9.328  0.00  0.00    +0.000 N 
ATOM      9  H   UNL     1      43.099   2.875   9.330  0.00  0.00    +0.000 HD
BRANCH   8  10
ATOM     10  C   UNL     1      44.738   2.747   8.018  0.00  0.00    +0.000 C 
BRANCH  10  11
ATOM     11  C   UNL     1      46.275   2.840   8.146  0.00  0.00    +0.000 C 
ATOM     12  C   UNL     1      46.907   3.795   7.115  0.00  0.00    +0.000 C 
ATOM     13  C   UNL     1      46.841   3.232   5.698  0.00  0.00    +0.000 C 
ATOM     14  N   UNL     1      47.502   1.926   5.612  0.00  0.00    +0.000 NA
ATOM     15  C   UNL     1      46.901   0.960   6.532  0.00  0.00    +0.000 C 
ATOM     16  C   UNL     1      46.924   1.452   7.983  0.00  0.00    +0.000 C 
ATOM     17  H   UNL     1      48.487   2.045   5.853  0.00  0.00    +0.000 HD
ENDBRANCH  10  11
ENDBRANCH   8  10
ENDBRANCH   5   8
ENDBRANCH   1   2
BRANCH   1  20
ATOM     18  C   UNL     1      48.084   5.734  15.048  0.00  0.00    +0.000 C 
ATOM     19  O   UNL     1      49.069   6.318  14.601  0.00  0.00    +0.000 OA
ATOM     20  N   UNL     1      46.900   5.706  14.363  0.00  0.00    +0.000 N 
ATOM     21  H   UNL     1      46.122   5.172  14.719  0.00  0.00    +0.000 HD
BRANCH  18  29
ATOM     22  C   UNL     1      49.002   6.700  18.211  0.00  0.00    +0.000 A 
ATOM     23  N   UNL     1      49.301   6.813  19.521  0.00  0.00    +0.000 NA
ATOM     24  C   UNL     1      49.144   5.733  20.293  0.00  0.00    +0.000 A 
ATOM     25  N   UNL     1      48.717   4.531  19.916  0.00  0.00    +0.000 NA
ATOM     26  C   UNL     1      48.425   4.464  18.605  0.00  0.00    +0.000 A 
ATOM     27  S   UNL     1      47.866   3.005  17.942  0.00  0.00    +0.000 S 
ATOM     28  C   UNL     1      47.751   3.693  16.393  0.00  0.00    +0.000 A 
ATOM     29  C   UNL     1      48.127   5.033  16.343  0.00  0.00    +0.000 A 
ATOM     30  C   UNL     1      48.530   5.489  17.673  0.00  0.00    +0.000 A 
BRANCH  22  32
ATOM     31  C   UNL     1      48.107   8.793  17.651  0.00  0.00    +0.000 C 
ATOM     32  O   UNL     1      49.120   7.820  17.421  0.00  0.00    +0.000 OA
ENDBRANCH  22  32
ENDBRANCH  18  29
ENDBRANCH   1  20
TORSDOF 7
ENDMDL
MODEL 9
REMARK VINA RESULT:    -6.063      4.431      9.027
REMARK INTER + INTRA:         -10.151
REMARK INTER:                  -9.000
REMARK INTRA:                  -1.151
REMARK UNBOUND:                -1.607
REMARK  Name = 
REMARK  8 active torsions:
REMARK  status: ('A' for Active; 'I' for Inactive)
REMARK    1  A    between atoms: C_1  and  O_2
REMARK    2  A    between atoms: O_2  and  C_3
REMARK    3  A    between atoms: C_10  and  C_11
REMARK    4  A    between atoms: N_13  and  C_14
REMARK    5  A    between atoms: C_14  and  C_15
REMARK    6  A    between atoms: C_18  and  N_19
REMARK    7  A    between atoms: N_19  and  C_20
REMARK    8  A    between atoms: C_20  and  C_21
REMARK                            x       y       z     vdW  Elec       q    Type
REMARK                         _______ _______ _______ _____ _____    ______ ____
ROOT
ATOM      1  C   UNL     1      47.216   3.766  16.825  0.00  0.00    +0.000 C 
ENDROOT
BRANCH   1   2
ATOM      2  C   UNL     1      48.659   3.408  17.073  0.00  0.00    +0.000 A 
ATOM      3  C   UNL     1      49.538   4.342  17.633  0.00  0.00    +0.000 A 
ATOM      4  C   UNL     1      50.849   3.979  17.965  0.00  0.00    +0.000 A 
ATOM      5  C   UNL     1      51.314   2.678  17.756  0.00  0.00    +0.000 A 
ATOM      6  C   UNL     1      50.473   1.788  17.078  0.00  0.00    +0.000 A 
ATOM      7  C   UNL     1      49.157   2.142  16.749  0.00  0.00    +0.000 A 
BRANCH   5   8
ATOM      8  N   UNL     1      52.562   2.223  18.176  0.00  0.00    +0.000 N 
ATOM      9  H   UNL     1      52.796   2.505  19.123  0.00  0.00    +0.000 HD
BRANCH   8  10
ATOM     10  C   UNL     1      53.035   0.896  17.790  0.00  0.00    +0.000 C 
BRANCH  10  11
ATOM     11  C   UNL     1      54.580   0.859  17.794  0.00  0.00    +0.000 C 
ATOM     12  C   UNL     1      55.171   0.326  16.475  0.00  0.00    +0.000 C 
ATOM     13  C   UNL     1      54.919  -1.169  16.298  0.00  0.00    +0.000 C 
ATOM     14  N   UNL     1      55.470  -1.937  17.418  0.00  0.00    +0.000 NA
ATOM     15  C   UNL     1      54.898  -1.510  18.695  0.00  0.00    +0.000 C 
ATOM     16  C   UNL     1      55.105  -0.013  18.950  0.00  0.00    +0.000 C 
ATOM     17  H   UNL     1      56.481  -1.794  17.444  0.00  0.00    +0.000 HD
ENDBRANCH  10  11
ENDBRANCH   8  10
ENDBRANCH   5   8
ENDBRANCH   1   2
BRANCH   1  20
ATOM     18  C   UNL     1      47.066   4.356  14.437  0.00  0.00    +0.000 C 
ATOM     19  O   UNL     1      47.172   3.180  14.096  0.00  0.00    +0.000 OA
ATOM     20  N   UNL     1      47.081   4.719  15.756  0.00  0.00    +0.000 N 
ATOM     21  H   UNL     1      47.052   5.694  16.013  0.00  0.00    +0.000 HD
BRANCH  18  29
ATOM     22  C   UNL     1      48.870   7.200  13.773  0.00  0.00    +0.000 A 
ATOM     23  N   UNL     1      49.383   8.359  13.313  0.00  0.00    +0.000 NA
ATOM     24  C   UNL     1      48.753   8.963  12.301  0.00  0.00    +0.000 A 
ATOM     25  N   UNL     1      47.657   8.547  11.674  0.00  0.00    +0.000 NA
ATOM     26  C   UNL     1      47.182   7.386  12.159  0.00  0.00    +0.000 A 
ATOM     27  S   UNL     1      45.783   6.701  11.483  0.00  0.00    +0.000 S 
ATOM     28  C   UNL     1      45.845   5.388  12.559  0.00  0.00    +0.000 A 
ATOM     29  C   UNL     1      46.918   5.435  13.446  0.00  0.00    +0.000 A 
ATOM     30  C   UNL     1      47.716   6.636  13.201  0.00  0.00    +0.000 A 
BRANCH  22  32
ATOM     31  C   UNL     1      50.555   7.340  15.398  0.00  0.00    +0.000 C 
ATOM     32  O   UNL     1      49.538   6.552  14.787  0.00  0.00    +0.000 OA
ENDBRANCH  22  32
ENDBRANCH  18  29
ENDBRANCH   1  20
TORSDOF 7
ENDMDL
