MODEL 1
REMARK VINA RESULT:    -8.697      0.000      0.000
REMARK INTER + INTRA:         -13.114
REMARK INTER:                 -12.256
REMARK INTRA:                  -0.858
REMARK UNBOUND:                -0.858
REMARK  Name = 
REMARK  8 active torsions:
REMARK  status: ('A' for Active; 'I' for Inactive)
REMARK    1  A    between atoms: C_1  and  O_2
REMARK    2  A    between atoms: O_2  and  C_3
REMARK    3  A    between atoms: C_5  and  C_6
REMARK    4  A    between atoms: C_11  and  N_12
REMARK    5  A    between atoms: N_12  and  C_13
REMARK    6  A    between atoms: C_13  and  C_14
REMARK    7  A    between atoms: C_18  and  C_19
REMARK    8  A    between atoms: C_22  and  C_23
REMARK                            x       y       z     vdW  Elec       q    Type
REMARK                         _______ _______ _______ _____ _____    ______ ____
ROOT
ATOM      1  C   UNL     1      43.972   5.832  11.478  0.00  0.00    +0.000 C 
ENDROOT
BRANCH   1   2
ATOM      2  C   UNL     1      45.398   6.060  11.909  0.00  0.00    +0.000 A 
ATOM      3  C   UNL     1      46.232   6.924  11.193  0.00  0.00    +0.000 A 
ATOM      4  C   UNL     1      47.517   7.197  11.655  0.00  0.00    +0.000 A 
ATOM      5  C   UNL     1      47.977   6.609  12.837  0.00  0.00    +0.000 A 
ATOM      6  C   UNL     1      47.173   5.723  13.574  0.00  0.00    +0.000 A 
ATOM      7  C   UNL     1      45.886   5.449  13.077  0.00  0.00    +0.000 A 
BRANCH   6   8
ATOM      8  C   UNL     1      47.634   5.158  14.858  0.00  0.00    +0.000 A 
ATOM      9  C   UNL     1      47.133   3.969  15.385  0.00  0.00    +0.000 A 
ATOM     10  C   UNL     1      47.546   3.553  16.651  0.00  0.00    +0.000 A 
ATOM     11  C   UNL     1      48.457   4.327  17.369  0.00  0.00    +0.000 A 
ATOM     12  C   UNL     1      48.928   5.480  16.764  0.00  0.00    +0.000 A 
ATOM     13  N   UNL     1      48.545   5.903  15.537  0.00  0.00    +0.000 NA
BRANCH  11  14
ATOM     14  C   UNL     1      48.926   3.962  18.742  0.00  0.00    +0.000 C 
ATOM     15  F   UNL     1      48.615   4.893  19.686  0.00  0.00    +0.000 F 
ATOM     16  F   UNL     1      48.392   2.791  19.182  0.00  0.00    +0.000 F 
ATOM     17  F   UNL     1      50.277   3.805  18.807  0.00  0.00    +0.000 F 
ENDBRANCH  11  14
ENDBRANCH   6   8
ENDBRANCH   1   2
BRANCH   1  18
ATOM     18  N   UNL     1      43.898   5.439  10.095  0.00  0.00    +0.000 N 
ATOM     19  H   UNL     1      43.302   5.945   9.455  0.00  0.00    +0.000 HD
BRANCH  18  25
ATOM     20  C   UNL     1      44.316   3.011   9.900  0.00  0.00    +0.000 A 
ATOM     21  C   UNL     1      45.073   2.016   9.272  0.00  0.00    +0.000 A 
ATOM     22  C   UNL     1      46.037   2.355   8.325  0.00  0.00    +0.000 A 
ATOM     23  C   UNL     1      46.201   3.700   8.045  0.00  0.00    +0.000 A 
ATOM     24  N   UNL     1      45.486   4.694   8.636  0.00  0.00    +0.000 NA
ATOM     25  C   UNL     1      44.549   4.358   9.555  0.00  0.00    +0.000 A 
BRANCH  22  26
ATOM     26  C   UNL     1      46.809   1.261   7.682  0.00  0.00    +0.000 C 
ATOM     27  N   UNL     1      47.774   1.571   6.768  0.00  0.00    +0.000 N 
ATOM     28  O   UNL     1      46.590   0.087   7.958  0.00  0.00    +0.000 OA
ATOM     29  H   UNL     1      48.019   2.494   6.448  0.00  0.00    +0.000 HD
ATOM     30  H   UNL     1      48.259   0.787   6.348  0.00  0.00    +0.000 HD
ENDBRANCH  22  26
BRANCH  20  32
ATOM     31  C   UNL     1      43.698   2.446  12.138  0.00  0.00    +0.000 C 
ATOM     32  O   UNL     1      43.319   2.721  10.796  0.00  0.00    +0.000 OA
ENDBRANCH  20  32
ENDBRANCH  18  25
ENDBRANCH   1  18
TORSDOF 7
ENDMDL
MODEL 2
REMARK VINA RESULT:    -8.015      5.363      8.040
REMARK INTER + INTRA:         -12.153
REMARK INTER:                 -10.934
REMARK INTRA:                  -1.218
REMARK UNBOUND:                -0.858
REMARK  Name = 
REMARK  8 active torsions:
REMARK  status: ('A' for Active; 'I' for Inactive)
REMARK    1  A    between atoms: C_1  and  O_2
REMARK    2  A    between atoms: O_2  and  C_3
REMARK    3  A    between atoms: C_5  and  C_6
REMARK    4  A    between atoms: C_11  and  N_12
REMARK    5  A    between atoms: N_12  and  C_13
REMARK    6  A    between atoms: C_13  and  C_14
REMARK    7  A    between atoms: C_18  and  C_19
REMARK    8  A    between atoms: C_22  and  C_23
REMARK                            x       y       z     vdW  Elec       q    Type
REMARK                         _______ _______ _______ _____ _____    ______ ____
ROOT
ATOM      1  C   UNL     1      44.750   8.028  12.330  0.00  0.00    +0.000 C 
ENDROOT
BRANCH   1   2
ATOM      2  C   UNL     1      44.388   6.583  12.097  0.00  0.00    +0.000 A 
ATOM      3  C   UNL     1      43.418   5.954  12.883  0.00  0.00    +0.000 A 
ATOM      4  C   UNL     1      43.027   4.649  12.598  0.00  0.00    +0.000 A 
ATOM      5  C   UNL     1      43.602   3.963  11.524  0.00  0.00    +0.000 A 
ATOM      6  C   UNL     1      44.591   4.558  10.721  0.00  0.00    +0.000 A 
ATOM      7  C   UNL     1      44.981   5.871  11.042  0.00  0.00    +0.000 A 
BRANCH   6   8
ATOM      8  C   UNL     1      45.146   3.859   9.546  0.00  0.00    +0.000 A 
ATOM      9  C   UNL     1      45.189   2.469   9.442  0.00  0.00    +0.000 A 
ATOM     10  C   UNL     1      45.820   1.883   8.345  0.00  0.00    +0.000 A 
ATOM     11  C   UNL     1      46.395   2.692   7.365  0.00  0.00    +0.000 A 
ATOM     12  C   UNL     1      46.286   4.063   7.528  0.00  0.00    +0.000 A 
ATOM     13  N   UNL     1      45.676   4.655   8.581  0.00  0.00    +0.000 NA
BRANCH  11  14
ATOM     14  C   UNL     1      47.111   2.139   6.175  0.00  0.00    +0.000 C 
ATOM     15  F   UNL     1      48.440   2.439   6.155  0.00  0.00    +0.000 F 
ATOM     16  F   UNL     1      47.034   0.783   6.102  0.00  0.00    +0.000 F 
ATOM     17  F   UNL     1      46.608   2.606   4.999  0.00  0.00    +0.000 F 
ENDBRANCH  11  14
ENDBRANCH   6   8
ENDBRANCH   1   2
BRANCH   1  18
ATOM     18  N   UNL     1      45.853   8.152  13.246  0.00  0.00    +0.000 N 
ATOM     19  H   UNL     1      45.683   8.359  14.220  0.00  0.00    +0.000 HD
BRANCH  18  25
ATOM     20  C   UNL     1      48.087   7.103  13.374  0.00  0.00    +0.000 A 
ATOM     21  C   UNL     1      49.413   7.152  12.932  0.00  0.00    +0.000 A 
ATOM     22  C   UNL     1      49.821   8.135  12.032  0.00  0.00    +0.000 A 
ATOM     23  C   UNL     1      48.863   9.039  11.609  0.00  0.00    +0.000 A 
ATOM     24  N   UNL     1      47.567   9.024  12.018  0.00  0.00    +0.000 NA
ATOM     25  C   UNL     1      47.176   8.065  12.891  0.00  0.00    +0.000 A 
BRANCH  22  26
ATOM     26  C   UNL     1      51.238   8.140  11.588  0.00  0.00    +0.000 C 
ATOM     27  N   UNL     1      51.692   7.130  10.789  0.00  0.00    +0.000 N 
ATOM     28  O   UNL     1      52.005   9.032  11.932  0.00  0.00    +0.000 OA
ATOM     29  H   UNL     1      51.160   6.337  10.469  0.00  0.00    +0.000 HD
ATOM     30  H   UNL     1      52.670   7.173  10.529  0.00  0.00    +0.000 HD
ENDBRANCH  22  26
BRANCH  20  32
ATOM     31  C   UNL     1      47.230   4.888  13.632  0.00  0.00    +0.000 C 
ATOM     32  O   UNL     1      47.628   6.121  14.215  0.00  0.00    +0.000 OA
ENDBRANCH  20  32
ENDBRANCH  18  25
ENDBRANCH   1  18
TORSDOF 7
ENDMDL
MODEL 3
REMARK VINA RESULT:    -7.899      5.255      8.781
REMARK INTER + INTRA:         -11.990
REMARK INTER:                 -11.083
REMARK INTRA:                  -0.907
REMARK UNBOUND:                -0.858
REMARK  Name = 
REMARK  8 active torsions:
REMARK  status: ('A' for Active; 'I' for Inactive)
REMARK    1  A    between atoms: C_1  and  O_2
REMARK    2  A    between atoms: O_2  and  C_3
REMARK    3  A    between atoms: C_5  and  C_6
REMARK    4  A    between atoms: C_11  and  N_12
REMARK    5  A    between atoms: N_12  and  C_13
REMARK    6  A    between atoms: C_13  and  C_14
REMARK    7  A    between atoms: C_18  and  C_19
REMARK    8  A    between atoms: C_22  and  C_23
REMARK                            x       y       z     vdW  Elec       q    Type
REMARK                         _______ _______ _______ _____ _____    ______ ____
ROOT
ATOM      1  C   UNL     1      46.058   7.149  13.248  0.00  0.00    +0.000 C 
ENDROOT
BRANCH   1   2
ATOM      2  C   UNL     1      45.115   6.248  12.493  0.00  0.00    +0.000 A 
ATOM      3  C   UNL     1      43.746   6.250  12.775  0.00  0.00    +0.000 A 
ATOM      4  C   UNL     1      42.874   5.482  12.008  0.00  0.00    +0.000 A 
ATOM      5  C   UNL     1      43.364   4.709  10.952  0.00  0.00    +0.000 A 
ATOM      6  C   UNL     1      44.736   4.671  10.648  0.00  0.00    +0.000 A 
ATOM      7  C   UNL     1      45.598   5.440  11.450  0.00  0.00    +0.000 A 
BRANCH   6   8
ATOM      8  C   UNL     1      45.242   3.909   9.489  0.00  0.00    +0.000 A 
ATOM      9  C   UNL     1      45.220   2.517   9.430  0.00  0.00    +0.000 A 
ATOM     10  C   UNL     1      45.810   1.868   8.345  0.00  0.00    +0.000 A 
ATOM     11  C   UNL     1      46.408   2.618   7.333  0.00  0.00    +0.000 A 
ATOM     12  C   UNL     1      46.365   3.997   7.454  0.00  0.00    +0.000 A 
ATOM     13  N   UNL     1      45.797   4.650   8.494  0.00  0.00    +0.000 NA
BRANCH  11  14
ATOM     14  C   UNL     1      47.084   1.994   6.153  0.00  0.00    +0.000 C 
ATOM     15  F   UNL     1      46.630   2.466   4.958  0.00  0.00    +0.000 F 
ATOM     16  F   UNL     1      48.428   2.202   6.150  0.00  0.00    +0.000 F 
ATOM     17  F   UNL     1      46.913   0.644   6.108  0.00  0.00    +0.000 F 
ENDBRANCH  11  14
ENDBRANCH   6   8
ENDBRANCH   1   2
BRANCH   1  18
ATOM     18  N   UNL     1      47.343   6.528  13.432  0.00  0.00    +0.000 N 
ATOM     19  H   UNL     1      47.973   6.421  12.648  0.00  0.00    +0.000 HD
BRANCH  18  25
ATOM     20  C   UNL     1      48.730   6.601  15.476  0.00  0.00    +0.000 A 
ATOM     21  C   UNL     1      49.104   5.927  16.643  0.00  0.00    +0.000 A 
ATOM     22  C   UNL     1      48.556   4.681  16.944  0.00  0.00    +0.000 A 
ATOM     23  C   UNL     1      47.643   4.160  16.046  0.00  0.00    +0.000 A 
ATOM     24  N   UNL     1      47.258   4.784  14.901  0.00  0.00    +0.000 NA
ATOM     25  C   UNL     1      47.792   5.996  14.615  0.00  0.00    +0.000 A 
BRANCH  22  26
ATOM     26  C   UNL     1      48.980   4.009  18.199  0.00  0.00    +0.000 C 
ATOM     27  N   UNL     1      48.061   3.308  18.926  0.00  0.00    +0.000 N 
ATOM     28  O   UNL     1      50.139   4.079  18.593  0.00  0.00    +0.000 OA
ATOM     29  H   UNL     1      47.083   3.206  18.712  0.00  0.00    +0.000 HD
ATOM     30  H   UNL     1      48.400   2.883  19.782  0.00  0.00    +0.000 HD
ENDBRANCH  22  26
BRANCH  20  32
ATOM     31  C   UNL     1      50.542   7.958  14.710  0.00  0.00    +0.000 C 
ATOM     32  O   UNL     1      49.200   7.853  15.167  0.00  0.00    +0.000 OA
ENDBRANCH  20  32
ENDBRANCH  18  25
ENDBRANCH   1  18
TORSDOF 7
ENDMDL
MODEL 4
REMARK VINA RESULT:    -7.208      5.292      9.027
REMARK INTER + INTRA:         -11.016
REMARK INTER:                 -10.202
REMARK INTRA:                  -0.814
REMARK UNBOUND:                -0.858
REMARK  Name = 
REMARK  8 active torsions:
REMARK  status: ('A' for Active; 'I' for Inactive)
REMARK    1  A    between atoms: C_1  and  O_2
REMARK    2  A    between atoms: O_2  and  C_3
REMARK    3  A    between atoms: C_5  and  C_6
REMARK    4  A    between atoms: C_11  and  N_12
REMARK    5  A    between atoms: N_12  and  C_13
REMARK    6  A    between atoms: C_13  and  C_14
REMARK    7  A    between atoms: C_18  and  C_19
REMARK    8  A    between atoms: C_22  and  C_23
REMARK                            x       y       z     vdW  Elec       q    Type
REMARK                         _______ _______ _______ _____ _____    ______ ____
ROOT
ATOM      1  C   UNL     1      46.121   7.192  13.259  0.00  0.00    +0.000 C 
ENDROOT
BRANCH   1   2
ATOM      2  C   UNL     1      45.180   6.272  12.524  0.00  0.00    +0.000 A 
ATOM      3  C   UNL     1      43.820   6.234  12.848  0.00  0.00    +0.000 A 
ATOM      4  C   UNL     1      42.946   5.449  12.100  0.00  0.00    +0.000 A 
ATOM      5  C   UNL     1      43.425   4.698  11.023  0.00  0.00    +0.000 A 
ATOM      6  C   UNL     1      44.787   4.699  10.679  0.00  0.00    +0.000 A 
ATOM      7  C   UNL     1      45.652   5.486  11.461  0.00  0.00    +0.000 A 
BRANCH   6   8
ATOM      8  C   UNL     1      45.279   3.961   9.498  0.00  0.00    +0.000 A 
ATOM      9  C   UNL     1      45.238   2.571   9.404  0.00  0.00    +0.000 A 
ATOM     10  C   UNL     1      45.815   1.942   8.301  0.00  0.00    +0.000 A 
ATOM     11  C   UNL     1      46.419   2.710   7.306  0.00  0.00    +0.000 A 
ATOM     12  C   UNL     1      46.394   4.086   7.461  0.00  0.00    +0.000 A 
ATOM     13  N   UNL     1      45.839   4.719   8.520  0.00  0.00    +0.000 NA
BRANCH  11  14
ATOM     14  C   UNL     1      47.082   2.107   6.107  0.00  0.00    +0.000 C 
ATOM     15  F   UNL     1      46.605   2.589   4.925  0.00  0.00    +0.000 F 
ATOM     16  F   UNL     1      48.424   2.328   6.085  0.00  0.00    +0.000 F 
ATOM     17  F   UNL     1      46.923   0.756   6.047  0.00  0.00    +0.000 F 
ENDBRANCH  11  14
ENDBRANCH   6   8
ENDBRANCH   1   2
BRANCH   1  18
ATOM     18  N   UNL     1      47.358   6.531  13.579  0.00  0.00    +0.000 N 
ATOM     19  H   UNL     1      47.784   5.900  12.915  0.00  0.00    +0.000 HD
BRANCH  18  25
ATOM     20  C   UNL     1      48.200   5.598  15.707  0.00  0.00    +0.000 A 
ATOM     21  C   UNL     1      48.879   5.870  16.900  0.00  0.00    +0.000 A 
ATOM     22  C   UNL     1      49.362   7.151  17.160  0.00  0.00    +0.000 A 
ATOM     23  C   UNL     1      49.137   8.118  16.197  0.00  0.00    +0.000 A 
ATOM     24  N   UNL     1      48.480   7.891  15.028  0.00  0.00    +0.000 NA
ATOM     25  C   UNL     1      48.015   6.643  14.779  0.00  0.00    +0.000 A 
BRANCH  22  26
ATOM     26  C   UNL     1      50.082   7.387  18.438  0.00  0.00    +0.000 C 
ATOM     27  N   UNL     1      49.769   6.632  19.531  0.00  0.00    +0.000 N 
ATOM     28  O   UNL     1      50.949   8.250  18.524  0.00  0.00    +0.000 OA
ATOM     29  H   UNL     1      49.061   5.918  19.580  0.00  0.00    +0.000 HD
ATOM     30  H   UNL     1      50.279   6.845  20.381  0.00  0.00    +0.000 HD
ENDBRANCH  22  26
BRANCH  20  32
ATOM     31  C   UNL     1      47.730   3.366  16.417  0.00  0.00    +0.000 C 
ATOM     32  O   UNL     1      47.758   4.340  15.383  0.00  0.00    +0.000 OA
ENDBRANCH  20  32
ENDBRANCH  18  25
ENDBRANCH   1  18
TORSDOF 7
ENDMDL
MODEL 5
REMARK VINA RESULT:    -7.096      4.695      8.062
REMARK INTER + INTRA:         -10.858
REMARK INTER:                  -9.737
REMARK INTRA:                  -1.121
REMARK UNBOUND:                -0.858
REMARK  Name = 
REMARK  8 active torsions:
REMARK  status: ('A' for Active; 'I' for Inactive)
REMARK    1  A    between atoms: C_1  and  O_2
REMARK    2  A    between atoms: O_2  and  C_3
REMARK    3  A    between atoms: C_5  and  C_6
REMARK    4  A    between atoms: C_11  and  N_12
REMARK    5  A    between atoms: N_12  and  C_13
REMARK    6  A    between atoms: C_13  and  C_14
REMARK    7  A    between atoms: C_18  and  C_19
REMARK    8  A    between atoms: C_22  and  C_23
REMARK                            x       y       z     vdW  Elec       q    Type
REMARK                         _______ _______ _______ _____ _____    ______ ____
ROOT
ATOM      1  C   UNL     1      50.025   7.596  16.232  0.00  0.00    +0.000 C 
ENDROOT
BRANCH   1   2
ATOM      2  C   UNL     1      49.655   7.610  14.771  0.00  0.00    +0.000 A 
ATOM      3  C   UNL     1      50.454   8.277  13.838  0.00  0.00    +0.000 A 
ATOM      4  C   UNL     1      50.151   8.206  12.481  0.00  0.00    +0.000 A 
ATOM      5  C   UNL     1      49.048   7.465  12.047  0.00  0.00    +0.000 A 
ATOM      6  C   UNL     1      48.213   6.794  12.957  0.00  0.00    +0.000 A 
ATOM      7  C   UNL     1      48.530   6.897  14.324  0.00  0.00    +0.000 A 
BRANCH   6   8
ATOM      8  C   UNL     1      47.091   5.955  12.492  0.00  0.00    +0.000 A 
ATOM      9  C   UNL     1      46.337   6.259  11.359  0.00  0.00    +0.000 A 
ATOM     10  C   UNL     1      45.229   5.473  11.042  0.00  0.00    +0.000 A 
ATOM     11  C   UNL     1      44.893   4.393  11.858  0.00  0.00    +0.000 A 
ATOM     12  C   UNL     1      45.707   4.142  12.949  0.00  0.00    +0.000 A 
ATOM     13  N   UNL     1      46.788   4.887  13.276  0.00  0.00    +0.000 NA
BRANCH  11  14
ATOM     14  C   UNL     1      43.705   3.521  11.598  0.00  0.00    +0.000 C 
ATOM     15  F   UNL     1      43.429   2.663  12.620  0.00  0.00    +0.000 F 
ATOM     16  F   UNL     1      42.566   4.236  11.394  0.00  0.00    +0.000 F 
ATOM     17  F   UNL     1      43.862   2.741  10.493  0.00  0.00    +0.000 F 
ENDBRANCH  11  14
ENDBRANCH   6   8
ENDBRANCH   1   2
BRANCH   1  18
ATOM     18  N   UNL     1      49.434   6.475  16.913  0.00  0.00    +0.000 N 
ATOM     19  H   UNL     1      48.506   6.552  17.308  0.00  0.00    +0.000 HD
BRANCH  18  25
ATOM     20  C   UNL     1      49.466   4.005  16.986  0.00  0.00    +0.000 A 
ATOM     21  C   UNL     1      50.232   2.867  17.264  0.00  0.00    +0.000 A 
ATOM     22  C   UNL     1      51.557   2.993  17.678  0.00  0.00    +0.000 A 
ATOM     23  C   UNL     1      52.062   4.275  17.796  0.00  0.00    +0.000 A 
ATOM     24  N   UNL     1      51.349   5.402  17.537  0.00  0.00    +0.000 NA
ATOM     25  C   UNL     1      50.062   5.275  17.133  0.00  0.00    +0.000 A 
BRANCH  22  26
ATOM     26  C   UNL     1      52.329   1.754  17.953  0.00  0.00    +0.000 C 
ATOM     27  N   UNL     1      52.019   0.608  17.279  0.00  0.00    +0.000 N 
ATOM     28  O   UNL     1      53.237   1.745  18.778  0.00  0.00    +0.000 OA
ATOM     29  H   UNL     1      51.281   0.495  16.603  0.00  0.00    +0.000 HD
ATOM     30  H   UNL     1      52.565  -0.211  17.517  0.00  0.00    +0.000 HD
ENDBRANCH  22  26
BRANCH  20  32
ATOM     31  C   UNL     1      47.187   3.426  17.410  0.00  0.00    +0.000 C 
ATOM     32  O   UNL     1      48.177   3.929  16.523  0.00  0.00    +0.000 OA
ENDBRANCH  20  32
ENDBRANCH  18  25
ENDBRANCH   1  18
TORSDOF 7
ENDMDL
MODEL 6
REMARK VINA RESULT:    -6.629      2.838      4.811
REMARK INTER + INTRA:         -10.200
REMARK INTER:                  -9.096
REMARK INTRA:                  -1.104
REMARK UNBOUND:                -0.858
REMARK  Name = 
REMARK  8 active torsions:
REMARK  status: ('A' for Active; 'I' for Inactive)
REMARK    1  A    between atoms: C_1  and  O_2
REMARK    2  A    between atoms: O_2  and  C_3
REMARK    3  A    between atoms: C_5  and  C_6
REMARK    4  A    between atoms: C_11  and  N_12
REMARK    5  A    between atoms: N_12  and  C_13
REMARK    6  A    between atoms: C_13  and  C_14
REMARK    7  A    between atoms: C_18  and  C_19
REMARK    8  A    between atoms: C_22  and  C_23
REMARK                            x       y       z     vdW  Elec       q    Type
REMARK                         _______ _______ _______ _____ _____    ______ ____
ROOT
ATOM      1  C   UNL     1      47.910   7.994  14.233  0.00  0.00    +0.000 C 
ENDROOT
BRANCH   1   2
ATOM      2  C   UNL     1      48.639   7.802  15.539  0.00  0.00    +0.000 A 
ATOM      3  C   UNL     1      48.573   8.772  16.543  0.00  0.00    +0.000 A 
ATOM      4  C   UNL     1      49.175   8.541  17.778  0.00  0.00    +0.000 A 
ATOM      5  C   UNL     1      49.844   7.337  18.017  0.00  0.00    +0.000 A 
ATOM      6  C   UNL     1      49.943   6.346  17.026  0.00  0.00    +0.000 A 
ATOM      7  C   UNL     1      49.344   6.611  15.782  0.00  0.00    +0.000 A 
BRANCH   6   8
ATOM      8  C   UNL     1      50.589   5.048  17.304  0.00  0.00    +0.000 A 
ATOM      9  C   UNL     1      51.952   4.922  17.571  0.00  0.00    +0.000 A 
ATOM     10  C   UNL     1      52.505   3.651  17.723  0.00  0.00    +0.000 A 
ATOM     11  C   UNL     1      51.690   2.524  17.612  0.00  0.00    +0.000 A 
ATOM     12  C   UNL     1      50.343   2.735  17.372  0.00  0.00    +0.000 A 
ATOM     13  N   UNL     1      49.782   3.958  17.223  0.00  0.00    +0.000 NA
BRANCH  11  14
ATOM     14  C   UNL     1      52.215   1.129  17.736  0.00  0.00    +0.000 C 
ATOM     15  F   UNL     1      53.248   1.015  18.617  0.00  0.00    +0.000 F 
ATOM     16  F   UNL     1      51.267   0.249  18.158  0.00  0.00    +0.000 F 
ATOM     17  F   UNL     1      52.681   0.640  16.554  0.00  0.00    +0.000 F 
ENDBRANCH  11  14
ENDBRANCH   6   8
ENDBRANCH   1   2
BRANCH   1  18
ATOM     18  N   UNL     1      48.073   6.857  13.368  0.00  0.00    +0.000 N 
ATOM     19  H   UNL     1      48.998   6.517  13.144  0.00  0.00    +0.000 HD
BRANCH  18  25
ATOM     20  C   UNL     1      46.312   5.124  13.301  0.00  0.00    +0.000 A 
ATOM     21  C   UNL     1      45.298   4.537  12.536  0.00  0.00    +0.000 A 
ATOM     22  C   UNL     1      45.022   5.004  11.253  0.00  0.00    +0.000 A 
ATOM     23  C   UNL     1      45.787   6.057  10.786  0.00  0.00    +0.000 A 
ATOM     24  N   UNL     1      46.781   6.652  11.498  0.00  0.00    +0.000 NA
ATOM     25  C   UNL     1      47.044   6.195  12.746  0.00  0.00    +0.000 A 
BRANCH  22  26
ATOM     26  C   UNL     1      43.931   4.351  10.485  0.00  0.00    +0.000 C 
ATOM     27  N   UNL     1      43.920   4.448   9.124  0.00  0.00    +0.000 N 
ATOM     28  O   UNL     1      43.040   3.730  11.056  0.00  0.00    +0.000 OA
ATOM     29  H   UNL     1      44.582   4.951   8.556  0.00  0.00    +0.000 HD
ATOM     30  H   UNL     1      43.144   3.998   8.651  0.00  0.00    +0.000 HD
ENDBRANCH  22  26
BRANCH  20  32
ATOM     31  C   UNL     1      47.278   3.510  14.774  0.00  0.00    +0.000 C 
ATOM     32  O   UNL     1      46.582   4.735  14.588  0.00  0.00    +0.000 OA
ENDBRANCH  20  32
ENDBRANCH  18  25
ENDBRANCH   1  18
TORSDOF 7
ENDMDL
MODEL 7
REMARK VINA RESULT:    -6.501      5.464      9.155
REMARK INTER + INTRA:         -10.018
REMARK INTER:                  -9.220
REMARK INTRA:                  -0.799
REMARK UNBOUND:                -0.858
REMARK  Name = 
REMARK  8 active torsions:
REMARK  status: ('A' for Active; 'I' for Inactive)
REMARK    1  A    between atoms: C_1  and  O_2
REMARK    2  A    between atoms: O_2  and  C_3
REMARK    3  A    between atoms: C_5  and  C_6
REMARK    4  A    between atoms: C_11  and  N_12
REMARK    5  A    between atoms: N_12  and  C_13
REMARK    6  A    between atoms: C_13  and  C_14
REMARK    7  A    between atoms: C_18  and  C_19
REMARK    8  A    between atoms: C_22  and  C_23
REMARK                            x       y       z     vdW  Elec       q    Type
REMARK                         _______ _______ _______ _____ _____    ______ ____
ROOT
ATOM      1  C   UNL     1      46.163   5.091  14.211  0.00  0.00    +0.000 C 
ENDROOT
BRANCH   1   2
ATOM      2  C   UNL     1      45.231   4.995  13.031  0.00  0.00    +0.000 A 
ATOM      3  C   UNL     1      43.968   5.593  13.067  0.00  0.00    +0.000 A 
ATOM      4  C   UNL     1      43.154   5.576  11.938  0.00  0.00    +0.000 A 
ATOM      5  C   UNL     1      43.599   4.962  10.763  0.00  0.00    +0.000 A 
ATOM      6  C   UNL     1      44.856   4.338  10.693  0.00  0.00    +0.000 A 
ATOM      7  C   UNL     1      45.651   4.353  11.854  0.00  0.00    +0.000 A 
BRANCH   6   8
ATOM      8  C   UNL     1      45.352   3.753   9.432  0.00  0.00    +0.000 A 
ATOM      9  C   UNL     1      45.347   2.382   9.180  0.00  0.00    +0.000 A 
ATOM     10  C   UNL     1      45.926   1.900   8.006  0.00  0.00    +0.000 A 
ATOM     11  C   UNL     1      46.496   2.792   7.099  0.00  0.00    +0.000 A 
ATOM     12  C   UNL     1      46.436   4.141   7.410  0.00  0.00    +0.000 A 
ATOM     13  N   UNL     1      45.878   4.633   8.540  0.00  0.00    +0.000 NA
BRANCH  11  14
ATOM     14  C   UNL     1      47.158   2.349   5.833  0.00  0.00    +0.000 C 
ATOM     15  F   UNL     1      48.354   2.962   5.604  0.00  0.00    +0.000 F 
ATOM     16  F   UNL     1      47.414   1.013   5.817  0.00  0.00    +0.000 F 
ATOM     17  F   UNL     1      46.397   2.599   4.731  0.00  0.00    +0.000 F 
ENDBRANCH  11  14
ENDBRANCH   6   8
ENDBRANCH   1   2
BRANCH   1  18
ATOM     18  N   UNL     1      47.452   5.601  13.824  0.00  0.00    +0.000 N 
ATOM     19  H   UNL     1      47.762   5.524  12.865  0.00  0.00    +0.000 HD
BRANCH  18  25
ATOM     20  C   UNL     1      49.156   7.292  14.411  0.00  0.00    +0.000 A 
ATOM     21  C   UNL     1      50.054   7.736  15.387  0.00  0.00    +0.000 A 
ATOM     22  C   UNL     1      50.158   7.068  16.606  0.00  0.00    +0.000 A 
ATOM     23  C   UNL     1      49.343   5.967  16.794  0.00  0.00    +0.000 A 
ATOM     24  N   UNL     1      48.460   5.505  15.869  0.00  0.00    +0.000 NA
ATOM     25  C   UNL     1      48.362   6.159  14.686  0.00  0.00    +0.000 A 
BRANCH  22  26
ATOM     26  C   UNL     1      51.122   7.583  17.612  0.00  0.00    +0.000 C 
ATOM     27  N   UNL     1      52.456   7.586  17.320  0.00  0.00    +0.000 N 
ATOM     28  O   UNL     1      50.738   8.002  18.699  0.00  0.00    +0.000 OA
ATOM     29  H   UNL     1      52.883   7.245  16.474  0.00  0.00    +0.000 HD
ATOM     30  H   UNL     1      53.071   7.933  18.047  0.00  0.00    +0.000 HD
ENDBRANCH  22  26
BRANCH  20  32
ATOM     31  C   UNL     1      48.137   9.094  13.219  0.00  0.00    +0.000 C 
ATOM     32  O   UNL     1      48.979   7.950  13.221  0.00  0.00    +0.000 OA
ENDBRANCH  20  32
ENDBRANCH  18  25
ENDBRANCH   1  18
TORSDOF 7
ENDMDL
MODEL 8
REMARK VINA RESULT:    -6.404      4.643      8.258
REMARK INTER + INTRA:          -9.883
REMARK INTER:                  -8.757
REMARK INTRA:                  -1.126
REMARK UNBOUND:                -0.858
REMARK  Name = 
REMARK  8 active torsions:
REMARK  status: ('A' for Active; 'I' for Inactive)
REMARK    1  A    between atoms: C_1  and  O_2
REMARK    2  A    between atoms: O_2  and  C_3
REMARK    3  A    between atoms: C_5  and  C_6
REMARK    4  A    between atoms: C_11  and  N_12
REMARK    5  A    between atoms: N_12  and  C_13
REMARK    6  A    between atoms: C_13  and  C_14
REMARK    7  A    between atoms: C_18  and  C_19
REMARK    8  A    between atoms: C_22  and  C_23
REMARK                            x       y       z     vdW  Elec       q    Type
REMARK                         _______ _______ _______ _____ _____    ______ ____
ROOT
ATOM      1  C   UNL     1      51.109   7.766  14.461  0.00  0.00    +0.000 C 
ENDROOT
BRANCH   1   2
ATOM      2  C   UNL     1      49.865   8.129  13.691  0.00  0.00    +0.000 A 
ATOM      3  C   UNL     1      49.682   9.425  13.199  0.00  0.00    +0.000 A 
ATOM      4  C   UNL     1      48.573   9.723  12.411  0.00  0.00    +0.000 A 
ATOM      5  C   UNL     1      47.641   8.727  12.109  0.00  0.00    +0.000 A 
ATOM      6  C   UNL     1      47.784   7.417  12.598  0.00  0.00    +0.000 A 
ATOM      7  C   UNL     1      48.902   7.147  13.406  0.00  0.00    +0.000 A 
BRANCH   6   8
ATOM      8  C   UNL     1      46.836   6.351  12.219  0.00  0.00    +0.000 A 
ATOM      9  C   UNL     1      46.201   6.307  10.979  0.00  0.00    +0.000 A 
ATOM     10  C   UNL     1      45.243   5.324  10.734  0.00  0.00    +0.000 A 
ATOM     11  C   UNL     1      44.935   4.396  11.728  0.00  0.00    +0.000 A 
ATOM     12  C   UNL     1      45.629   4.490  12.923  0.00  0.00    +0.000 A 
ATOM     13  N   UNL     1      46.565   5.433  13.183  0.00  0.00    +0.000 NA
BRANCH  11  14
ATOM     14  C   UNL     1      43.901   3.330  11.550  0.00  0.00    +0.000 C 
ATOM     15  F   UNL     1      42.653   3.821  11.309  0.00  0.00    +0.000 F 
ATOM     16  F   UNL     1      44.182   2.498  10.511  0.00  0.00    +0.000 F 
ATOM     17  F   UNL     1      43.780   2.532  12.647  0.00  0.00    +0.000 F 
ENDBRANCH  11  14
ENDBRANCH   6   8
ENDBRANCH   1   2
BRANCH   1  18
ATOM     18  N   UNL     1      50.891   7.848  15.881  0.00  0.00    +0.000 N 
ATOM     19  H   UNL     1      51.273   8.619  16.410  0.00  0.00    +0.000 HD
BRANCH  18  25
ATOM     20  C   UNL     1      49.031   7.123  17.338  0.00  0.00    +0.000 A 
ATOM     21  C   UNL     1      48.480   6.064  18.067  0.00  0.00    +0.000 A 
ATOM     22  C   UNL     1      49.105   4.818  18.083  0.00  0.00    +0.000 A 
ATOM     23  C   UNL     1      50.274   4.689  17.356  0.00  0.00    +0.000 A 
ATOM     24  N   UNL     1      50.841   5.696  16.638  0.00  0.00    +0.000 NA
ATOM     25  C   UNL     1      50.228   6.904  16.624  0.00  0.00    +0.000 A 
BRANCH  22  26
ATOM     26  C   UNL     1      48.476   3.724  18.866  0.00  0.00    +0.000 C 
ATOM     27  N   UNL     1      48.579   3.731  20.228  0.00  0.00    +0.000 N 
ATOM     28  O   UNL     1      47.870   2.816  18.309  0.00  0.00    +0.000 OA
ATOM     29  H   UNL     1      49.072   4.409  20.785  0.00  0.00    +0.000 HD
ATOM     30  H   UNL     1      48.146   2.953  20.712  0.00  0.00    +0.000 HD
ENDBRANCH  22  26
BRANCH  20  32
ATOM     31  C   UNL     1      47.710   8.816  18.385  0.00  0.00    +0.000 C 
ATOM     32  O   UNL     1      48.422   8.349  17.247  0.00  0.00    +0.000 OA
ENDBRANCH  20  32
ENDBRANCH  18  25
ENDBRANCH   1  18
TORSDOF 7
ENDMDL
MODEL 9
REMARK VINA RESULT:    -6.152      3.012      5.335
REMARK INTER + INTRA:          -9.527
REMARK INTER:                  -8.656
REMARK INTRA:                  -0.872
REMARK UNBOUND:                -0.858
REMARK  Name = 
REMARK  8 active torsions:
REMARK  status: ('A' for Active; 'I' for Inactive)
REMARK    1  A    between atoms: C_1  and  O_2
REMARK    2  A    between atoms: O_2  and  C_3
REMARK    3  A    between atoms: C_5  and  C_6
REMARK    4  A    between atoms: C_11  and  N_12
REMARK    5  A    between atoms: N_12  and  C_13
REMARK    6  A    between atoms: C_13  and  C_14
REMARK    7  A    between atoms: C_18  and  C_19
REMARK    8  A    between atoms: C_22  and  C_23
REMARK                            x       y       z     vdW  Elec       q    Type
REMARK                         _______ _______ _______ _____ _____    ______ ____
ROOT
ATOM      1  C   UNL     1      48.737   8.085  14.395  0.00  0.00    +0.000 C 
ENDROOT
BRANCH   1   2
ATOM      2  C   UNL     1      49.015   7.642  15.809  0.00  0.00    +0.000 A 
ATOM      3  C   UNL     1      48.505   8.359  16.896  0.00  0.00    +0.000 A 
ATOM      4  C   UNL     1      48.692   7.887  18.193  0.00  0.00    +0.000 A 
ATOM      5  C   UNL     1      49.389   6.696  18.412  0.00  0.00    +0.000 A 
ATOM      6  C   UNL     1      49.929   5.957  17.345  0.00  0.00    +0.000 A 
ATOM      7  C   UNL     1      49.743   6.464  16.046  0.00  0.00    +0.000 A 
BRANCH   6   8
ATOM      8  C   UNL     1      50.603   4.663  17.573  0.00  0.00    +0.000 A 
ATOM      9  C   UNL     1      51.856   4.558  18.175  0.00  0.00    +0.000 A 
ATOM     10  C   UNL     1      52.471   3.310  18.263  0.00  0.00    +0.000 A 
ATOM     11  C   UNL     1      51.825   2.184  17.755  0.00  0.00    +0.000 A 
ATOM     12  C   UNL     1      50.571   2.368  17.196  0.00  0.00    +0.000 A 
ATOM     13  N   UNL     1      49.952   3.568  17.101  0.00  0.00    +0.000 NA
BRANCH  11  14
ATOM     14  C   UNL     1      52.431   0.816  17.788  0.00  0.00    +0.000 C 
ATOM     15  F   UNL     1      51.614  -0.125  18.339  0.00  0.00    +0.000 F 
ATOM     16  F   UNL     1      52.750   0.355  16.549  0.00  0.00    +0.000 F 
ATOM     17  F   UNL     1      53.584   0.775  18.512  0.00  0.00    +0.000 F 
ENDBRANCH  11  14
ENDBRANCH   6   8
ENDBRANCH   1   2
BRANCH   1  18
ATOM     18  N   UNL     1      47.324   8.161  14.137  0.00  0.00    +0.000 N 
ATOM     19  H   UNL     1      46.752   8.834  14.629  0.00  0.00    +0.000 HD
BRANCH  18  25
ATOM     20  C   UNL     1      45.638   7.737  12.381  0.00  0.00    +0.000 A 
ATOM     21  C   UNL     1      45.016   6.767  11.586  0.00  0.00    +0.000 A 
ATOM     22  C   UNL     1      45.384   5.427  11.692  0.00  0.00    +0.000 A 
ATOM     23  C   UNL     1      46.375   5.115  12.604  0.00  0.00    +0.000 A 
ATOM     24  N   UNL     1      46.999   6.028  13.394  0.00  0.00    +0.000 NA
ATOM     25  C   UNL     1      46.640   7.330  13.286  0.00  0.00    +0.000 A 
BRANCH  22  26
ATOM     26  C   UNL     1      44.699   4.438  10.821  0.00  0.00    +0.000 C 
ATOM     27  N   UNL     1      43.818   4.877   9.874  0.00  0.00    +0.000 N 
ATOM     28  O   UNL     1      44.909   3.236  10.942  0.00  0.00    +0.000 OA
ATOM     29  H   UNL     1      43.552   5.833   9.704  0.00  0.00    +0.000 HD
ATOM     30  H   UNL     1      43.367   4.160   9.318  0.00  0.00    +0.000 HD
ENDBRANCH  22  26
BRANCH  20  32
ATOM     31  C   UNL     1      44.415   9.465  11.274  0.00  0.00    +0.000 C 
ATOM     32  O   UNL     1      45.349   9.073  12.271  0.00  0.00    +0.000 OA
ENDBRANCH  20  32
ENDBRANCH  18  25
ENDBRANCH   1  18
TORSDOF 7
ENDMDL
