MODEL 1
REMARK VINA RESULT:    -8.139      0.000      0.000
REMARK INTER + INTRA:         -10.969
REMARK INTER:                 -10.517
REMARK INTRA:                  -0.452
REMARK UNBOUND:                -0.452
REMARK  Name = 
REMARK  6 active torsions:
REMARK  status: ('A' for Active; 'I' for Inactive)
REMARK    1  A    between atoms: C_1  and  S_2
REMARK    2  A    between atoms: S_2  and  C_5
REMARK    3  A    between atoms: C_8  and  O_9
REMARK    4  A    between atoms: O_9  and  C_10
REMARK    5  A    between atoms: C_10  and  C_11
REMARK    6  A    between atoms: C_11  and  C_14
REMARK                            x       y       z     vdW  Elec       q    Type
REMARK                         _______ _______ _______ _____ _____    ______ ____
ROOT
ATOM      1  O   UNL     1      44.950   5.470  10.801  0.00  0.00    +0.000 OA
ENDROOT
BRANCH   1   5
ATOM      2  C   UNL     1      46.775   4.522  14.336  0.00  0.00    +0.000 A 
ATOM      3  C   UNL     1      47.267   5.642  13.688  0.00  0.00    +0.000 A 
ATOM      4  C   UNL     1      46.673   6.004  12.480  0.00  0.00    +0.000 A 
ATOM      5  C   UNL     1      45.622   5.241  11.968  0.00  0.00    +0.000 A 
ATOM      6  C   UNL     1      45.210   4.133  12.709  0.00  0.00    +0.000 A 
ATOM      7  N   UNL     1      45.757   3.746  13.887  0.00  0.00    +0.000 NA
BRANCH   2   9
ATOM      8  C   UNL     1      48.521   5.367  16.390  0.00  0.00    +0.000 C 
ATOM      9  S   UNL     1      47.501   4.013  15.876  0.00  0.00    +0.000 S 
ATOM     10  O   UNL     1      48.370   2.885  15.583  0.00  0.00    +0.000 OA
ATOM     11  O   UNL     1      46.415   3.883  16.833  0.00  0.00    +0.000 OA
ENDBRANCH   2   9
ENDBRANCH   1   5
BRANCH   1  12
ATOM     12  C   UNL     1      45.592   5.032   9.596  0.00  0.00    +0.000 C 
BRANCH  12  13
ATOM     13  C   UNL     1      44.854   3.853   8.938  0.00  0.00    +0.000 C 
ATOM     14  F   UNL     1      44.215   3.144   9.917  0.00  0.00    +0.000 F 
ATOM     15  F   UNL     1      43.839   4.397   8.190  0.00  0.00    +0.000 F 
BRANCH  13  16
ATOM     16  C   UNL     1      45.755   2.984   8.086  0.00  0.00    +0.000 A 
ATOM     17  C   UNL     1      46.423   3.518   6.973  0.00  0.00    +0.000 A 
ATOM     18  C   UNL     1      47.277   2.721   6.210  0.00  0.00    +0.000 A 
ATOM     19  C   UNL     1      47.472   1.383   6.547  0.00  0.00    +0.000 A 
ATOM     20  C   UNL     1      46.807   0.837   7.645  0.00  0.00    +0.000 A 
ATOM     21  C   UNL     1      45.953   1.632   8.410  0.00  0.00    +0.000 A 
ENDBRANCH  13  16
ENDBRANCH  12  13
ENDBRANCH   1  12
TORSDOF 5
ENDMDL
MODEL 2
REMARK VINA RESULT:    -7.863      3.710      6.641
REMARK INTER + INTRA:         -10.614
REMARK INTER:                  -9.743
REMARK INTRA:                  -0.871
REMARK UNBOUND:                -0.452
REMARK  Name = 
REMARK  6 active torsions:
REMARK  status: ('A' for Active; 'I' for Inactive)
REMARK    1  A    between atoms: C_1  and  S_2
REMARK    2  A    between atoms: S_2  and  C_5
REMARK    3  A    between atoms: C_8  and  O_9
REMARK    4  A    between atoms: O_9  and  C_10
REMARK    5  A    between atoms: C_10  and  C_11
REMARK    6  A    between atoms: C_11  and  C_14
REMARK                            x       y       z     vdW  Elec       q    Type
REMARK                         _______ _______ _______ _____ _____    ______ ____
ROOT
ATOM      1  O   UNL     1      43.338   3.657  10.570  0.00  0.00    +0.000 OA
ENDROOT
BRANCH   1   5
ATOM      2  C   UNL     1      46.141   2.525   7.816  0.00  0.00    +0.000 A 
ATOM      3  C   UNL     1      45.886   3.884   7.889  0.00  0.00    +0.000 A 
ATOM      4  C   UNL     1      44.939   4.316   8.817  0.00  0.00    +0.000 A 
ATOM      5  C   UNL     1      44.287   3.384   9.626  0.00  0.00    +0.000 A 
ATOM      6  C   UNL     1      44.626   2.040   9.464  0.00  0.00    +0.000 A 
ATOM      7  N   UNL     1      45.540   1.577   8.577  0.00  0.00    +0.000 NA
BRANCH   2   9
ATOM      8  C   UNL     1      46.911   2.678   5.101  0.00  0.00    +0.000 C 
ATOM      9  S   UNL     1      47.336   1.922   6.646  0.00  0.00    +0.000 S 
ATOM     10  O   UNL     1      47.117   0.491   6.517  0.00  0.00    +0.000 OA
ATOM     11  O   UNL     1      48.629   2.441   7.057  0.00  0.00    +0.000 OA
ENDBRANCH   2   9
ENDBRANCH   1   5
BRANCH   1  12
ATOM     12  C   UNL     1      43.355   4.976  11.132  0.00  0.00    +0.000 C 
BRANCH  12  13
ATOM     13  C   UNL     1      43.931   4.995  12.559  0.00  0.00    +0.000 C 
ATOM     14  F   UNL     1      43.080   5.707  13.358  0.00  0.00    +0.000 F 
ATOM     15  F   UNL     1      43.847   3.707  13.030  0.00  0.00    +0.000 F 
BRANCH  13  16
ATOM     16  C   UNL     1      45.354   5.509  12.623  0.00  0.00    +0.000 A 
ATOM     17  C   UNL     1      45.830   6.423  11.671  0.00  0.00    +0.000 A 
ATOM     18  C   UNL     1      47.132   6.918  11.753  0.00  0.00    +0.000 A 
ATOM     19  C   UNL     1      47.973   6.504  12.785  0.00  0.00    +0.000 A 
ATOM     20  C   UNL     1      47.516   5.590  13.732  0.00  0.00    +0.000 A 
ATOM     21  C   UNL     1      46.215   5.093  13.653  0.00  0.00    +0.000 A 
ENDBRANCH  13  16
ENDBRANCH  12  13
ENDBRANCH   1  12
TORSDOF 5
ENDMDL
MODEL 3
REMARK VINA RESULT:    -7.683      1.988      2.282
REMARK INTER + INTRA:         -10.381
REMARK INTER:                  -9.881
REMARK INTRA:                  -0.500
REMARK UNBOUND:                -0.452
REMARK  Name = 
REMARK  6 active torsions:
REMARK  status: ('A' for Active; 'I' for Inactive)
REMARK    1  A    between atoms: C_1  and  S_2
REMARK    2  A    between atoms: S_2  and  C_5
REMARK    3  A    between atoms: C_8  and  O_9
REMARK    4  A    between atoms: O_9  and  C_10
REMARK    5  A    between atoms: C_10  and  C_11
REMARK    6  A    between atoms: C_11  and  C_14
REMARK                            x       y       z     vdW  Elec       q    Type
REMARK                         _______ _______ _______ _____ _____    ______ ____
ROOT
ATOM      1  O   UNL     1      43.941   4.536  10.845  0.00  0.00    +0.000 OA
ENDROOT
BRANCH   1   5
ATOM      2  C   UNL     1      46.921   6.374  12.958  0.00  0.00    +0.000 A 
ATOM      3  C   UNL     1      46.857   6.690  11.612  0.00  0.00    +0.000 A 
ATOM      4  C   UNL     1      45.855   6.089  10.853  0.00  0.00    +0.000 A 
ATOM      5  C   UNL     1      44.964   5.201  11.459  0.00  0.00    +0.000 A 
ATOM      6  C   UNL     1      45.125   4.959  12.824  0.00  0.00    +0.000 A 
ATOM      7  N   UNL     1      46.083   5.522  13.600  0.00  0.00    +0.000 NA
BRANCH   2   9
ATOM      8  C   UNL     1      49.535   7.442  12.874  0.00  0.00    +0.000 C 
ATOM      9  S   UNL     1      48.184   7.109  13.970  0.00  0.00    +0.000 S 
ATOM     10  O   UNL     1      48.615   6.092  14.915  0.00  0.00    +0.000 OA
ATOM     11  O   UNL     1      47.663   8.382  14.437  0.00  0.00    +0.000 OA
ENDBRANCH   2   9
ENDBRANCH   1   5
BRANCH   1  12
ATOM     12  C   UNL     1      44.180   4.096   9.501  0.00  0.00    +0.000 C 
BRANCH  12  13
ATOM     13  C   UNL     1      44.844   2.708   9.452  0.00  0.00    +0.000 C 
ATOM     14  F   UNL     1      45.479   2.492  10.643  0.00  0.00    +0.000 F 
ATOM     15  F   UNL     1      43.824   1.789   9.435  0.00  0.00    +0.000 F 
BRANCH  13  16
ATOM     16  C   UNL     1      45.763   2.527   8.262  0.00  0.00    +0.000 A 
ATOM     17  C   UNL     1      45.971   3.573   7.350  0.00  0.00    +0.000 A 
ATOM     18  C   UNL     1      46.844   3.411   6.274  0.00  0.00    +0.000 A 
ATOM     19  C   UNL     1      47.517   2.204   6.094  0.00  0.00    +0.000 A 
ATOM     20  C   UNL     1      47.313   1.153   6.987  0.00  0.00    +0.000 A 
ATOM     21  C   UNL     1      46.441   1.312   8.065  0.00  0.00    +0.000 A 
ENDBRANCH  13  16
ENDBRANCH  12  13
ENDBRANCH   1  12
TORSDOF 5
ENDMDL
MODEL 4
REMARK VINA RESULT:    -7.295      1.518      1.931
REMARK INTER + INTRA:          -9.879
REMARK INTER:                  -9.402
REMARK INTRA:                  -0.477
REMARK UNBOUND:                -0.452
REMARK  Name = 
REMARK  6 active torsions:
REMARK  status: ('A' for Active; 'I' for Inactive)
REMARK    1  A    between atoms: C_1  and  S_2
REMARK    2  A    between atoms: S_2  and  C_5
REMARK    3  A    between atoms: C_8  and  O_9
REMARK    4  A    between atoms: O_9  and  C_10
REMARK    5  A    between atoms: C_10  and  C_11
REMARK    6  A    between atoms: C_11  and  C_14
REMARK                            x       y       z     vdW  Elec       q    Type
REMARK                         _______ _______ _______ _____ _____    ______ ____
ROOT
ATOM      1  O   UNL     1      46.390   5.585  11.645  0.00  0.00    +0.000 OA
ENDROOT
BRANCH   1   5
ATOM      2  C   UNL     1      47.475   4.093  15.295  0.00  0.00    +0.000 A 
ATOM      3  C   UNL     1      47.526   5.470  15.171  0.00  0.00    +0.000 A 
ATOM      4  C   UNL     1      47.163   6.024  13.944  0.00  0.00    +0.000 A 
ATOM      5  C   UNL     1      46.767   5.189  12.897  0.00  0.00    +0.000 A 
ATOM      6  C   UNL     1      46.753   3.815  13.139  0.00  0.00    +0.000 A 
ATOM      7  N   UNL     1      47.097   3.235  14.315  0.00  0.00    +0.000 NA
BRANCH   2   9
ATOM      8  C   UNL     1      48.551   4.654  17.846  0.00  0.00    +0.000 C 
ATOM      9  S   UNL     1      47.934   3.336  16.837  0.00  0.00    +0.000 S 
ATOM     10  O   UNL     1      49.038   2.434  16.554  0.00  0.00    +0.000 OA
ATOM     11  O   UNL     1      46.710   2.842  17.446  0.00  0.00    +0.000 OA
ENDBRANCH   2   9
ENDBRANCH   1   5
BRANCH   1  12
ATOM     12  C   UNL     1      45.031   6.017  11.493  0.00  0.00    +0.000 C 
BRANCH  12  13
ATOM     13  C   UNL     1      44.122   4.900  10.951  0.00  0.00    +0.000 C 
ATOM     14  F   UNL     1      43.701   4.138  12.005  0.00  0.00    +0.000 F 
ATOM     15  F   UNL     1      42.982   5.513  10.493  0.00  0.00    +0.000 F 
BRANCH  13  16
ATOM     16  C   UNL     1      44.774   4.074   9.862  0.00  0.00    +0.000 A 
ATOM     17  C   UNL     1      45.459   4.694   8.805  0.00  0.00    +0.000 A 
ATOM     18  C   UNL     1      46.086   3.927   7.822  0.00  0.00    +0.000 A 
ATOM     19  C   UNL     1      46.033   2.536   7.880  0.00  0.00    +0.000 A 
ATOM     20  C   UNL     1      45.347   1.908   8.918  0.00  0.00    +0.000 A 
ATOM     21  C   UNL     1      44.721   2.671   9.904  0.00  0.00    +0.000 A 
ENDBRANCH  13  16
ENDBRANCH  12  13
ENDBRANCH   1  12
TORSDOF 5
ENDMDL
MODEL 5
REMARK VINA RESULT:    -7.189      2.667      3.323
REMARK INTER + INTRA:          -9.742
REMARK INTER:                  -8.873
REMARK INTRA:                  -0.868
REMARK UNBOUND:                -0.452
REMARK  Name = 
REMARK  6 active torsions:
REMARK  status: ('A' for Active; 'I' for Inactive)
REMARK    1  A    between atoms: C_1  and  S_2
REMARK    2  A    between atoms: S_2  and  C_5
REMARK    3  A    between atoms: C_8  and  O_9
REMARK    4  A    between atoms: O_9  and  C_10
REMARK    5  A    between atoms: C_10  and  C_11
REMARK    6  A    between atoms: C_11  and  C_14
REMARK                            x       y       z     vdW  Elec       q    Type
REMARK                         _______ _______ _______ _____ _____    ______ ____
ROOT
ATOM      1  O   UNL     1      44.643   4.615  12.859  0.00  0.00    +0.000 OA
ENDROOT
BRANCH   1   5
ATOM      2  C   UNL     1      48.026   6.908  12.695  0.00  0.00    +0.000 A 
ATOM      3  C   UNL     1      46.924   7.415  12.029  0.00  0.00    +0.000 A 
ATOM      4  C   UNL     1      45.748   6.668  12.060  0.00  0.00    +0.000 A 
ATOM      5  C   UNL     1      45.717   5.453  12.747  0.00  0.00    +0.000 A 
ATOM      6  C   UNL     1      46.889   5.042  13.383  0.00  0.00    +0.000 A 
ATOM      7  N   UNL     1      48.053   5.737  13.379  0.00  0.00    +0.000 NA
BRANCH   2   9
ATOM      8  C   UNL     1      49.087   9.523  12.558  0.00  0.00    +0.000 C 
ATOM      9  S   UNL     1      49.553   7.818  12.682  0.00  0.00    +0.000 S 
ATOM     10  O   UNL     1      50.251   7.457  11.460  0.00  0.00    +0.000 OA
ATOM     11  O   UNL     1      50.176   7.618  13.979  0.00  0.00    +0.000 OA
ENDBRANCH   2   9
ENDBRANCH   1   5
BRANCH   1  12
ATOM     12  C   UNL     1      44.790   3.307  12.289  0.00  0.00    +0.000 C 
BRANCH  12  13
ATOM     13  C   UNL     1      43.970   3.140  10.997  0.00  0.00    +0.000 C 
ATOM     14  F   UNL     1      43.244   1.985  11.094  0.00  0.00    +0.000 F 
ATOM     15  F   UNL     1      43.028   4.139  11.002  0.00  0.00    +0.000 F 
BRANCH  13  16
ATOM     16  C   UNL     1      44.815   3.191   9.742  0.00  0.00    +0.000 A 
ATOM     17  C   UNL     1      45.178   4.420   9.171  0.00  0.00    +0.000 A 
ATOM     18  C   UNL     1      45.984   4.462   8.032  0.00  0.00    +0.000 A 
ATOM     19  C   UNL     1      46.433   3.278   7.449  0.00  0.00    +0.000 A 
ATOM     20  C   UNL     1      46.072   2.050   8.000  0.00  0.00    +0.000 A 
ATOM     21  C   UNL     1      45.267   2.005   9.139  0.00  0.00    +0.000 A 
ENDBRANCH  13  16
ENDBRANCH  12  13
ENDBRANCH   1  12
TORSDOF 5
ENDMDL
MODEL 6
REMARK VINA RESULT:    -6.957      2.418      3.229
REMARK INTER + INTRA:          -9.443
REMARK INTER:                  -8.746
REMARK INTRA:                  -0.696
REMARK UNBOUND:                -0.452
REMARK  Name = 
REMARK  6 active torsions:
REMARK  status: ('A' for Active; 'I' for Inactive)
REMARK    1  A    between atoms: C_1  and  S_2
REMARK    2  A    between atoms: S_2  and  C_5
REMARK    3  A    between atoms: C_8  and  O_9
REMARK    4  A    between atoms: O_9  and  C_10
REMARK    5  A    between atoms: C_10  and  C_11
REMARK    6  A    between atoms: C_11  and  C_14
REMARK                            x       y       z     vdW  Elec       q    Type
REMARK                         _______ _______ _______ _____ _____    ______ ____
ROOT
ATOM      1  O   UNL     1      45.397   3.889  13.166  0.00  0.00    +0.000 OA
ENDROOT
BRANCH   1   5
ATOM      2  C   UNL     1      48.355   6.254  14.711  0.00  0.00    +0.000 A 
ATOM      3  C   UNL     1      47.808   6.682  13.514  0.00  0.00    +0.000 A 
ATOM      4  C   UNL     1      46.794   5.908  12.951  0.00  0.00    +0.000 A 
ATOM      5  C   UNL     1      46.371   4.745  13.598  0.00  0.00    +0.000 A 
ATOM      6  C   UNL     1      46.994   4.414  14.801  0.00  0.00    +0.000 A 
ATOM      7  N   UNL     1      47.981   5.137  15.384  0.00  0.00    +0.000 NA
BRANCH   2   9
ATOM      8  C   UNL     1      50.502   7.997  14.131  0.00  0.00    +0.000 C 
ATOM      9  S   UNL     1      49.654   7.202  15.468  0.00  0.00    +0.000 S 
ATOM     10  O   UNL     1      50.571   6.254  16.078  0.00  0.00    +0.000 OA
ATOM     11  O   UNL     1      49.014   8.234  16.267  0.00  0.00    +0.000 OA
ENDBRANCH   2   9
ENDBRANCH   1   5
BRANCH   1  12
ATOM     12  C   UNL     1      44.146   4.480  12.790  0.00  0.00    +0.000 C 
BRANCH  12  13
ATOM     13  C   UNL     1      43.481   3.738  11.617  0.00  0.00    +0.000 C 
ATOM     14  F   UNL     1      43.084   2.506  12.057  0.00  0.00    +0.000 F 
ATOM     15  F   UNL     1      42.308   4.402  11.351  0.00  0.00    +0.000 F 
BRANCH  13  16
ATOM     16  C   UNL     1      44.356   3.661  10.384  0.00  0.00    +0.000 A 
ATOM     17  C   UNL     1      44.554   2.441   9.720  0.00  0.00    +0.000 A 
ATOM     18  C   UNL     1      45.337   2.382   8.566  0.00  0.00    +0.000 A 
ATOM     19  C   UNL     1      45.931   3.537   8.064  0.00  0.00    +0.000 A 
ATOM     20  C   UNL     1      45.750   4.755   8.719  0.00  0.00    +0.000 A 
ATOM     21  C   UNL     1      44.968   4.818   9.873  0.00  0.00    +0.000 A 
ENDBRANCH  13  16
ENDBRANCH  12  13
ENDBRANCH   1  12
TORSDOF 5
ENDMDL
MODEL 7
REMARK VINA RESULT:    -6.857      1.637      2.469
REMARK INTER + INTRA:          -9.313
REMARK INTER:                  -8.863
REMARK INTRA:                  -0.450
REMARK UNBOUND:                -0.452
REMARK  Name = 
REMARK  6 active torsions:
REMARK  status: ('A' for Active; 'I' for Inactive)
REMARK    1  A    between atoms: C_1  and  S_2
REMARK    2  A    between atoms: S_2  and  C_5
REMARK    3  A    between atoms: C_8  and  O_9
REMARK    4  A    between atoms: O_9  and  C_10
REMARK    5  A    between atoms: C_10  and  C_11
REMARK    6  A    between atoms: C_11  and  C_14
REMARK                            x       y       z     vdW  Elec       q    Type
REMARK                         _______ _______ _______ _____ _____    ______ ____
ROOT
ATOM      1  O   UNL     1      46.386   5.423  11.728  0.00  0.00    +0.000 OA
ENDROOT
BRANCH   1   5
ATOM      2  C   UNL     1      47.761   4.671  15.506  0.00  0.00    +0.000 A 
ATOM      3  C   UNL     1      47.950   5.962  15.045  0.00  0.00    +0.000 A 
ATOM      4  C   UNL     1      47.495   6.265  13.762  0.00  0.00    +0.000 A 
ATOM      5  C   UNL     1      46.876   5.276  12.995  0.00  0.00    +0.000 A 
ATOM      6  C   UNL     1      46.739   4.010  13.565  0.00  0.00    +0.000 A 
ATOM      7  N   UNL     1      47.165   3.673  14.807  0.00  0.00    +0.000 NA
BRANCH   2   9
ATOM      8  C   UNL     1      47.255   2.930  17.673  0.00  0.00    +0.000 C 
ATOM      9  S   UNL     1      48.328   4.232  17.132  0.00  0.00    +0.000 S 
ATOM     10  O   UNL     1      48.098   5.384  17.987  0.00  0.00    +0.000 OA
ATOM     11  O   UNL     1      49.662   3.676  16.978  0.00  0.00    +0.000 OA
ENDBRANCH   2   9
ENDBRANCH   1   5
BRANCH   1  12
ATOM     12  C   UNL     1      45.015   5.827  11.614  0.00  0.00    +0.000 C 
BRANCH  12  13
ATOM     13  C   UNL     1      44.136   4.732  10.983  0.00  0.00    +0.000 C 
ATOM     14  F   UNL     1      43.695   3.905  11.979  0.00  0.00    +0.000 F 
ATOM     15  F   UNL     1      43.001   5.357  10.528  0.00  0.00    +0.000 F 
BRANCH  13  16
ATOM     16  C   UNL     1      44.830   3.978   9.868  0.00  0.00    +0.000 A 
ATOM     17  C   UNL     1      44.838   2.575   9.848  0.00  0.00    +0.000 A 
ATOM     18  C   UNL     1      45.451   1.885   8.801  0.00  0.00    +0.000 A 
ATOM     19  C   UNL     1      46.064   2.588   7.765  0.00  0.00    +0.000 A 
ATOM     20  C   UNL     1      46.070   3.982   7.777  0.00  0.00    +0.000 A 
ATOM     21  C   UNL     1      45.458   4.674   8.822  0.00  0.00    +0.000 A 
ENDBRANCH  13  16
ENDBRANCH  12  13
ENDBRANCH   1  12
TORSDOF 5
ENDMDL
MODEL 8
REMARK VINA RESULT:    -6.652      3.896      8.002
REMARK INTER + INTRA:          -9.048
REMARK INTER:                  -8.604
REMARK INTRA:                  -0.444
REMARK UNBOUND:                -0.452
REMARK  Name = 
REMARK  6 active torsions:
REMARK  status: ('A' for Active; 'I' for Inactive)
REMARK    1  A    between atoms: C_1  and  S_2
REMARK    2  A    between atoms: S_2  and  C_5
REMARK    3  A    between atoms: C_8  and  O_9
REMARK    4  A    between atoms: O_9  and  C_10
REMARK    5  A    between atoms: C_10  and  C_11
REMARK    6  A    between atoms: C_11  and  C_14
REMARK                            x       y       z     vdW  Elec       q    Type
REMARK                         _______ _______ _______ _____ _____    ______ ____
ROOT
ATOM      1  O   UNL     1      47.837   5.234  14.805  0.00  0.00    +0.000 OA
ENDROOT
BRANCH   1   5
ATOM      2  C   UNL     1      45.159   4.148  11.911  0.00  0.00    +0.000 A 
ATOM      3  C   UNL     1      45.487   5.492  11.951  0.00  0.00    +0.000 A 
ATOM      4  C   UNL     1      46.399   5.907  12.921  0.00  0.00    +0.000 A 
ATOM      5  C   UNL     1      46.941   4.974  13.807  0.00  0.00    +0.000 A 
ATOM      6  C   UNL     1      46.536   3.646  13.671  0.00  0.00    +0.000 A 
ATOM      7  N   UNL     1      45.655   3.199  12.743  0.00  0.00    +0.000 NA
BRANCH   2   9
ATOM      8  C   UNL     1      44.951   2.628   9.539  0.00  0.00    +0.000 C 
ATOM      9  S   UNL     1      43.996   3.568  10.698  0.00  0.00    +0.000 S 
ATOM     10  O   UNL     1      43.483   4.739  10.008  0.00  0.00    +0.000 OA
ATOM     11  O   UNL     1      43.095   2.654  11.380  0.00  0.00    +0.000 OA
ENDBRANCH   2   9
ENDBRANCH   1   5
BRANCH   1  12
ATOM     12  C   UNL     1      47.627   4.547  16.047  0.00  0.00    +0.000 C 
BRANCH  12  13
ATOM     13  C   UNL     1      48.609   5.006  17.139  0.00  0.00    +0.000 C 
ATOM     14  F   UNL     1      49.037   6.268  16.832  0.00  0.00    +0.000 F 
ATOM     15  F   UNL     1      47.870   5.164  18.286  0.00  0.00    +0.000 F 
BRANCH  13  16
ATOM     16  C   UNL     1      49.755   4.041  17.356  0.00  0.00    +0.000 A 
ATOM     17  C   UNL     1      49.585   2.665  17.139  0.00  0.00    +0.000 A 
ATOM     18  C   UNL     1      50.654   1.784  17.309  0.00  0.00    +0.000 A 
ATOM     19  C   UNL     1      51.902   2.265  17.699  0.00  0.00    +0.000 A 
ATOM     20  C   UNL     1      52.083   3.628  17.927  0.00  0.00    +0.000 A 
ATOM     21  C   UNL     1      51.016   4.512  17.758  0.00  0.00    +0.000 A 
ENDBRANCH  13  16
ENDBRANCH  12  13
ENDBRANCH   1  12
TORSDOF 5
ENDMDL
MODEL 9
REMARK VINA RESULT:    -5.494      4.363      5.920
REMARK INTER + INTRA:          -7.552
REMARK INTER:                  -7.014
REMARK INTRA:                  -0.538
REMARK UNBOUND:                -0.452
REMARK  Name = 
REMARK  6 active torsions:
REMARK  status: ('A' for Active; 'I' for Inactive)
REMARK    1  A    between atoms: C_1  and  S_2
REMARK    2  A    between atoms: S_2  and  C_5
REMARK    3  A    between atoms: C_8  and  O_9
REMARK    4  A    between atoms: O_9  and  C_10
REMARK    5  A    between atoms: C_10  and  C_11
REMARK    6  A    between atoms: C_11  and  C_14
REMARK                            x       y       z     vdW  Elec       q    Type
REMARK                         _______ _______ _______ _____ _____    ______ ____
ROOT
ATOM      1  O   UNL     1      47.121   3.485  16.063  0.00  0.00    +0.000 OA
ENDROOT
BRANCH   1   5
ATOM      2  C   UNL     1      50.890   3.485  17.649  0.00  0.00    +0.000 A 
ATOM      3  C   UNL     1      50.217   4.693  17.703  0.00  0.00    +0.000 A 
ATOM      4  C   UNL     1      48.927   4.739  17.175  0.00  0.00    +0.000 A 
ATOM      5  C   UNL     1      48.364   3.589  16.618  0.00  0.00    +0.000 A 
ATOM      6  C   UNL     1      49.138   2.428  16.621  0.00  0.00    +0.000 A 
ATOM      7  N   UNL     1      50.394   2.338  17.123  0.00  0.00    +0.000 NA
BRANCH   2   9
ATOM      8  C   UNL     1      52.484   4.189  19.874  0.00  0.00    +0.000 C 
ATOM      9  S   UNL     1      52.540   3.374  18.302  0.00  0.00    +0.000 S 
ATOM     10  O   UNL     1      53.396   4.154  17.425  0.00  0.00    +0.000 OA
ATOM     11  O   UNL     1      52.807   1.965  18.538  0.00  0.00    +0.000 OA
ENDBRANCH   2   9
ENDBRANCH   1   5
BRANCH   1  12
ATOM     12  C   UNL     1      46.679   4.596  15.271  0.00  0.00    +0.000 C 
BRANCH  12  13
ATOM     13  C   UNL     1      46.723   4.290  13.763  0.00  0.00    +0.000 C 
ATOM     14  F   UNL     1      47.686   5.075  13.192  0.00  0.00    +0.000 F 
ATOM     15  F   UNL     1      47.204   3.010  13.639  0.00  0.00    +0.000 F 
BRANCH  13  16
ATOM     16  C   UNL     1      45.377   4.436  13.084  0.00  0.00    +0.000 A 
ATOM     17  C   UNL     1      44.742   5.686  13.012  0.00  0.00    +0.000 A 
ATOM     18  C   UNL     1      43.517   5.821  12.357  0.00  0.00    +0.000 A 
ATOM     19  C   UNL     1      42.912   4.711  11.769  0.00  0.00    +0.000 A 
ATOM     20  C   UNL     1      43.528   3.462  11.841  0.00  0.00    +0.000 A 
ATOM     21  C   UNL     1      44.753   3.324  12.495  0.00  0.00    +0.000 A 
ENDBRANCH  13  16
ENDBRANCH  12  13
ENDBRANCH   1  12
TORSDOF 5
ENDMDL
