MODEL 1
REMARK VINA RESULT:    -9.166      0.000      0.000
REMARK INTER + INTRA:         -13.821
REMARK INTER:                 -12.648
REMARK INTRA:                  -1.173
REMARK UNBOUND:                -1.173
REMARK  Name = 
REMARK  7 active torsions:
REMARK  status: ('A' for Active; 'I' for Inactive)
REMARK    1  A    between atoms: C_2  and  C_4
REMARK    2  A    between atoms: C_7  and  N_8
REMARK    3  A    between atoms: N_8  and  C_9
REMARK    4  A    between atoms: C_9  and  C_10
REMARK    5  A    between atoms: C_10  and  O_11
REMARK    6  A    between atoms: C_10  and  C_12
REMARK    7  A    between atoms: C_16  and  C_17
REMARK                            x       y       z     vdW  Elec       q    Type
REMARK                         _______ _______ _______ _____ _____    ______ ____
ROOT
ATOM      1  C   UNL     1      43.445   5.705  12.205  0.00  0.00    +0.000 C 
ENDROOT
BRANCH   1   2
ATOM      2  C   UNL     1      44.906   5.697  12.621  0.00  0.00    +0.000 A 
ATOM      3  C   UNL     1      45.447   4.564  13.240  0.00  0.00    +0.000 A 
ATOM      4  C   UNL     1      46.789   4.535  13.612  0.00  0.00    +0.000 A 
ATOM      5  C   UNL     1      47.614   5.627  13.349  0.00  0.00    +0.000 A 
ATOM      6  C   UNL     1      47.125   6.772  12.693  0.00  0.00    +0.000 A 
ATOM      7  C   UNL     1      45.753   6.794  12.371  0.00  0.00    +0.000 A 
BRANCH   6   8
ATOM      8  C   UNL     1      48.032   7.869  12.272  0.00  0.00    +0.000 A 
ATOM      9  C   UNL     1      49.352   7.591  11.861  0.00  0.00    +0.000 A 
ATOM     10  C   UNL     1      50.196   8.593  11.376  0.00  0.00    +0.000 A 
ATOM     11  C   UNL     1      49.732   9.899  11.284  0.00  0.00    +0.000 A 
ATOM     12 CL   UNL     1      50.755  11.127  10.649  0.00  0.00    +0.000 Cl
ATOM     13  C   UNL     1      48.441  10.212  11.693  0.00  0.00    +0.000 A 
ATOM     14  C   UNL     1      47.604   9.206  12.193  0.00  0.00    +0.000 A 
ENDBRANCH   6   8
ENDBRANCH   1   2
BRANCH   1  15
ATOM     15  O   UNL     1      42.608   5.491  13.351  0.00  0.00    +0.000 OA
ATOM     16  H   UNL     1      41.860   6.106  13.294  0.00  0.00    +0.000 HD
ENDBRANCH   1  15
BRANCH   1  17
ATOM     17  C   UNL     1      43.132   4.637  11.133  0.00  0.00    +0.000 C 
BRANCH  17  18
ATOM     18  N   UNL     1      43.794   4.955   9.865  0.00  0.00    +0.000 N 
ATOM     19  H   UNL     1      43.181   5.416   9.189  0.00  0.00    +0.000 HD
BRANCH  18  23
ATOM     20  C   UNL     1      46.267   2.083   8.012  0.00  0.00    +0.000 A 
ATOM     21  C   UNL     1      46.403   3.429   7.671  0.00  0.00    +0.000 A 
ATOM     22  C   UNL     1      45.601   4.390   8.296  0.00  0.00    +0.000 A 
ATOM     23  C   UNL     1      44.671   4.041   9.285  0.00  0.00    +0.000 A 
ATOM     24  C   UNL     1      44.537   2.682   9.602  0.00  0.00    +0.000 A 
ATOM     25  C   UNL     1      45.319   1.708   8.966  0.00  0.00    +0.000 A 
BRANCH  20  27
ATOM     26  N   UNL     1      46.770  -0.271   7.646  0.00  0.00    +0.000 N 
ATOM     27  C   UNL     1      47.071   1.029   7.343  0.00  0.00    +0.000 C 
ATOM     28  O   UNL     1      47.942   1.303   6.530  0.00  0.00    +0.000 OA
ATOM     29  H   UNL     1      47.251  -0.973   7.112  0.00  0.00    +0.000 HD
ATOM     30  H   UNL     1      45.905  -0.530   8.098  0.00  0.00    +0.000 HD
ENDBRANCH  20  27
ENDBRANCH  18  23
ENDBRANCH  17  18
ENDBRANCH   1  17
TORSDOF 7
ENDMDL
MODEL 2
REMARK VINA RESULT:    -9.088      2.881      4.088
REMARK INTER + INTRA:         -13.714
REMARK INTER:                 -12.670
REMARK INTRA:                  -1.044
REMARK UNBOUND:                -1.173
REMARK  Name = 
REMARK  7 active torsions:
REMARK  status: ('A' for Active; 'I' for Inactive)
REMARK    1  A    between atoms: C_2  and  C_4
REMARK    2  A    between atoms: C_7  and  N_8
REMARK    3  A    between atoms: N_8  and  C_9
REMARK    4  A    between atoms: C_9  and  C_10
REMARK    5  A    between atoms: C_10  and  O_11
REMARK    6  A    between atoms: C_10  and  C_12
REMARK    7  A    between atoms: C_16  and  C_17
REMARK                            x       y       z     vdW  Elec       q    Type
REMARK                         _______ _______ _______ _____ _____    ______ ____
ROOT
ATOM      1  C   UNL     1      43.718   5.800  12.072  0.00  0.00    +0.000 C 
ENDROOT
BRANCH   1   2
ATOM      2  C   UNL     1      45.195   5.944  12.398  0.00  0.00    +0.000 A 
ATOM      3  C   UNL     1      46.034   6.652  11.530  0.00  0.00    +0.000 A 
ATOM      4  C   UNL     1      47.386   6.808  11.823  0.00  0.00    +0.000 A 
ATOM      5  C   UNL     1      47.914   6.280  13.001  0.00  0.00    +0.000 A 
ATOM      6  C   UNL     1      47.102   5.596  13.925  0.00  0.00    +0.000 A 
ATOM      7  C   UNL     1      45.748   5.411  13.579  0.00  0.00    +0.000 A 
BRANCH   6   8
ATOM      8  C   UNL     1      47.624   5.171  15.246  0.00  0.00    +0.000 A 
ATOM      9  C   UNL     1      48.587   5.948  15.921  0.00  0.00    +0.000 A 
ATOM     10  C   UNL     1      49.029   5.618  17.206  0.00  0.00    +0.000 A 
ATOM     11  C   UNL     1      48.507   4.502  17.847  0.00  0.00    +0.000 A 
ATOM     12 CL   UNL     1      49.018   4.116  19.443  0.00  0.00    +0.000 Cl
ATOM     13  C   UNL     1      47.565   3.705  17.206  0.00  0.00    +0.000 A 
ATOM     14  C   UNL     1      47.138   4.032  15.913  0.00  0.00    +0.000 A 
ENDBRANCH   6   8
ENDBRANCH   1   2
BRANCH   1  15
ATOM     15  O   UNL     1      42.945   5.824  13.281  0.00  0.00    +0.000 OA
ATOM     16  H   UNL     1      42.187   6.413  13.140  0.00  0.00    +0.000 HD
ENDBRANCH   1  15
BRANCH   1  17
ATOM     17  C   UNL     1      43.411   4.503  11.290  0.00  0.00    +0.000 C 
BRANCH  17  18
ATOM     18  N   UNL     1      43.640   4.687   9.855  0.00  0.00    +0.000 N 
ATOM     19  H   UNL     1      42.778   4.780   9.313  0.00  0.00    +0.000 HD
BRANCH  18  23
ATOM     20  C   UNL     1      46.466   2.353   7.767  0.00  0.00    +0.000 A 
ATOM     21  C   UNL     1      46.460   3.738   7.597  0.00  0.00    +0.000 A 
ATOM     22  C   UNL     1      45.539   4.521   8.302  0.00  0.00    +0.000 A 
ATOM     23  C   UNL     1      44.629   3.953   9.203  0.00  0.00    +0.000 A 
ATOM     24  C   UNL     1      44.639   2.559   9.347  0.00  0.00    +0.000 A 
ATOM     25  C   UNL     1      45.541   1.761   8.629  0.00  0.00    +0.000 A 
BRANCH  20  27
ATOM     26  N   UNL     1      48.487   2.087   6.435  0.00  0.00    +0.000 N 
ATOM     27  C   UNL     1      47.400   1.484   7.007  0.00  0.00    +0.000 C 
ATOM     28  O   UNL     1      47.229   0.277   6.920  0.00  0.00    +0.000 OA
ATOM     29  H   UNL     1      49.162   1.475   6.012  0.00  0.00    +0.000 HD
ATOM     30  H   UNL     1      48.791   3.011   6.704  0.00  0.00    +0.000 HD
ENDBRANCH  20  27
ENDBRANCH  18  23
ENDBRANCH  17  18
ENDBRANCH   1  17
TORSDOF 7
ENDMDL
MODEL 3
REMARK VINA RESULT:    -8.297      1.755      2.269
REMARK INTER + INTRA:         -12.622
REMARK INTER:                 -11.931
REMARK INTRA:                  -0.691
REMARK UNBOUND:                -1.173
REMARK  Name = 
REMARK  7 active torsions:
REMARK  status: ('A' for Active; 'I' for Inactive)
REMARK    1  A    between atoms: C_2  and  C_4
REMARK    2  A    between atoms: C_7  and  N_8
REMARK    3  A    between atoms: N_8  and  C_9
REMARK    4  A    between atoms: C_9  and  C_10
REMARK    5  A    between atoms: C_10  and  O_11
REMARK    6  A    between atoms: C_10  and  C_12
REMARK    7  A    between atoms: C_16  and  C_17
REMARK                            x       y       z     vdW  Elec       q    Type
REMARK                         _______ _______ _______ _____ _____    ______ ____
ROOT
ATOM      1  C   UNL     1      44.320   3.614  12.518  0.00  0.00    +0.000 C 
ENDROOT
BRANCH   1   2
ATOM      2  C   UNL     1      44.777   5.038  12.245  0.00  0.00    +0.000 A 
ATOM      3  C   UNL     1      43.836   6.018  11.909  0.00  0.00    +0.000 A 
ATOM      4  C   UNL     1      44.236   7.331  11.673  0.00  0.00    +0.000 A 
ATOM      5  C   UNL     1      45.578   7.688  11.794  0.00  0.00    +0.000 A 
ATOM      6  C   UNL     1      46.555   6.747  12.169  0.00  0.00    +0.000 A 
ATOM      7  C   UNL     1      46.129   5.416  12.354  0.00  0.00    +0.000 A 
BRANCH   6   8
ATOM      8  C   UNL     1      47.954   7.153  12.450  0.00  0.00    +0.000 A 
ATOM      9  C   UNL     1      48.723   7.805  11.465  0.00  0.00    +0.000 A 
ATOM     10  C   UNL     1      50.011   8.278  11.732  0.00  0.00    +0.000 A 
ATOM     11  C   UNL     1      50.554   8.115  13.000  0.00  0.00    +0.000 A 
ATOM     12 CL   UNL     1      52.122   8.732  13.345  0.00  0.00    +0.000 Cl
ATOM     13  C   UNL     1      49.829   7.464  13.992  0.00  0.00    +0.000 A 
ATOM     14  C   UNL     1      48.545   6.979  13.714  0.00  0.00    +0.000 A 
ENDBRANCH   6   8
ENDBRANCH   1   2
BRANCH   1  15
ATOM     15  O   UNL     1      45.457   2.777  12.774  0.00  0.00    +0.000 OA
ATOM     16  H   UNL     1      46.181   3.071  12.200  0.00  0.00    +0.000 HD
ENDBRANCH   1  15
BRANCH   1  17
ATOM     17  C   UNL     1      43.499   3.025  11.350  0.00  0.00    +0.000 C 
BRANCH  17  18
ATOM     18  N   UNL     1      43.718   3.785  10.116  0.00  0.00    +0.000 N 
ATOM     19  H   UNL     1      42.853   4.023   9.625  0.00  0.00    +0.000 HD
BRANCH  18  23
ATOM     20  C   UNL     1      46.743   2.637   7.410  0.00  0.00    +0.000 A 
ATOM     21  C   UNL     1      46.394   3.983   7.519  0.00  0.00    +0.000 A 
ATOM     22  C   UNL     1      45.407   4.374   8.429  0.00  0.00    +0.000 A 
ATOM     23  C   UNL     1      44.767   3.448   9.263  0.00  0.00    +0.000 A 
ATOM     24  C   UNL     1      45.118   2.098   9.127  0.00  0.00    +0.000 A 
ATOM     25  C   UNL     1      46.090   1.690   8.202  0.00  0.00    +0.000 A 
BRANCH  20  27
ATOM     26  N   UNL     1      47.994   2.986   5.350  0.00  0.00    +0.000 N 
ATOM     27  C   UNL     1      47.757   2.176   6.428  0.00  0.00    +0.000 C 
ATOM     28  O   UNL     1      48.381   1.137   6.587  0.00  0.00    +0.000 OA
ATOM     29  H   UNL     1      48.751   2.713   4.749  0.00  0.00    +0.000 HD
ATOM     30  H   UNL     1      47.696   3.950   5.328  0.00  0.00    +0.000 HD
ENDBRANCH  20  27
ENDBRANCH  18  23
ENDBRANCH  17  18
ENDBRANCH   1  17
TORSDOF 7
ENDMDL
MODEL 4
REMARK VINA RESULT:    -7.319      4.644      7.950
REMARK INTER + INTRA:         -11.272
REMARK INTER:                 -10.547
REMARK INTRA:                  -0.725
REMARK UNBOUND:                -1.173
REMARK  Name = 
REMARK  7 active torsions:
REMARK  status: ('A' for Active; 'I' for Inactive)
REMARK    1  A    between atoms: C_2  and  C_4
REMARK    2  A    between atoms: C_7  and  N_8
REMARK    3  A    between atoms: N_8  and  C_9
REMARK    4  A    between atoms: C_9  and  C_10
REMARK    5  A    between atoms: C_10  and  O_11
REMARK    6  A    between atoms: C_10  and  C_12
REMARK    7  A    between atoms: C_16  and  C_17
REMARK                            x       y       z     vdW  Elec       q    Type
REMARK                         _______ _______ _______ _____ _____    ______ ____
ROOT
ATOM      1  C   UNL     1      45.142   5.542  13.236  0.00  0.00    +0.000 C 
ENDROOT
BRANCH   1   2
ATOM      2  C   UNL     1      44.704   4.403  12.331  0.00  0.00    +0.000 A 
ATOM      3  C   UNL     1      43.571   3.649  12.660  0.00  0.00    +0.000 A 
ATOM      4  C   UNL     1      43.147   2.613  11.832  0.00  0.00    +0.000 A 
ATOM      5  C   UNL     1      43.832   2.333  10.650  0.00  0.00    +0.000 A 
ATOM      6  C   UNL     1      44.952   3.090  10.257  0.00  0.00    +0.000 A 
ATOM      7  C   UNL     1      45.388   4.100  11.138  0.00  0.00    +0.000 A 
BRANCH   6   8
ATOM      8  C   UNL     1      45.587   2.897   8.930  0.00  0.00    +0.000 A 
ATOM      9  C   UNL     1      45.824   3.998   8.082  0.00  0.00    +0.000 A 
ATOM     10  C   UNL     1      46.501   3.857   6.867  0.00  0.00    +0.000 A 
ATOM     11  C   UNL     1      46.964   2.607   6.479  0.00  0.00    +0.000 A 
ATOM     12 CL   UNL     1      47.833   2.436   5.005  0.00  0.00    +0.000 Cl
ATOM     13  C   UNL     1      46.736   1.496   7.284  0.00  0.00    +0.000 A 
ATOM     14  C   UNL     1      46.044   1.641   8.493  0.00  0.00    +0.000 A 
ENDBRANCH   6   8
ENDBRANCH   1   2
BRANCH   1  15
ATOM     15  O   UNL     1      45.101   6.783  12.516  0.00  0.00    +0.000 OA
ATOM     16  H   UNL     1      45.986   7.179  12.551  0.00  0.00    +0.000 HD
ENDBRANCH   1  15
BRANCH   1  17
ATOM     17  C   UNL     1      46.560   5.326  13.809  0.00  0.00    +0.000 C 
BRANCH  17  18
ATOM     18  N   UNL     1      46.533   4.407  14.950  0.00  0.00    +0.000 N 
ATOM     19  H   UNL     1      45.604   4.296  15.362  0.00  0.00    +0.000 HD
BRANCH  18  23
ATOM     20  C   UNL     1      49.757   4.329  17.670  0.00  0.00    +0.000 A 
ATOM     21  C   UNL     1      49.414   5.528  17.046  0.00  0.00    +0.000 A 
ATOM     22  C   UNL     1      48.333   5.567  16.159  0.00  0.00    +0.000 A 
ATOM     23  C   UNL     1      47.558   4.430  15.893  0.00  0.00    +0.000 A 
ATOM     24  C   UNL     1      47.929   3.230  16.516  0.00  0.00    +0.000 A 
ATOM     25  C   UNL     1      49.024   3.173  17.389  0.00  0.00    +0.000 A 
BRANCH  20  27
ATOM     26  N   UNL     1      51.683   3.102  18.515  0.00  0.00    +0.000 N 
ATOM     27  C   UNL     1      50.921   4.237  18.586  0.00  0.00    +0.000 C 
ATOM     28  O   UNL     1      51.213   5.147  19.349  0.00  0.00    +0.000 OA
ATOM     29  H   UNL     1      52.523   3.096  19.066  0.00  0.00    +0.000 HD
ATOM     30  H   UNL     1      51.626   2.466  17.733  0.00  0.00    +0.000 HD
ENDBRANCH  20  27
ENDBRANCH  18  23
ENDBRANCH  17  18
ENDBRANCH   1  17
TORSDOF 7
ENDMDL
MODEL 5
REMARK VINA RESULT:    -7.298      3.851      7.168
REMARK INTER + INTRA:         -11.244
REMARK INTER:                 -10.651
REMARK INTRA:                  -0.593
REMARK UNBOUND:                -1.173
REMARK  Name = 
REMARK  7 active torsions:
REMARK  status: ('A' for Active; 'I' for Inactive)
REMARK    1  A    between atoms: C_2  and  C_4
REMARK    2  A    between atoms: C_7  and  N_8
REMARK    3  A    between atoms: N_8  and  C_9
REMARK    4  A    between atoms: C_9  and  C_10
REMARK    5  A    between atoms: C_10  and  O_11
REMARK    6  A    between atoms: C_10  and  C_12
REMARK    7  A    between atoms: C_16  and  C_17
REMARK                            x       y       z     vdW  Elec       q    Type
REMARK                         _______ _______ _______ _____ _____    ______ ____
ROOT
ATOM      1  C   UNL     1      44.301   6.790  12.012  0.00  0.00    +0.000 C 
ENDROOT
BRANCH   1   2
ATOM      2  C   UNL     1      44.254   5.343  11.550  0.00  0.00    +0.000 A 
ATOM      3  C   UNL     1      43.413   4.432  12.200  0.00  0.00    +0.000 A 
ATOM      4  C   UNL     1      43.346   3.107  11.778  0.00  0.00    +0.000 A 
ATOM      5  C   UNL     1      44.099   2.679  10.685  0.00  0.00    +0.000 A 
ATOM      6  C   UNL     1      44.928   3.567   9.975  0.00  0.00    +0.000 A 
ATOM      7  C   UNL     1      45.014   4.890  10.454  0.00  0.00    +0.000 A 
BRANCH   6   8
ATOM      8  C   UNL     1      45.607   3.156   8.722  0.00  0.00    +0.000 A 
ATOM      9  C   UNL     1      45.980   4.117   7.760  0.00  0.00    +0.000 A 
ATOM     10  C   UNL     1      46.700   3.767   6.614  0.00  0.00    +0.000 A 
ATOM     11  C   UNL     1      47.070   2.444   6.411  0.00  0.00    +0.000 A 
ATOM     12 CL   UNL     1      47.992   2.017   5.023  0.00  0.00    +0.000 Cl
ATOM     13  C   UNL     1      46.708   1.468   7.332  0.00  0.00    +0.000 A 
ATOM     14  C   UNL     1      45.973   1.821   8.471  0.00  0.00    +0.000 A 
ENDBRANCH   6   8
ENDBRANCH   1   2
BRANCH   1  15
ATOM     15  O   UNL     1      43.600   7.624  11.079  0.00  0.00    +0.000 OA
ATOM     16  H   UNL     1      42.659   7.392  11.118  0.00  0.00    +0.000 HD
ENDBRANCH   1  15
BRANCH   1  17
ATOM     17  C   UNL     1      45.747   7.307  12.181  0.00  0.00    +0.000 C 
BRANCH  17  18
ATOM     18  N   UNL     1      46.687   6.197  12.355  0.00  0.00    +0.000 N 
ATOM     19  H   UNL     1      46.501   5.404  11.738  0.00  0.00    +0.000 HD
BRANCH  18  23
ATOM     20  C   UNL     1      48.042   4.878  16.126  0.00  0.00    +0.000 A 
ATOM     21  C   UNL     1      48.457   6.119  15.643  0.00  0.00    +0.000 A 
ATOM     22  C   UNL     1      47.995   6.573  14.403  0.00  0.00    +0.000 A 
ATOM     23  C   UNL     1      47.099   5.822  13.632  0.00  0.00    +0.000 A 
ATOM     24  C   UNL     1      46.706   4.569  14.126  0.00  0.00    +0.000 A 
ATOM     25  C   UNL     1      47.180   4.094  15.357  0.00  0.00    +0.000 A 
BRANCH  20  27
ATOM     26  N   UNL     1      47.746   4.529  18.518  0.00  0.00    +0.000 N 
ATOM     27  C   UNL     1      48.540   4.344  17.419  0.00  0.00    +0.000 C 
ATOM     28  O   UNL     1      49.597   3.734  17.498  0.00  0.00    +0.000 OA
ATOM     29  H   UNL     1      48.046   4.076  19.363  0.00  0.00    +0.000 HD
ATOM     30  H   UNL     1      46.773   4.787  18.439  0.00  0.00    +0.000 HD
ENDBRANCH  20  27
ENDBRANCH  18  23
ENDBRANCH  17  18
ENDBRANCH   1  17
TORSDOF 7
ENDMDL
MODEL 6
REMARK VINA RESULT:    -6.793      4.473      7.704
REMARK INTER + INTRA:         -10.547
REMARK INTER:                  -9.264
REMARK INTRA:                  -1.282
REMARK UNBOUND:                -1.173
REMARK  Name = 
REMARK  7 active torsions:
REMARK  status: ('A' for Active; 'I' for Inactive)
REMARK    1  A    between atoms: C_2  and  C_4
REMARK    2  A    between atoms: C_7  and  N_8
REMARK    3  A    between atoms: N_8  and  C_9
REMARK    4  A    between atoms: C_9  and  C_10
REMARK    5  A    between atoms: C_10  and  O_11
REMARK    6  A    between atoms: C_10  and  C_12
REMARK    7  A    between atoms: C_16  and  C_17
REMARK                            x       y       z     vdW  Elec       q    Type
REMARK                         _______ _______ _______ _____ _____    ______ ____
ROOT
ATOM      1  C   UNL     1      49.298   8.751  12.470  0.00  0.00    +0.000 C 
ENDROOT
BRANCH   1   2
ATOM      2  C   UNL     1      47.823   8.412  12.340  0.00  0.00    +0.000 A 
ATOM      3  C   UNL     1      46.857   9.367  12.675  0.00  0.00    +0.000 A 
ATOM      4  C   UNL     1      45.501   9.078  12.545  0.00  0.00    +0.000 A 
ATOM      5  C   UNL     1      45.092   7.838  12.054  0.00  0.00    +0.000 A 
ATOM      6  C   UNL     1      46.027   6.860  11.666  0.00  0.00    +0.000 A 
ATOM      7  C   UNL     1      47.391   7.162  11.854  0.00  0.00    +0.000 A 
BRANCH   6   8
ATOM      8  C   UNL     1      45.601   5.605  11.000  0.00  0.00    +0.000 A 
ATOM      9  C   UNL     1      45.700   5.466   9.600  0.00  0.00    +0.000 A 
ATOM     10  C   UNL     1      45.390   4.264   8.957  0.00  0.00    +0.000 A 
ATOM     11  C   UNL     1      44.982   3.169   9.708  0.00  0.00    +0.000 A 
ATOM     12 CL   UNL     1      44.639   1.676   8.924  0.00  0.00    +0.000 Cl
ATOM     13  C   UNL     1      44.860   3.273  11.088  0.00  0.00    +0.000 A 
ATOM     14  C   UNL     1      45.156   4.485  11.726  0.00  0.00    +0.000 A 
ENDBRANCH   6   8
ENDBRANCH   1   2
BRANCH   1  15
ATOM     15  O   UNL     1      49.902   8.817  11.170  0.00  0.00    +0.000 OA
ATOM     16  H   UNL     1      50.754   8.355  11.211  0.00  0.00    +0.000 HD
ENDBRANCH   1  15
BRANCH   1  17
ATOM     17  C   UNL     1      50.063   7.731  13.342  0.00  0.00    +0.000 C 
BRANCH  17  18
ATOM     18  N   UNL     1      49.649   7.820  14.744  0.00  0.00    +0.000 N 
ATOM     19  H   UNL     1      50.264   8.404  15.315  0.00  0.00    +0.000 HD
BRANCH  18  23
ATOM     20  C   UNL     1      48.173   4.533  16.939  0.00  0.00    +0.000 A 
ATOM     21  C   UNL     1      47.578   4.870  15.722  0.00  0.00    +0.000 A 
ATOM     22  C   UNL     1      48.075   5.945  14.979  0.00  0.00    +0.000 A 
ATOM     23  C   UNL     1      49.181   6.689  15.410  0.00  0.00    +0.000 A 
ATOM     24  C   UNL     1      49.755   6.347  16.643  0.00  0.00    +0.000 A 
ATOM     25  C   UNL     1      49.252   5.286  17.408  0.00  0.00    +0.000 A 
BRANCH  20  27
ATOM     26  N   UNL     1      48.341   3.129  18.921  0.00  0.00    +0.000 N 
ATOM     27  C   UNL     1      47.650   3.425  17.776  0.00  0.00    +0.000 C 
ATOM     28  O   UNL     1      46.629   2.821  17.481  0.00  0.00    +0.000 OA
ATOM     29  H   UNL     1      47.921   2.448  19.528  0.00  0.00    +0.000 HD
ATOM     30  H   UNL     1      49.016   3.765  19.319  0.00  0.00    +0.000 HD
ENDBRANCH  20  27
ENDBRANCH  18  23
ENDBRANCH  17  18
ENDBRANCH   1  17
TORSDOF 7
ENDMDL
MODEL 7
REMARK VINA RESULT:    -6.646      5.121      7.840
REMARK INTER + INTRA:         -10.344
REMARK INTER:                  -9.621
REMARK INTRA:                  -0.722
REMARK UNBOUND:                -1.173
REMARK  Name = 
REMARK  7 active torsions:
REMARK  status: ('A' for Active; 'I' for Inactive)
REMARK    1  A    between atoms: C_2  and  C_4
REMARK    2  A    between atoms: C_7  and  N_8
REMARK    3  A    between atoms: N_8  and  C_9
REMARK    4  A    between atoms: C_9  and  C_10
REMARK    5  A    between atoms: C_10  and  O_11
REMARK    6  A    between atoms: C_10  and  C_12
REMARK    7  A    between atoms: C_16  and  C_17
REMARK                            x       y       z     vdW  Elec       q    Type
REMARK                         _______ _______ _______ _____ _____    ______ ____
ROOT
ATOM      1  C   UNL     1      46.323   5.178  14.133  0.00  0.00    +0.000 C 
ENDROOT
BRANCH   1   2
ATOM      2  C   UNL     1      45.385   4.702  13.037  0.00  0.00    +0.000 A 
ATOM      3  C   UNL     1      44.000   4.757  13.233  0.00  0.00    +0.000 A 
ATOM      4  C   UNL     1      43.126   4.341  12.232  0.00  0.00    +0.000 A 
ATOM      5  C   UNL     1      43.624   3.887  11.011  0.00  0.00    +0.000 A 
ATOM      6  C   UNL     1      45.006   3.853  10.751  0.00  0.00    +0.000 A 
ATOM      7  C   UNL     1      45.868   4.234  11.800  0.00  0.00    +0.000 A 
BRANCH   6   8
ATOM      8  C   UNL     1      45.532   3.521   9.404  0.00  0.00    +0.000 A 
ATOM      9  C   UNL     1      45.559   2.185   8.953  0.00  0.00    +0.000 A 
ATOM     10  C   UNL     1      45.966   1.855   7.658  0.00  0.00    +0.000 A 
ATOM     11  C   UNL     1      46.348   2.862   6.780  0.00  0.00    +0.000 A 
ATOM     12 CL   UNL     1      46.810   2.463   5.172  0.00  0.00    +0.000 Cl
ATOM     13  C   UNL     1      46.347   4.188   7.195  0.00  0.00    +0.000 A 
ATOM     14  C   UNL     1      45.954   4.512   8.499  0.00  0.00    +0.000 A 
ENDBRANCH   6   8
ENDBRANCH   1   2
BRANCH   1  15
ATOM     15  O   UNL     1      47.620   5.449  13.583  0.00  0.00    +0.000 OA
ATOM     16  H   UNL     1      48.285   5.152  14.225  0.00  0.00    +0.000 HD
ENDBRANCH   1  15
BRANCH   1  17
ATOM     17  C   UNL     1      46.453   4.154  15.282  0.00  0.00    +0.000 C 
BRANCH  17  18
ATOM     18  N   UNL     1      47.331   4.659  16.341  0.00  0.00    +0.000 N 
ATOM     19  H   UNL     1      47.527   5.659  16.266  0.00  0.00    +0.000 HD
BRANCH  18  23
ATOM     20  C   UNL     1      50.708   2.354  17.381  0.00  0.00    +0.000 A 
ATOM     21  C   UNL     1      50.640   3.690  17.777  0.00  0.00    +0.000 A 
ATOM     22  C   UNL     1      49.514   4.455  17.454  0.00  0.00    +0.000 A 
ATOM     23  C   UNL     1      48.428   3.908  16.758  0.00  0.00    +0.000 A 
ATOM     24  C   UNL     1      48.522   2.569  16.354  0.00  0.00    +0.000 A 
ATOM     25  C   UNL     1      49.654   1.798  16.652  0.00  0.00    +0.000 A 
BRANCH  20  27
ATOM     26  N   UNL     1      51.680   0.244  18.109  0.00  0.00    +0.000 N 
ATOM     27  C   UNL     1      51.902   1.520  17.669  0.00  0.00    +0.000 C 
ATOM     28  O   UNL     1      53.037   1.938  17.490  0.00  0.00    +0.000 OA
ATOM     29  H   UNL     1      52.492  -0.340  18.203  0.00  0.00    +0.000 HD
ATOM     30  H   UNL     1      50.782  -0.207  18.016  0.00  0.00    +0.000 HD
ENDBRANCH  20  27
ENDBRANCH  18  23
ENDBRANCH  17  18
ENDBRANCH   1  17
TORSDOF 7
ENDMDL
MODEL 8
REMARK VINA RESULT:    -6.578      5.237      7.920
REMARK INTER + INTRA:         -10.250
REMARK INTER:                  -9.405
REMARK INTRA:                  -0.845
REMARK UNBOUND:                -1.173
REMARK  Name = 
REMARK  7 active torsions:
REMARK  status: ('A' for Active; 'I' for Inactive)
REMARK    1  A    between atoms: C_2  and  C_4
REMARK    2  A    between atoms: C_7  and  N_8
REMARK    3  A    between atoms: N_8  and  C_9
REMARK    4  A    between atoms: C_9  and  C_10
REMARK    5  A    between atoms: C_10  and  O_11
REMARK    6  A    between atoms: C_10  and  C_12
REMARK    7  A    between atoms: C_16  and  C_17
REMARK                            x       y       z     vdW  Elec       q    Type
REMARK                         _______ _______ _______ _____ _____    ______ ____
ROOT
ATOM      1  C   UNL     1      49.003   7.823  14.126  0.00  0.00    +0.000 C 
ENDROOT
BRANCH   1   2
ATOM      2  C   UNL     1      47.632   7.786  13.472  0.00  0.00    +0.000 A 
ATOM      3  C   UNL     1      46.823   8.929  13.486  0.00  0.00    +0.000 A 
ATOM      4  C   UNL     1      45.572   8.916  12.876  0.00  0.00    +0.000 A 
ATOM      5  C   UNL     1      45.121   7.771  12.221  0.00  0.00    +0.000 A 
ATOM      6  C   UNL     1      45.916   6.611  12.145  0.00  0.00    +0.000 A 
ATOM      7  C   UNL     1      47.157   6.636  12.812  0.00  0.00    +0.000 A 
BRANCH   6   8
ATOM      8  C   UNL     1      45.509   5.448  11.319  0.00  0.00    +0.000 A 
ATOM      9  C   UNL     1      45.674   5.469   9.919  0.00  0.00    +0.000 A 
ATOM     10  C   UNL     1      45.383   4.354   9.128  0.00  0.00    +0.000 A 
ATOM     11  C   UNL     1      44.925   3.187   9.726  0.00  0.00    +0.000 A 
ATOM     12 CL   UNL     1      44.604   1.800   8.761  0.00  0.00    +0.000 Cl
ATOM     13  C   UNL     1      44.736   3.135  11.103  0.00  0.00    +0.000 A 
ATOM     14  C   UNL     1      45.015   4.261  11.889  0.00  0.00    +0.000 A 
ENDBRANCH   6   8
ENDBRANCH   1   2
BRANCH   1  15
ATOM     15  O   UNL     1      49.758   6.663  13.746  0.00  0.00    +0.000 OA
ATOM     16  H   UNL     1      50.124   6.267  14.552  0.00  0.00    +0.000 HD
ENDBRANCH   1  15
BRANCH   1  17
ATOM     17  C   UNL     1      48.918   7.900  15.667  0.00  0.00    +0.000 C 
BRANCH  17  18
ATOM     18  N   UNL     1      48.257   6.715  16.218  0.00  0.00    +0.000 N 
ATOM     19  H   UNL     1      47.457   6.935  16.816  0.00  0.00    +0.000 HD
BRANCH  18  23
ATOM     20  C   UNL     1      50.532   3.365  17.399  0.00  0.00    +0.000 A 
ATOM     21  C   UNL     1      51.117   4.631  17.411  0.00  0.00    +0.000 A 
ATOM     22  C   UNL     1      50.363   5.750  17.041  0.00  0.00    +0.000 A 
ATOM     23  C   UNL     1      49.015   5.640  16.678  0.00  0.00    +0.000 A 
ATOM     24  C   UNL     1      48.449   4.357  16.655  0.00  0.00    +0.000 A 
ATOM     25  C   UNL     1      49.201   3.226  17.002  0.00  0.00    +0.000 A 
BRANCH  20  27
ATOM     26  N   UNL     1      52.381   2.311  18.582  0.00  0.00    +0.000 N 
ATOM     27  C   UNL     1      51.310   2.149  17.745  0.00  0.00    +0.000 C 
ATOM     28  O   UNL     1      50.992   1.042  17.333  0.00  0.00    +0.000 OA
ATOM     29  H   UNL     1      52.836   1.469  18.888  0.00  0.00    +0.000 HD
ATOM     30  H   UNL     1      52.507   3.145  19.136  0.00  0.00    +0.000 HD
ENDBRANCH  20  27
ENDBRANCH  18  23
ENDBRANCH  17  18
ENDBRANCH   1  17
TORSDOF 7
ENDMDL
MODEL 9
REMARK VINA RESULT:    -6.439      2.180      3.549
REMARK INTER + INTRA:         -10.059
REMARK INTER:                  -9.158
REMARK INTRA:                  -0.901
REMARK UNBOUND:                -1.173
REMARK  Name = 
REMARK  7 active torsions:
REMARK  status: ('A' for Active; 'I' for Inactive)
REMARK    1  A    between atoms: C_2  and  C_4
REMARK    2  A    between atoms: C_7  and  N_8
REMARK    3  A    between atoms: N_8  and  C_9
REMARK    4  A    between atoms: C_9  and  C_10
REMARK    5  A    between atoms: C_10  and  O_11
REMARK    6  A    between atoms: C_10  and  C_12
REMARK    7  A    between atoms: C_16  and  C_17
REMARK                            x       y       z     vdW  Elec       q    Type
REMARK                         _______ _______ _______ _____ _____    ______ ____
ROOT
ATOM      1  C   UNL     1      46.082   6.835  12.347  0.00  0.00    +0.000 C 
ENDROOT
BRANCH   1   2
ATOM      2  C   UNL     1      47.094   7.933  12.065  0.00  0.00    +0.000 A 
ATOM      3  C   UNL     1      46.714   9.276  12.175  0.00  0.00    +0.000 A 
ATOM      4  C   UNL     1      47.634  10.293  11.937  0.00  0.00    +0.000 A 
ATOM      5  C   UNL     1      48.955   9.983  11.612  0.00  0.00    +0.000 A 
ATOM      6  C   UNL     1      49.394   8.649  11.530  0.00  0.00    +0.000 A 
ATOM      7  C   UNL     1      48.430   7.639  11.727  0.00  0.00    +0.000 A 
BRANCH   6   8
ATOM      8  C   UNL     1      50.827   8.317  11.338  0.00  0.00    +0.000 A 
ATOM      9  C   UNL     1      51.803   8.808  12.230  0.00  0.00    +0.000 A 
ATOM     10  C   UNL     1      53.147   8.439  12.125  0.00  0.00    +0.000 A 
ATOM     11  C   UNL     1      53.542   7.559  11.125  0.00  0.00    +0.000 A 
ATOM     12 CL   UNL     1      55.187   7.070  11.018  0.00  0.00    +0.000 Cl
ATOM     13  C   UNL     1      52.609   7.065  10.220  0.00  0.00    +0.000 A 
ATOM     14  C   UNL     1      51.267   7.451  10.321  0.00  0.00    +0.000 A 
ENDBRANCH   6   8
ENDBRANCH   1   2
BRANCH   1  15
ATOM     15  O   UNL     1      46.761   5.624  12.705  0.00  0.00    +0.000 OA
ATOM     16  H   UNL     1      46.252   5.192  13.410  0.00  0.00    +0.000 HD
ENDBRANCH   1  15
BRANCH   1  17
ATOM     17  C   UNL     1      45.153   6.568  11.141  0.00  0.00    +0.000 C 
BRANCH  17  18
ATOM     18  N   UNL     1      44.831   5.143  11.030  0.00  0.00    +0.000 N 
ATOM     19  H   UNL     1      44.940   4.631  11.908  0.00  0.00    +0.000 HD
BRANCH  18  23
ATOM     20  C   UNL     1      46.275   2.995   7.699  0.00  0.00    +0.000 A 
ATOM     21  C   UNL     1      45.537   2.329   8.678  0.00  0.00    +0.000 A 
ATOM     22  C   UNL     1      45.037   3.039   9.775  0.00  0.00    +0.000 A 
ATOM     23  C   UNL     1      45.235   4.419   9.910  0.00  0.00    +0.000 A 
ATOM     24  C   UNL     1      45.993   5.067   8.925  0.00  0.00    +0.000 A 
ATOM     25  C   UNL     1      46.519   4.363   7.833  0.00  0.00    +0.000 A 
BRANCH  20  27
ATOM     26  N   UNL     1      47.126   3.005   5.418  0.00  0.00    +0.000 N 
ATOM     27  C   UNL     1      46.856   2.270   6.541  0.00  0.00    +0.000 C 
ATOM     28  O   UNL     1      47.117   1.077   6.593  0.00  0.00    +0.000 OA
ATOM     29  H   UNL     1      47.612   2.525   4.681  0.00  0.00    +0.000 HD
ATOM     30  H   UNL     1      47.169   4.013   5.434  0.00  0.00    +0.000 HD
ENDBRANCH  20  27
ENDBRANCH  18  23
ENDBRANCH  17  18
ENDBRANCH   1  17
TORSDOF 7
ENDMDL
