MODEL 1
REMARK VINA RESULT:    -7.517      0.000      0.000
REMARK INTER + INTRA:         -11.754
REMARK INTER:                 -10.594
REMARK INTRA:                  -1.160
REMARK UNBOUND:                -1.160
REMARK  Name = 
REMARK  10 active torsions:
REMARK  status: ('A' for Active; 'I' for Inactive)
REMARK    1  A    between atoms: C_1  and  O_2
REMARK    2  A    between atoms: O_2  and  C_3
REMARK    3  A    between atoms: C_5  and  C_6
REMARK    4  A    between atoms: C_6  and  N_7
REMARK    5  A    between atoms: C_12  and  C_13
REMARK    6  A    between atoms: C_21  and  C_22
REMARK    7  A    between atoms: C_22  and  N_23
REMARK    8  A    between atoms: N_23  and  C_24
REMARK    9  A    between atoms: C_24  and  C_25
REMARK   10  A    between atoms: C_24  and  C_26
REMARK                            x       y       z     vdW  Elec       q    Type
REMARK                         _______ _______ _______ _____ _____    ______ ____
ROOT
ATOM      1  C   UNL     1      43.596   5.735  10.940  0.00  0.00    +0.000 C 
ENDROOT
BRANCH   1   2
ATOM      2  N   UNL     1      44.055   4.394  10.581  0.00  0.00    +0.000 N 
ATOM      3  C   UNL     1      43.543   3.243  11.133  0.00  0.00    +0.000 A 
ATOM      4  C   UNL     1      44.077   2.170  10.458  0.00  0.00    +0.000 A 
ATOM      5  C   UNL     1      44.943   2.679   9.455  0.00  0.00    +0.000 A 
ATOM      6  C   UNL     1      45.725   2.075   8.463  0.00  0.00    +0.000 A 
ATOM      7  C   UNL     1      46.445   2.929   7.638  0.00  0.00    +0.000 A 
ATOM      8  N   UNL     1      46.452   4.289   7.744  0.00  0.00    +0.000 NA
ATOM      9  C   UNL     1      45.699   4.868   8.708  0.00  0.00    +0.000 A 
ATOM     10  C   UNL     1      44.932   4.074   9.559  0.00  0.00    +0.000 A 
BRANCH   7  11
ATOM     11  C   UNL     1      47.264   2.339   6.527  0.00  0.00    +0.000 C 
ATOM     12  N   UNL     1      47.194   2.985   5.324  0.00  0.00    +0.000 N 
ATOM     13  O   UNL     1      47.953   1.333   6.672  0.00  0.00    +0.000 OA
ATOM     14  H   UNL     1      46.605   3.809   5.236  0.00  0.00    +0.000 HD
ATOM     15  H   UNL     1      47.710   2.625   4.536  0.00  0.00    +0.000 HD
ENDBRANCH   7  11
ENDBRANCH   1   2
BRANCH   1  18
ATOM     16  C   UNL     1      46.561   6.599  13.197  0.00  0.00    +0.000 A 
ATOM     17  C   UNL     1      45.594   5.878  12.482  0.00  0.00    +0.000 A 
ATOM     18  C   UNL     1      44.645   6.528  11.677  0.00  0.00    +0.000 A 
ATOM     19  C   UNL     1      44.685   7.923  11.585  0.00  0.00    +0.000 A 
ATOM     20  C   UNL     1      45.656   8.648  12.276  0.00  0.00    +0.000 A 
ATOM     21  C   UNL     1      46.605   8.001  13.086  0.00  0.00    +0.000 A 
BRANCH  16  23
ATOM     22  C   UNL     1      47.087   4.807  14.682  0.00  0.00    +0.000 C 
ATOM     23  O   UNL     1      47.467   6.026  14.054  0.00  0.00    +0.000 OA
ENDBRANCH  16  23
BRANCH  21  24
ATOM     24  C   UNL     1      47.624   8.844  13.827  0.00  0.00    +0.000 C 
BRANCH  24  25
ATOM     25  N   UNL     1      47.498   8.849  15.288  0.00  0.00    +0.000 NA
ATOM     26  H   UNL     1      46.906   8.052  15.533  0.00  0.00    +0.000 HD
BRANCH  25  27
ATOM     27  C   UNL     1      48.755   8.762  16.039  0.00  0.00    +0.000 C 
ATOM     28  C   UNL     1      48.787   7.600  17.033  0.00  0.00    +0.000 C 
ATOM     29  C   UNL     1      49.889   8.590  15.022  0.00  0.00    +0.000 C 
ENDBRANCH  25  27
ENDBRANCH  24  25
ENDBRANCH  21  24
ENDBRANCH   1  18
TORSDOF 7
ENDMDL
MODEL 2
REMARK VINA RESULT:    -7.441      1.093      1.521
REMARK INTER + INTRA:         -11.646
REMARK INTER:                 -10.404
REMARK INTRA:                  -1.241
REMARK UNBOUND:                -1.160
REMARK  Name = 
REMARK  10 active torsions:
REMARK  status: ('A' for Active; 'I' for Inactive)
REMARK    1  A    between atoms: C_1  and  O_2
REMARK    2  A    between atoms: O_2  and  C_3
REMARK    3  A    between atoms: C_5  and  C_6
REMARK    4  A    between atoms: C_6  and  N_7
REMARK    5  A    between atoms: C_12  and  C_13
REMARK    6  A    between atoms: C_21  and  C_22
REMARK    7  A    between atoms: C_22  and  N_23
REMARK    8  A    between atoms: N_23  and  C_24
REMARK    9  A    between atoms: C_24  and  C_25
REMARK   10  A    between atoms: C_24  and  C_26
REMARK                            x       y       z     vdW  Elec       q    Type
REMARK                         _______ _______ _______ _____ _____    ______ ____
ROOT
ATOM      1  C   UNL     1      43.790   5.686  10.958  0.00  0.00    +0.000 C 
ENDROOT
BRANCH   1   2
ATOM      2  N   UNL     1      44.199   4.353  10.519  0.00  0.00    +0.000 N 
ATOM      3  C   UNL     1      43.650   3.191  11.007  0.00  0.00    +0.000 A 
ATOM      4  C   UNL     1      44.142   2.141  10.268  0.00  0.00    +0.000 A 
ATOM      5  C   UNL     1      45.020   2.676   9.290  0.00  0.00    +0.000 A 
ATOM      6  C   UNL     1      45.775   2.104   8.258  0.00  0.00    +0.000 A 
ATOM      7  C   UNL     1      46.520   2.979   7.479  0.00  0.00    +0.000 A 
ATOM      8  N   UNL     1      46.576   4.330   7.663  0.00  0.00    +0.000 NA
ATOM      9  C   UNL     1      45.849   4.878   8.665  0.00  0.00    +0.000 A 
ATOM     10  C   UNL     1      45.059   4.063   9.474  0.00  0.00    +0.000 A 
BRANCH   7  11
ATOM     11  C   UNL     1      47.312   2.426   6.330  0.00  0.00    +0.000 C 
ATOM     12  N   UNL     1      47.224   3.119   5.154  0.00  0.00    +0.000 N 
ATOM     13  O   UNL     1      47.994   1.410   6.422  0.00  0.00    +0.000 OA
ATOM     14  H   UNL     1      46.640   3.950   5.110  0.00  0.00    +0.000 HD
ATOM     15  H   UNL     1      47.720   2.786   4.342  0.00  0.00    +0.000 HD
ENDBRANCH   7  11
ENDBRANCH   1   2
BRANCH   1  18
ATOM     16  C   UNL     1      46.770   6.285  13.282  0.00  0.00    +0.000 A 
ATOM     17  C   UNL     1      45.783   5.650  12.513  0.00  0.00    +0.000 A 
ATOM     18  C   UNL     1      44.860   6.388  11.754  0.00  0.00    +0.000 A 
ATOM     19  C   UNL     1      44.949   7.783  11.762  0.00  0.00    +0.000 A 
ATOM     20  C   UNL     1      45.940   8.424  12.506  0.00  0.00    +0.000 A 
ATOM     21  C   UNL     1      46.862   7.688  13.271  0.00  0.00    +0.000 A 
BRANCH  16  23
ATOM     22  C   UNL     1      47.126   4.573  14.905  0.00  0.00    +0.000 C 
ATOM     23  O   UNL     1      47.650   5.621  14.098  0.00  0.00    +0.000 OA
ENDBRANCH  16  23
BRANCH  21  24
ATOM     24  C   UNL     1      47.904   8.441  14.073  0.00  0.00    +0.000 C 
BRANCH  24  25
ATOM     25  N   UNL     1      49.286   7.976  13.907  0.00  0.00    +0.000 NA
ATOM     26  H   UNL     1      49.239   6.964  13.771  0.00  0.00    +0.000 HD
BRANCH  25  27
ATOM     27  C   UNL     1      50.034   8.576  12.798  0.00  0.00    +0.000 C 
ATOM     28  C   UNL     1      49.982   7.747  11.514  0.00  0.00    +0.000 C 
ATOM     29  C   UNL     1      49.431   9.961  12.531  0.00  0.00    +0.000 C 
ENDBRANCH  25  27
ENDBRANCH  24  25
ENDBRANCH  21  24
ENDBRANCH   1  18
TORSDOF 7
ENDMDL
MODEL 3
REMARK VINA RESULT:    -7.334      1.089      1.975
REMARK INTER + INTRA:         -11.496
REMARK INTER:                 -10.540
REMARK INTRA:                  -0.956
REMARK UNBOUND:                -1.160
REMARK  Name = 
REMARK  10 active torsions:
REMARK  status: ('A' for Active; 'I' for Inactive)
REMARK    1  A    between atoms: C_1  and  O_2
REMARK    2  A    between atoms: O_2  and  C_3
REMARK    3  A    between atoms: C_5  and  C_6
REMARK    4  A    between atoms: C_6  and  N_7
REMARK    5  A    between atoms: C_12  and  C_13
REMARK    6  A    between atoms: C_21  and  C_22
REMARK    7  A    between atoms: C_22  and  N_23
REMARK    8  A    between atoms: N_23  and  C_24
REMARK    9  A    between atoms: C_24  and  C_25
REMARK   10  A    between atoms: C_24  and  C_26
REMARK                            x       y       z     vdW  Elec       q    Type
REMARK                         _______ _______ _______ _____ _____    ______ ____
ROOT
ATOM      1  C   UNL     1      43.745   5.700  10.919  0.00  0.00    +0.000 C 
ENDROOT
BRANCH   1   2
ATOM      2  N   UNL     1      44.174   4.365  10.506  0.00  0.00    +0.000 N 
ATOM      3  C   UNL     1      43.639   3.204  11.012  0.00  0.00    +0.000 A 
ATOM      4  C   UNL     1      44.149   2.148  10.295  0.00  0.00    +0.000 A 
ATOM      5  C   UNL     1      45.025   2.678   9.312  0.00  0.00    +0.000 A 
ATOM      6  C   UNL     1      45.793   2.097   8.295  0.00  0.00    +0.000 A 
ATOM      7  C   UNL     1      46.530   2.968   7.504  0.00  0.00    +0.000 A 
ATOM      8  N   UNL     1      46.567   4.322   7.664  0.00  0.00    +0.000 NA
ATOM      9  C   UNL     1      45.827   4.878   8.652  0.00  0.00    +0.000 A 
ATOM     10  C   UNL     1      45.044   4.067   9.471  0.00  0.00    +0.000 A 
BRANCH   7  11
ATOM     11  C   UNL     1      47.336   2.405   6.369  0.00  0.00    +0.000 C 
ATOM     12  N   UNL     1      47.225   3.060   5.174  0.00  0.00    +0.000 N 
ATOM     13  O   UNL     1      48.049   1.413   6.489  0.00  0.00    +0.000 OA
ATOM     14  H   UNL     1      46.617   3.871   5.107  0.00  0.00    +0.000 HD
ATOM     15  H   UNL     1      47.730   2.718   4.371  0.00  0.00    +0.000 HD
ENDBRANCH   7  11
ENDBRANCH   1   2
BRANCH   1  18
ATOM     16  C   UNL     1      45.824   8.532  12.431  0.00  0.00    +0.000 A 
ATOM     17  C   UNL     1      44.835   7.834  11.723  0.00  0.00    +0.000 A 
ATOM     18  C   UNL     1      44.800   6.430  11.710  0.00  0.00    +0.000 A 
ATOM     19  C   UNL     1      45.768   5.727  12.433  0.00  0.00    +0.000 A 
ATOM     20  C   UNL     1      46.744   6.413  13.158  0.00  0.00    +0.000 A 
ATOM     21  C   UNL     1      46.785   7.818  13.169  0.00  0.00    +0.000 A 
BRANCH  16  23
ATOM     22  C   UNL     1      45.145  10.622  11.501  0.00  0.00    +0.000 C 
ATOM     23  O   UNL     1      45.952   9.898  12.422  0.00  0.00    +0.000 OA
ENDBRANCH  16  23
BRANCH  21  24
ATOM     24  C   UNL     1      47.880   8.506  13.960  0.00  0.00    +0.000 C 
BRANCH  24  25
ATOM     25  N   UNL     1      47.441   9.196  15.178  0.00  0.00    +0.000 NA
ATOM     26  H   UNL     1      46.596   8.717  15.497  0.00  0.00    +0.000 HD
BRANCH  25  27
ATOM     27  C   UNL     1      48.413   9.237  16.275  0.00  0.00    +0.000 C 
ATOM     28  C   UNL     1      47.805   9.684  17.606  0.00  0.00    +0.000 C 
ATOM     29  C   UNL     1      48.992   7.826  16.431  0.00  0.00    +0.000 C 
ENDBRANCH  25  27
ENDBRANCH  24  25
ENDBRANCH  21  24
ENDBRANCH   1  18
TORSDOF 7
ENDMDL
MODEL 4
REMARK VINA RESULT:    -6.375      2.351      7.879
REMARK INTER + INTRA:         -10.144
REMARK INTER:                  -9.406
REMARK INTRA:                  -0.738
REMARK UNBOUND:                -1.160
REMARK  Name = 
REMARK  10 active torsions:
REMARK  status: ('A' for Active; 'I' for Inactive)
REMARK    1  A    between atoms: C_1  and  O_2
REMARK    2  A    between atoms: O_2  and  C_3
REMARK    3  A    between atoms: C_5  and  C_6
REMARK    4  A    between atoms: C_6  and  N_7
REMARK    5  A    between atoms: C_12  and  C_13
REMARK    6  A    between atoms: C_21  and  C_22
REMARK    7  A    between atoms: C_22  and  N_23
REMARK    8  A    between atoms: N_23  and  C_24
REMARK    9  A    between atoms: C_24  and  C_25
REMARK   10  A    between atoms: C_24  and  C_26
REMARK                            x       y       z     vdW  Elec       q    Type
REMARK                         _______ _______ _______ _____ _____    ______ ____
ROOT
ATOM      1  C   UNL     1      45.280   6.955  12.832  0.00  0.00    +0.000 C 
ENDROOT
BRANCH   1   2
ATOM      2  N   UNL     1      46.394   7.896  12.738  0.00  0.00    +0.000 N 
ATOM      3  C   UNL     1      46.280   9.157  12.200  0.00  0.00    +0.000 A 
ATOM      4  C   UNL     1      47.462   9.824  12.418  0.00  0.00    +0.000 A 
ATOM      5  C   UNL     1      48.331   8.946  13.116  0.00  0.00    +0.000 A 
ATOM      6  C   UNL     1      49.630   9.079  13.623  0.00  0.00    +0.000 A 
ATOM      7  C   UNL     1      50.154   7.973  14.278  0.00  0.00    +0.000 A 
ATOM      8  N   UNL     1      49.504   6.784  14.438  0.00  0.00    +0.000 NA
ATOM      9  C   UNL     1      48.252   6.657  13.941  0.00  0.00    +0.000 A 
ATOM     10  C   UNL     1      47.653   7.735  13.291  0.00  0.00    +0.000 A 
BRANCH   7  11
ATOM     11  C   UNL     1      51.524   8.074  14.882  0.00  0.00    +0.000 C 
ATOM     12  N   UNL     1      51.969   6.965  15.547  0.00  0.00    +0.000 N 
ATOM     13  O   UNL     1      52.213   9.087  14.801  0.00  0.00    +0.000 OA
ATOM     14  H   UNL     1      51.368   6.147  15.606  0.00  0.00    +0.000 HD
ATOM     15  H   UNL     1      52.875   6.980  15.989  0.00  0.00    +0.000 HD
ENDBRANCH   7  11
ENDBRANCH   1   2
BRANCH   1  18
ATOM     16  C   UNL     1      44.299   4.017  10.587  0.00  0.00    +0.000 A 
ATOM     17  C   UNL     1      44.372   4.899  11.675  0.00  0.00    +0.000 A 
ATOM     18  C   UNL     1      45.194   6.036  11.640  0.00  0.00    +0.000 A 
ATOM     19  C   UNL     1      45.938   6.292  10.483  0.00  0.00    +0.000 A 
ATOM     20  C   UNL     1      45.856   5.433   9.387  0.00  0.00    +0.000 A 
ATOM     21  C   UNL     1      45.038   4.290   9.421  0.00  0.00    +0.000 A 
BRANCH  16  23
ATOM     22  C   UNL     1      43.284   2.270  11.855  0.00  0.00    +0.000 C 
ATOM     23  O   UNL     1      43.571   2.854  10.590  0.00  0.00    +0.000 OA
ENDBRANCH  16  23
BRANCH  21  24
ATOM     24  C   UNL     1      45.004   3.384   8.206  0.00  0.00    +0.000 C 
BRANCH  24  25
ATOM     25  N   UNL     1      45.961   3.715   7.145  0.00  0.00    +0.000 NA
ATOM     26  H   UNL     1      46.303   4.658   7.343  0.00  0.00    +0.000 HD
BRANCH  25  27
ATOM     27  C   UNL     1      47.105   2.808   7.010  0.00  0.00    +0.000 C 
ATOM     28  C   UNL     1      46.852   1.422   7.606  0.00  0.00    +0.000 C 
ATOM     29  C   UNL     1      47.409   2.668   5.514  0.00  0.00    +0.000 C 
ENDBRANCH  25  27
ENDBRANCH  24  25
ENDBRANCH  21  24
ENDBRANCH   1  18
TORSDOF 7
ENDMDL
MODEL 5
REMARK VINA RESULT:    -6.331      2.541      7.734
REMARK INTER + INTRA:         -10.082
REMARK INTER:                  -9.315
REMARK INTRA:                  -0.767
REMARK UNBOUND:                -1.160
REMARK  Name = 
REMARK  10 active torsions:
REMARK  status: ('A' for Active; 'I' for Inactive)
REMARK    1  A    between atoms: C_1  and  O_2
REMARK    2  A    between atoms: O_2  and  C_3
REMARK    3  A    between atoms: C_5  and  C_6
REMARK    4  A    between atoms: C_6  and  N_7
REMARK    5  A    between atoms: C_12  and  C_13
REMARK    6  A    between atoms: C_21  and  C_22
REMARK    7  A    between atoms: C_22  and  N_23
REMARK    8  A    between atoms: N_23  and  C_24
REMARK    9  A    between atoms: C_24  and  C_25
REMARK   10  A    between atoms: C_24  and  C_26
REMARK                            x       y       z     vdW  Elec       q    Type
REMARK                         _______ _______ _______ _____ _____    ______ ____
ROOT
ATOM      1  C   UNL     1      45.263   7.154  12.382  0.00  0.00    +0.000 C 
ENDROOT
BRANCH   1   2
ATOM      2  N   UNL     1      46.486   7.062  13.178  0.00  0.00    +0.000 N 
ATOM      3  C   UNL     1      47.379   8.097  13.320  0.00  0.00    +0.000 A 
ATOM      4  C   UNL     1      48.317   7.729  14.255  0.00  0.00    +0.000 A 
ATOM      5  C   UNL     1      47.988   6.424  14.705  0.00  0.00    +0.000 A 
ATOM      6  C   UNL     1      48.554   5.562  15.653  0.00  0.00    +0.000 A 
ATOM      7  C   UNL     1      47.922   4.339  15.830  0.00  0.00    +0.000 A 
ATOM      8  N   UNL     1      46.820   3.925  15.140  0.00  0.00    +0.000 NA
ATOM      9  C   UNL     1      46.281   4.758  14.220  0.00  0.00    +0.000 A 
ATOM     10  C   UNL     1      46.848   6.013  14.005  0.00  0.00    +0.000 A 
BRANCH   7  11
ATOM     11  C   UNL     1      48.457   3.394  16.867  0.00  0.00    +0.000 C 
ATOM     12  N   UNL     1      48.191   3.721  18.168  0.00  0.00    +0.000 N 
ATOM     13  O   UNL     1      49.103   2.390  16.580  0.00  0.00    +0.000 OA
ATOM     14  H   UNL     1      47.664   4.565  18.370  0.00  0.00    +0.000 HD
ATOM     15  H   UNL     1      48.540   3.133  18.910  0.00  0.00    +0.000 HD
ENDBRANCH   7  11
ENDBRANCH   1   2
BRANCH   1  18
ATOM     16  C   UNL     1      44.252   4.057  10.376  0.00  0.00    +0.000 A 
ATOM     17  C   UNL     1      44.304   5.044  11.371  0.00  0.00    +0.000 A 
ATOM     18  C   UNL     1      45.204   6.119  11.287  0.00  0.00    +0.000 A 
ATOM     19  C   UNL     1      46.048   6.203  10.176  0.00  0.00    +0.000 A 
ATOM     20  C   UNL     1      45.989   5.238   9.170  0.00  0.00    +0.000 A 
ATOM     21  C   UNL     1      45.094   4.157   9.254  0.00  0.00    +0.000 A 
BRANCH  16  23
ATOM     22  C   UNL     1      43.323   2.305  11.702  0.00  0.00    +0.000 C 
ATOM     23  O   UNL     1      43.447   2.948  10.439  0.00  0.00    +0.000 OA
ENDBRANCH  16  23
BRANCH  21  24
ATOM     24  C   UNL     1      45.089   3.130   8.139  0.00  0.00    +0.000 C 
BRANCH  24  25
ATOM     25  N   UNL     1      46.107   3.321   7.100  0.00  0.00    +0.000 NA
ATOM     26  H   UNL     1      46.869   3.847   7.531  0.00  0.00    +0.000 HD
BRANCH  25  27
ATOM     27  C   UNL     1      46.647   2.095   6.502  0.00  0.00    +0.000 C 
ATOM     28  C   UNL     1      47.940   2.324   5.718  0.00  0.00    +0.000 C 
ATOM     29  C   UNL     1      46.913   1.105   7.641  0.00  0.00    +0.000 C 
ENDBRANCH  25  27
ENDBRANCH  24  25
ENDBRANCH  21  24
ENDBRANCH   1  18
TORSDOF 7
ENDMDL
MODEL 6
REMARK VINA RESULT:    -6.021      2.816      7.663
REMARK INTER + INTRA:          -9.645
REMARK INTER:                  -8.944
REMARK INTRA:                  -0.700
REMARK UNBOUND:                -1.160
REMARK  Name = 
REMARK  10 active torsions:
REMARK  status: ('A' for Active; 'I' for Inactive)
REMARK    1  A    between atoms: C_1  and  O_2
REMARK    2  A    between atoms: O_2  and  C_3
REMARK    3  A    between atoms: C_5  and  C_6
REMARK    4  A    between atoms: C_6  and  N_7
REMARK    5  A    between atoms: C_12  and  C_13
REMARK    6  A    between atoms: C_21  and  C_22
REMARK    7  A    between atoms: C_22  and  N_23
REMARK    8  A    between atoms: N_23  and  C_24
REMARK    9  A    between atoms: C_24  and  C_25
REMARK   10  A    between atoms: C_24  and  C_26
REMARK                            x       y       z     vdW  Elec       q    Type
REMARK                         _______ _______ _______ _____ _____    ______ ____
ROOT
ATOM      1  C   UNL     1      45.761   6.721  12.722  0.00  0.00    +0.000 C 
ENDROOT
BRANCH   1   2
ATOM      2  N   UNL     1      46.443   7.972  12.396  0.00  0.00    +0.000 N 
ATOM      3  C   UNL     1      45.796   9.179  12.269  0.00  0.00    +0.000 A 
ATOM      4  C   UNL     1      46.747  10.162  12.124  0.00  0.00    +0.000 A 
ATOM      5  C   UNL     1      48.021   9.538  12.167  0.00  0.00    +0.000 A 
ATOM      6  C   UNL     1      49.332  10.025  12.101  0.00  0.00    +0.000 A 
ATOM      7  C   UNL     1      50.347   9.082  12.196  0.00  0.00    +0.000 A 
ATOM      8  N   UNL     1      50.150   7.739  12.327  0.00  0.00    +0.000 NA
ATOM      9  C   UNL     1      48.881   7.272  12.384  0.00  0.00    +0.000 A 
ATOM     10  C   UNL     1      47.812   8.163  12.318  0.00  0.00    +0.000 A 
BRANCH   7  11
ATOM     11  C   UNL     1      51.773   9.552  12.178  0.00  0.00    +0.000 C 
ATOM     12  N   UNL     1      52.308   9.793  10.943  0.00  0.00    +0.000 N 
ATOM     13  O   UNL     1      52.434   9.707  13.201  0.00  0.00    +0.000 OA
ATOM     14  H   UNL     1      51.736   9.643  10.116  0.00  0.00    +0.000 HD
ATOM     15  H   UNL     1      53.267  10.094  10.866  0.00  0.00    +0.000 HD
ENDBRANCH   7  11
ENDBRANCH   1   2
BRANCH   1  18
ATOM     16  C   UNL     1      44.532   3.865  10.493  0.00  0.00    +0.000 A 
ATOM     17  C   UNL     1      44.735   4.700  11.601  0.00  0.00    +0.000 A 
ATOM     18  C   UNL     1      45.533   5.852  11.511  0.00  0.00    +0.000 A 
ATOM     19  C   UNL     1      46.118   6.169  10.281  0.00  0.00    +0.000 A 
ATOM     20  C   UNL     1      45.905   5.356   9.168  0.00  0.00    +0.000 A 
ATOM     21  C   UNL     1      45.111   4.199   9.256  0.00  0.00    +0.000 A 
BRANCH  16  23
ATOM     22  C   UNL     1      43.261   2.318  11.791  0.00  0.00    +0.000 C 
ATOM     23  O   UNL     1      43.823   2.691  10.539  0.00  0.00    +0.000 OA
ENDBRANCH  16  23
BRANCH  21  24
ATOM     24  C   UNL     1      44.931   3.345   8.017  0.00  0.00    +0.000 C 
BRANCH  24  25
ATOM     25  N   UNL     1      45.938   3.535   6.967  0.00  0.00    +0.000 NA
ATOM     26  H   UNL     1      46.252   4.505   7.035  0.00  0.00    +0.000 HD
BRANCH  25  27
ATOM     27  C   UNL     1      47.104   2.647   7.032  0.00  0.00    +0.000 C 
ATOM     28  C   UNL     1      46.792   1.283   7.651  0.00  0.00    +0.000 C 
ATOM     29  C   UNL     1      47.613   2.449   5.599  0.00  0.00    +0.000 C 
ENDBRANCH  25  27
ENDBRANCH  24  25
ENDBRANCH  21  24
ENDBRANCH   1  18
TORSDOF 7
ENDMDL
MODEL 7
REMARK VINA RESULT:    -5.885      3.187      7.146
REMARK INTER + INTRA:          -9.453
REMARK INTER:                  -8.372
REMARK INTRA:                  -1.082
REMARK UNBOUND:                -1.160
REMARK  Name = 
REMARK  10 active torsions:
REMARK  status: ('A' for Active; 'I' for Inactive)
REMARK    1  A    between atoms: C_1  and  O_2
REMARK    2  A    between atoms: O_2  and  C_3
REMARK    3  A    between atoms: C_5  and  C_6
REMARK    4  A    between atoms: C_6  and  N_7
REMARK    5  A    between atoms: C_12  and  C_13
REMARK    6  A    between atoms: C_21  and  C_22
REMARK    7  A    between atoms: C_22  and  N_23
REMARK    8  A    between atoms: N_23  and  C_24
REMARK    9  A    between atoms: C_24  and  C_25
REMARK   10  A    between atoms: C_24  and  C_26
REMARK                            x       y       z     vdW  Elec       q    Type
REMARK                         _______ _______ _______ _____ _____    ______ ____
ROOT
ATOM      1  C   UNL     1      46.454   8.678  13.373  0.00  0.00    +0.000 C 
ENDROOT
BRANCH   1   2
ATOM      2  N   UNL     1      47.379   9.396  12.499  0.00  0.00    +0.000 N 
ATOM      3  C   UNL     1      47.175  10.687  12.073  0.00  0.00    +0.000 A 
ATOM      4  C   UNL     1      48.305  11.104  11.409  0.00  0.00    +0.000 A 
ATOM      5  C   UNL     1      49.236  10.033  11.430  0.00  0.00    +0.000 A 
ATOM      6  C   UNL     1      50.543   9.886  10.948  0.00  0.00    +0.000 A 
ATOM      7  C   UNL     1      51.152   8.660  11.181  0.00  0.00    +0.000 A 
ATOM      8  N   UNL     1      50.564   7.607  11.819  0.00  0.00    +0.000 NA
ATOM      9  C   UNL     1      49.299   7.753  12.278  0.00  0.00    +0.000 A 
ATOM     10  C   UNL     1      48.633   8.964  12.101  0.00  0.00    +0.000 A 
BRANCH   7  11
ATOM     11  C   UNL     1      52.570   8.461  10.727  0.00  0.00    +0.000 C 
ATOM     12  N   UNL     1      53.194   7.336  11.190  0.00  0.00    +0.000 N 
ATOM     13  O   UNL     1      53.149   9.256   9.992  0.00  0.00    +0.000 OA
ATOM     14  H   UNL     1      52.688   6.705  11.806  0.00  0.00    +0.000 HD
ATOM     15  H   UNL     1      54.153   7.158  10.933  0.00  0.00    +0.000 HD
ENDBRANCH   7  11
ENDBRANCH   1   2
BRANCH   1  18
ATOM     16  C   UNL     1      45.383   5.097  12.560  0.00  0.00    +0.000 A 
ATOM     17  C   UNL     1      45.960   6.205  13.197  0.00  0.00    +0.000 A 
ATOM     18  C   UNL     1      45.801   7.504  12.689  0.00  0.00    +0.000 A 
ATOM     19  C   UNL     1      45.037   7.684  11.531  0.00  0.00    +0.000 A 
ATOM     20  C   UNL     1      44.442   6.590  10.902  0.00  0.00    +0.000 A 
ATOM     21  C   UNL     1      44.603   5.287  11.406  0.00  0.00    +0.000 A 
BRANCH  16  23
ATOM     22  C   UNL     1      46.803   3.478  13.587  0.00  0.00    +0.000 C 
ATOM     23  O   UNL     1      45.563   3.799  12.969  0.00  0.00    +0.000 OA
ENDBRANCH  16  23
BRANCH  21  24
ATOM     24  C   UNL     1      43.947   4.137  10.668  0.00  0.00    +0.000 C 
BRANCH  24  25
ATOM     25  N   UNL     1      43.769   4.331   9.225  0.00  0.00    +0.000 NA
ATOM     26  H   UNL     1      43.976   5.314   9.035  0.00  0.00    +0.000 HD
BRANCH  25  27
ATOM     27  C   UNL     1      44.601   3.489   8.359  0.00  0.00    +0.000 C 
ATOM     28  C   UNL     1      45.938   4.135   7.990  0.00  0.00    +0.000 C 
ATOM     29  C   UNL     1      44.863   2.176   9.107  0.00  0.00    +0.000 C 
ENDBRANCH  25  27
ENDBRANCH  24  25
ENDBRANCH  21  24
ENDBRANCH   1  18
TORSDOF 7
ENDMDL
MODEL 8
REMARK VINA RESULT:    -5.884      2.751      8.845
REMARK INTER + INTRA:          -9.453
REMARK INTER:                  -8.241
REMARK INTRA:                  -1.212
REMARK UNBOUND:                -1.160
REMARK  Name = 
REMARK  10 active torsions:
REMARK  status: ('A' for Active; 'I' for Inactive)
REMARK    1  A    between atoms: C_1  and  O_2
REMARK    2  A    between atoms: O_2  and  C_3
REMARK    3  A    between atoms: C_5  and  C_6
REMARK    4  A    between atoms: C_6  and  N_7
REMARK    5  A    between atoms: C_12  and  C_13
REMARK    6  A    between atoms: C_21  and  C_22
REMARK    7  A    between atoms: C_22  and  N_23
REMARK    8  A    between atoms: N_23  and  C_24
REMARK    9  A    between atoms: C_24  and  C_25
REMARK   10  A    between atoms: C_24  and  C_26
REMARK                            x       y       z     vdW  Elec       q    Type
REMARK                         _______ _______ _______ _____ _____    ______ ____
ROOT
ATOM      1  C   UNL     1      48.943   6.905  13.864  0.00  0.00    +0.000 C 
ENDROOT
BRANCH   1   2
ATOM      2  N   UNL     1      48.797   7.488  15.197  0.00  0.00    +0.000 N 
ATOM      3  C   UNL     1      48.521   8.817  15.418  0.00  0.00    +0.000 A 
ATOM      4  C   UNL     1      48.291   8.989  16.763  0.00  0.00    +0.000 A 
ATOM      5  C   UNL     1      48.426   7.722  17.388  0.00  0.00    +0.000 A 
ATOM      6  C   UNL     1      48.281   7.282  18.710  0.00  0.00    +0.000 A 
ATOM      7  C   UNL     1      48.485   5.927  18.935  0.00  0.00    +0.000 A 
ATOM      8  N   UNL     1      48.830   5.022  17.975  0.00  0.00    +0.000 NA
ATOM      9  C   UNL     1      48.976   5.453  16.700  0.00  0.00    +0.000 A 
ATOM     10  C   UNL     1      48.763   6.796  16.395  0.00  0.00    +0.000 A 
BRANCH   7  11
ATOM     11  C   UNL     1      48.298   5.391  20.325  0.00  0.00    +0.000 C 
ATOM     12  N   UNL     1      49.050   4.296  20.651  0.00  0.00    +0.000 N 
ATOM     13  O   UNL     1      47.514   5.888  21.128  0.00  0.00    +0.000 OA
ATOM     14  H   UNL     1      49.680   3.903  19.957  0.00  0.00    +0.000 HD
ATOM     15  H   UNL     1      48.954   3.881  21.565  0.00  0.00    +0.000 HD
ENDBRANCH   7  11
ENDBRANCH   1   2
BRANCH   1  18
ATOM     16  C   UNL     1      45.673   6.847  11.879  0.00  0.00    +0.000 A 
ATOM     17  C   UNL     1      46.909   7.253  12.404  0.00  0.00    +0.000 A 
ATOM     18  C   UNL     1      47.630   6.436  13.290  0.00  0.00    +0.000 A 
ATOM     19  C   UNL     1      47.101   5.189  13.635  0.00  0.00    +0.000 A 
ATOM     20  C   UNL     1      45.883   4.767  13.101  0.00  0.00    +0.000 A 
ATOM     21  C   UNL     1      45.156   5.584  12.219  0.00  0.00    +0.000 A 
BRANCH  16  23
ATOM     22  C   UNL     1      44.600   8.947  11.520  0.00  0.00    +0.000 C 
ATOM     23  O   UNL     1      44.891   7.630  11.069  0.00  0.00    +0.000 OA
ENDBRANCH  16  23
BRANCH  21  24
ATOM     24  C   UNL     1      43.830   5.079  11.686  0.00  0.00    +0.000 C 
BRANCH  24  25
ATOM     25  N   UNL     1      43.615   5.264  10.247  0.00  0.00    +0.000 NA
ATOM     26  H   UNL     1      44.054   6.152   9.998  0.00  0.00    +0.000 HD
BRANCH  25  27
ATOM     27  C   UNL     1      44.146   4.206   9.380  0.00  0.00    +0.000 C 
ATOM     28  C   UNL     1      45.532   4.524   8.817  0.00  0.00    +0.000 C 
ATOM     29  C   UNL     1      44.221   2.921  10.213  0.00  0.00    +0.000 C 
ENDBRANCH  25  27
ENDBRANCH  24  25
ENDBRANCH  21  24
ENDBRANCH   1  18
TORSDOF 7
ENDMDL
MODEL 9
REMARK VINA RESULT:    -5.594      3.529      5.776
REMARK INTER + INTRA:          -9.043
REMARK INTER:                  -7.771
REMARK INTRA:                  -1.271
REMARK UNBOUND:                -1.160
REMARK  Name = 
REMARK  10 active torsions:
REMARK  status: ('A' for Active; 'I' for Inactive)
REMARK    1  A    between atoms: C_1  and  O_2
REMARK    2  A    between atoms: O_2  and  C_3
REMARK    3  A    between atoms: C_5  and  C_6
REMARK    4  A    between atoms: C_6  and  N_7
REMARK    5  A    between atoms: C_12  and  C_13
REMARK    6  A    between atoms: C_21  and  C_22
REMARK    7  A    between atoms: C_22  and  N_23
REMARK    8  A    between atoms: N_23  and  C_24
REMARK    9  A    between atoms: C_24  and  C_25
REMARK   10  A    between atoms: C_24  and  C_26
REMARK                            x       y       z     vdW  Elec       q    Type
REMARK                         _______ _______ _______ _____ _____    ______ ____
ROOT
ATOM      1  C   UNL     1      48.885   7.022  14.004  0.00  0.00    +0.000 C 
ENDROOT
BRANCH   1   2
ATOM      2  N   UNL     1      47.487   7.128  13.592  0.00  0.00    +0.000 N 
ATOM      3  C   UNL     1      46.872   8.321  13.295  0.00  0.00    +0.000 A 
ATOM      4  C   UNL     1      45.622   8.046  12.791  0.00  0.00    +0.000 A 
ATOM      5  C   UNL     1      45.466   6.635  12.774  0.00  0.00    +0.000 A 
ATOM      6  C   UNL     1      44.436   5.787  12.349  0.00  0.00    +0.000 A 
ATOM      7  C   UNL     1      44.664   4.424  12.483  0.00  0.00    +0.000 A 
ATOM      8  N   UNL     1      45.796   3.872  13.008  0.00  0.00    +0.000 NA
ATOM      9  C   UNL     1      46.786   4.696  13.422  0.00  0.00    +0.000 A 
ATOM     10  C   UNL     1      46.637   6.076  13.298  0.00  0.00    +0.000 A 
BRANCH   7  11
ATOM     11  C   UNL     1      43.613   3.466  12.001  0.00  0.00    +0.000 C 
ATOM     12  N   UNL     1      43.732   2.177  12.440  0.00  0.00    +0.000 N 
ATOM     13  O   UNL     1      42.702   3.803  11.251  0.00  0.00    +0.000 OA
ATOM     14  H   UNL     1      44.506   1.930  13.051  0.00  0.00    +0.000 HD
ATOM     15  H   UNL     1      43.065   1.484  12.136  0.00  0.00    +0.000 HD
ENDBRANCH   7  11
ENDBRANCH   1   2
BRANCH   1  18
ATOM     16  C   UNL     1      48.762   5.963  17.678  0.00  0.00    +0.000 A 
ATOM     17  C   UNL     1      48.640   5.951  16.281  0.00  0.00    +0.000 A 
ATOM     18  C   UNL     1      49.052   7.045  15.502  0.00  0.00    +0.000 A 
ATOM     19  C   UNL     1      49.607   8.156  16.145  0.00  0.00    +0.000 A 
ATOM     20  C   UNL     1      49.752   8.169  17.532  0.00  0.00    +0.000 A 
ATOM     21  C   UNL     1      49.335   7.078  18.316  0.00  0.00    +0.000 A 
BRANCH  16  23
ATOM     22  C   UNL     1      48.113   3.679  17.905  0.00  0.00    +0.000 C 
ATOM     23  O   UNL     1      48.312   4.957  18.495  0.00  0.00    +0.000 OA
ENDBRANCH  16  23
BRANCH  21  24
ATOM     24  C   UNL     1      49.502   7.159  19.820  0.00  0.00    +0.000 C 
BRANCH  24  25
ATOM     25  N   UNL     1      48.266   7.366  20.582  0.00  0.00    +0.000 NA
ATOM     26  H   UNL     1      48.336   6.780  21.417  0.00  0.00    +0.000 HD
BRANCH  25  27
ATOM     27  C   UNL     1      47.988   8.748  20.987  0.00  0.00    +0.000 C 
ATOM     28  C   UNL     1      49.243   9.618  21.072  0.00  0.00    +0.000 C 
ATOM     29  C   UNL     1      47.026   9.346  19.954  0.00  0.00    +0.000 C 
ENDBRANCH  25  27
ENDBRANCH  24  25
ENDBRANCH  21  24
ENDBRANCH   1  18
TORSDOF 7
ENDMDL
