MODEL 1
REMARK VINA RESULT:    -8.630      0.000      0.000
REMARK INTER + INTRA:         -10.836
REMARK INTER:                 -10.143
REMARK INTRA:                  -0.693
REMARK UNBOUND:                -0.693
REMARK  Name = 
REMARK  3 active torsions:
REMARK  status: ('A' for Active; 'I' for Inactive)
REMARK    1  A    between atoms: C_2  and  C_4
REMARK    2  A    between atoms: N_8  and  C_9
REMARK    3  A    between atoms: C_9  and  C_10
REMARK                            x       y       z     vdW  Elec       q    Type
REMARK                         _______ _______ _______ _____ _____    ______ ____
ROOT
ATOM      1  C   UNL     1      46.532   2.673   7.503  0.00  0.00    +0.000 A 
ATOM      2  C   UNL     1      46.213   4.016   7.657  0.00  0.00    +0.000 A 
ATOM      3  C   UNL     1      45.333   4.401   8.669  0.00  0.00    +0.000 A 
ATOM      4  C   UNL     1      44.798   3.441   9.515  0.00  0.00    +0.000 A 
ATOM      5  N   UNL     1      43.863   3.736  10.512  0.00  0.00    +0.000 N 
ATOM      6  N   UNL     1      45.085   2.128   9.358  0.00  0.00    +0.000 NA
ATOM      7  C   UNL     1      45.930   1.766   8.359  0.00  0.00    +0.000 A 
ATOM      8  H   UNL     1      43.698   2.858  10.999  0.00  0.00    +0.000 HD
ENDROOT
BRANCH   1  10
ATOM      9  N   UNL     1      47.710   3.067   5.423  0.00  0.00    +0.000 N 
ATOM     10  C   UNL     1      47.451   2.195   6.446  0.00  0.00    +0.000 C 
ATOM     11  O   UNL     1      47.970   1.093   6.491  0.00  0.00    +0.000 OA
ATOM     12  H   UNL     1      48.396   2.780   4.742  0.00  0.00    +0.000 HD
ATOM     13  H   UNL     1      47.494   4.058   5.479  0.00  0.00    +0.000 HD
ENDBRANCH   1  10
BRANCH   5  14
ATOM     14  C   UNL     1      43.852   4.948  11.352  0.00  0.00    +0.000 C 
ATOM     15  C   UNL     1      42.533   5.140  12.095  0.00  0.00    +0.000 C 
ATOM     16  C   UNL     1      42.981   6.168  11.113  0.00  0.00    +0.000 C 
BRANCH  14  17
ATOM     17  C   UNL     1      45.172   5.200  12.080  0.00  0.00    +0.000 A 
ATOM     18  C   UNL     1      45.965   6.335  11.822  0.00  0.00    +0.000 A 
ATOM     19  C   UNL     1      47.147   6.583  12.531  0.00  0.00    +0.000 A 
ATOM     20  C   UNL     1      47.566   5.691  13.515  0.00  0.00    +0.000 A 
ATOM     21  C   UNL     1      46.806   4.559  13.769  0.00  0.00    +0.000 A 
ATOM     22  F   UNL     1      47.204   3.695  14.712  0.00  0.00    +0.000 F 
ATOM     23  C   UNL     1      45.630   4.309  13.068  0.00  0.00    +0.000 A 
ENDBRANCH  14  17
ENDBRANCH   5  14
TORSDOF 3
ENDMDL
MODEL 2
REMARK VINA RESULT:    -6.984      3.829      6.231
REMARK INTER + INTRA:          -8.902
REMARK INTER:                  -8.511
REMARK INTRA:                  -0.391
REMARK UNBOUND:                -0.693
REMARK  Name = 
REMARK  3 active torsions:
REMARK  status: ('A' for Active; 'I' for Inactive)
REMARK    1  A    between atoms: C_2  and  C_4
REMARK    2  A    between atoms: N_8  and  C_9
REMARK    3  A    between atoms: C_9  and  C_10
REMARK                            x       y       z     vdW  Elec       q    Type
REMARK                         _______ _______ _______ _____ _____    ______ ____
ROOT
ATOM      1  C   UNL     1      48.146   6.653  13.777  0.00  0.00    +0.000 A 
ATOM      2  C   UNL     1      47.408   5.527  14.117  0.00  0.00    +0.000 A 
ATOM      3  C   UNL     1      46.344   5.132  13.305  0.00  0.00    +0.000 A 
ATOM      4  C   UNL     1      46.045   5.861  12.163  0.00  0.00    +0.000 A 
ATOM      5  N   UNL     1      44.960   5.569  11.332  0.00  0.00    +0.000 N 
ATOM      6  N   UNL     1      46.744   6.973  11.837  0.00  0.00    +0.000 NA
ATOM      7  C   UNL     1      47.766   7.355  12.646  0.00  0.00    +0.000 A 
ATOM      8  H   UNL     1      45.024   6.226  10.558  0.00  0.00    +0.000 HD
ENDROOT
BRANCH   1  10
ATOM      9  N   UNL     1      50.428   7.454  13.925  0.00  0.00    +0.000 N 
ATOM     10  C   UNL     1      49.280   7.132  14.598  0.00  0.00    +0.000 C 
ATOM     11  O   UNL     1      49.193   7.258  15.807  0.00  0.00    +0.000 OA
ATOM     12  H   UNL     1      51.177   7.856  14.468  0.00  0.00    +0.000 HD
ATOM     13  H   UNL     1      50.454   7.592  12.920  0.00  0.00    +0.000 HD
ENDBRANCH   1  10
BRANCH   5  14
ATOM     14  C   UNL     1      44.477   4.218  10.988  0.00  0.00    +0.000 C 
ATOM     15  C   UNL     1      42.984   4.042  11.245  0.00  0.00    +0.000 C 
ATOM     16  C   UNL     1      43.962   3.195  11.984  0.00  0.00    +0.000 C 
BRANCH  14  17
ATOM     17  C   UNL     1      45.094   3.656   9.708  0.00  0.00    +0.000 A 
ATOM     18  C   UNL     1      45.607   4.489   8.695  0.00  0.00    +0.000 A 
ATOM     19  C   UNL     1      46.217   3.964   7.549  0.00  0.00    +0.000 A 
ATOM     20  C   UNL     1      46.323   2.585   7.391  0.00  0.00    +0.000 A 
ATOM     21  C   UNL     1      45.808   1.750   8.371  0.00  0.00    +0.000 A 
ATOM     22  F   UNL     1      45.903   0.421   8.223  0.00  0.00    +0.000 F 
ATOM     23  C   UNL     1      45.201   2.267   9.511  0.00  0.00    +0.000 A 
ENDBRANCH  14  17
ENDBRANCH   5  14
TORSDOF 3
ENDMDL
MODEL 3
REMARK VINA RESULT:    -6.460      3.843      6.288
REMARK INTER + INTRA:          -8.286
REMARK INTER:                  -8.454
REMARK INTRA:                   0.168
REMARK UNBOUND:                -0.693
REMARK  Name = 
REMARK  3 active torsions:
REMARK  status: ('A' for Active; 'I' for Inactive)
REMARK    1  A    between atoms: C_2  and  C_4
REMARK    2  A    between atoms: N_8  and  C_9
REMARK    3  A    between atoms: C_9  and  C_10
REMARK                            x       y       z     vdW  Elec       q    Type
REMARK                         _______ _______ _______ _____ _____    ______ ____
ROOT
ATOM      1  C   UNL     1      47.860   5.923  14.514  0.00  0.00    +0.000 A 
ATOM      2  C   UNL     1      47.508   6.146  13.188  0.00  0.00    +0.000 A 
ATOM      3  C   UNL     1      46.713   5.212  12.523  0.00  0.00    +0.000 A 
ATOM      4  C   UNL     1      46.274   4.081  13.195  0.00  0.00    +0.000 A 
ATOM      5  N   UNL     1      45.529   3.069  12.584  0.00  0.00    +0.000 N 
ATOM      6  N   UNL     1      46.632   3.844  14.479  0.00  0.00    +0.000 NA
ATOM      7  C   UNL     1      47.420   4.754  15.109  0.00  0.00    +0.000 A 
ATOM      8  H   UNL     1      45.308   2.407  13.325  0.00  0.00    +0.000 HD
ENDROOT
BRANCH   1  10
ATOM      9  N   UNL     1      48.132   8.059  15.624  0.00  0.00    +0.000 N 
ATOM     10  C   UNL     1      48.708   6.867  15.275  0.00  0.00    +0.000 C 
ATOM     11  O   UNL     1      49.850   6.593  15.597  0.00  0.00    +0.000 OA
ATOM     12  H   UNL     1      48.675   8.674  16.210  0.00  0.00    +0.000 HD
ATOM     13  H   UNL     1      47.130   8.216  15.586  0.00  0.00    +0.000 HD
ENDBRANCH   1  10
BRANCH   5  14
ATOM     14  C   UNL     1      44.477   3.267  11.568  0.00  0.00    +0.000 C 
ATOM     15  C   UNL     1      43.405   4.256  12.013  0.00  0.00    +0.000 C 
ATOM     16  C   UNL     1      43.027   2.845  11.719  0.00  0.00    +0.000 C 
BRANCH  14  17
ATOM     17  C   UNL     1      45.012   3.326  10.138  0.00  0.00    +0.000 A 
ATOM     18  C   UNL     1      45.214   4.546   9.463  0.00  0.00    +0.000 A 
ATOM     19  C   UNL     1      45.753   4.591   8.171  0.00  0.00    +0.000 A 
ATOM     20  C   UNL     1      46.099   3.409   7.522  0.00  0.00    +0.000 A 
ATOM     21  C   UNL     1      45.891   2.199   8.166  0.00  0.00    +0.000 A 
ATOM     22  F   UNL     1      46.219   1.056   7.546  0.00  0.00    +0.000 F 
ATOM     23  C   UNL     1      45.357   2.148   9.450  0.00  0.00    +0.000 A 
ENDBRANCH  14  17
ENDBRANCH   5  14
TORSDOF 3
ENDMDL
MODEL 4
REMARK VINA RESULT:    -5.730      4.979      7.598
REMARK INTER + INTRA:          -7.428
REMARK INTER:                  -7.366
REMARK INTRA:                  -0.062
REMARK UNBOUND:                -0.693
REMARK  Name = 
REMARK  3 active torsions:
REMARK  status: ('A' for Active; 'I' for Inactive)
REMARK    1  A    between atoms: C_2  and  C_4
REMARK    2  A    between atoms: N_8  and  C_9
REMARK    3  A    between atoms: C_9  and  C_10
REMARK                            x       y       z     vdW  Elec       q    Type
REMARK                         _______ _______ _______ _____ _____    ______ ____
ROOT
ATOM      1  C   UNL     1      48.349   4.288  17.633  0.00  0.00    +0.000 A 
ATOM      2  C   UNL     1      48.440   5.539  17.036  0.00  0.00    +0.000 A 
ATOM      3  C   UNL     1      48.056   5.695  15.704  0.00  0.00    +0.000 A 
ATOM      4  C   UNL     1      47.577   4.602  14.996  0.00  0.00    +0.000 A 
ATOM      5  N   UNL     1      47.231   4.659  13.643  0.00  0.00    +0.000 N 
ATOM      6  N   UNL     1      47.506   3.374  15.562  0.00  0.00    +0.000 NA
ATOM      7  C   UNL     1      47.899   3.235  16.855  0.00  0.00    +0.000 A 
ATOM      8  H   UNL     1      46.865   3.737  13.416  0.00  0.00    +0.000 HD
ENDROOT
BRANCH   1  10
ATOM      9  N   UNL     1      48.247   2.926  19.634  0.00  0.00    +0.000 N 
ATOM     10  C   UNL     1      48.748   4.052  19.038  0.00  0.00    +0.000 C 
ATOM     11  O   UNL     1      49.501   4.805  19.630  0.00  0.00    +0.000 OA
ATOM     12  H   UNL     1      48.577   2.716  20.563  0.00  0.00    +0.000 HD
ATOM     13  H   UNL     1      47.825   2.168  19.106  0.00  0.00    +0.000 HD
ENDBRANCH   1  10
BRANCH   5  14
ATOM     14  C   UNL     1      46.571   5.794  12.969  0.00  0.00    +0.000 C 
ATOM     15  C   UNL     1      47.527   6.598  12.094  0.00  0.00    +0.000 C 
ATOM     16  C   UNL     1      46.855   7.259  13.248  0.00  0.00    +0.000 C 
BRANCH  14  17
ATOM     17  C   UNL     1      45.169   5.469  12.456  0.00  0.00    +0.000 A 
ATOM     18  C   UNL     1      44.319   6.458  11.921  0.00  0.00    +0.000 A 
ATOM     19  C   UNL     1      43.056   6.141  11.406  0.00  0.00    +0.000 A 
ATOM     20  C   UNL     1      42.612   4.822  11.420  0.00  0.00    +0.000 A 
ATOM     21  C   UNL     1      43.429   3.839  11.959  0.00  0.00    +0.000 A 
ATOM     22  F   UNL     1      43.006   2.567  11.979  0.00  0.00    +0.000 F 
ATOM     23  C   UNL     1      44.685   4.148  12.471  0.00  0.00    +0.000 A 
ENDBRANCH  14  17
ENDBRANCH   5  14
TORSDOF 3
ENDMDL
