MODEL 1
REMARK VINA RESULT:    -8.100      0.000      0.000
REMARK INTER + INTRA:         -11.988
REMARK INTER:                 -10.941
REMARK INTRA:                  -1.047
REMARK UNBOUND:                -1.047
REMARK  Name = 
REMARK  7 active torsions:
REMARK  status: ('A' for Active; 'I' for Inactive)
REMARK    1  A    between atoms: C_1  and  C_2
REMARK    2  A    between atoms: C_5  and  C_6
REMARK    3  A    between atoms: N_8  and  C_9
REMARK    4  A    between atoms: C_9  and  C_10
REMARK    5  A    between atoms: C_13  and  C_14
REMARK    6  A    between atoms: C_14  and  N_15
REMARK    7  A    between atoms: C_16  and  C_18
REMARK                            x       y       z     vdW  Elec       q    Type
REMARK                         _______ _______ _______ _____ _____    ______ ____
ROOT
ATOM      1  C   UNL     1      45.027   6.315  11.147  0.00  0.00    +0.000 A 
ATOM      2  C   UNL     1      46.324   5.871  11.439  0.00  0.00    +0.000 A 
ATOM      3  C   UNL     1      47.139   6.581  12.328  0.00  0.00    +0.000 A 
ATOM      4  C   UNL     1      46.670   7.740  12.958  0.00  0.00    +0.000 A 
ATOM      5  C   UNL     1      45.385   8.201  12.641  0.00  0.00    +0.000 A 
ATOM      6  C   UNL     1      44.568   7.491  11.754  0.00  0.00    +0.000 A 
ENDROOT
BRANCH   1   7
ATOM      7  C   UNL     1      44.148   5.551  10.193  0.00  0.00    +0.000 C 
BRANCH   7  10
ATOM      8  C   UNL     1      44.838   3.407   9.250  0.00  0.00    +0.000 C 
ATOM      9  O   UNL     1      44.169   2.769  10.058  0.00  0.00    +0.000 OA
ATOM     10  N   UNL     1      44.891   4.779   9.226  0.00  0.00    +0.000 N 
ATOM     11  H   UNL     1      45.492   5.227   8.542  0.00  0.00    +0.000 HD
BRANCH   8  16
ATOM     12  C   UNL     1      47.591   2.564   5.173  0.00  0.00    +0.000 C 
ATOM     13  C   UNL     1      46.854   2.413   6.461  0.00  0.00    +0.000 C 
ATOM     14  C   UNL     1      46.846   1.145   7.210  0.00  0.00    +0.000 C 
ATOM     15  C   UNL     1      46.039   1.444   8.349  0.00  0.00    +0.000 C 
ATOM     16  C   UNL     1      45.679   2.732   8.212  0.00  0.00    +0.000 C 
ATOM     17  N   UNL     1      46.165   3.354   7.061  0.00  0.00    +0.000 NA
ENDBRANCH   8  16
ENDBRANCH   7  10
ENDBRANCH   1   7
BRANCH   4  18
ATOM     18  C   UNL     1      47.532   8.498  13.938  0.00  0.00    +0.000 C 
BRANCH  18  19
ATOM     19  N   UNL     1      47.863   7.687  15.082  0.00  0.00    +0.000 N 
ATOM     20  C   UNL     1      49.069   7.042  15.176  0.00  0.00    +0.000 C 
ATOM     21  O   UNL     1      49.944   7.160  14.325  0.00  0.00    +0.000 OA
ATOM     22  H   UNL     1      47.090   7.392  15.670  0.00  0.00    +0.000 HD
BRANCH  20  23
ATOM     23  C   UNL     1      49.287   6.246  16.396  0.00  0.00    +0.000 A 
ATOM     24  C   UNL     1      50.296   6.603  17.280  0.00  0.00    +0.000 A 
ATOM     25  S   UNL     1      50.371   5.613  18.668  0.00  0.00    +0.000 S 
ATOM     26  C   UNL     1      49.093   4.638  18.108  0.00  0.00    +0.000 A 
ATOM     27  N   UNL     1      48.662   3.569  18.829  0.00  0.00    +0.000 NA
ATOM     28  C   UNL     1      47.708   2.899  18.273  0.00  0.00    +0.000 A 
ATOM     29  N   UNL     1      47.143   3.207  17.061  0.00  0.00    +0.000 N 
ATOM     30  C   UNL     1      47.526   4.291  16.313  0.00  0.00    +0.000 A 
ATOM     31  O   UNL     1      46.973   4.559  15.250  0.00  0.00    +0.000 OA
ATOM     32  C   UNL     1      48.604   5.074  16.889  0.00  0.00    +0.000 A 
ATOM     33  H   UNL     1      46.393   2.645  16.685  0.00  0.00    +0.000 HD
ENDBRANCH  20  23
ENDBRANCH  18  19
ENDBRANCH   4  18
TORSDOF 6
ENDMDL
MODEL 2
REMARK VINA RESULT:    -7.510      1.403      1.517
REMARK INTER + INTRA:         -11.191
REMARK INTER:                 -10.126
REMARK INTRA:                  -1.066
REMARK UNBOUND:                -1.047
REMARK  Name = 
REMARK  7 active torsions:
REMARK  status: ('A' for Active; 'I' for Inactive)
REMARK    1  A    between atoms: C_1  and  C_2
REMARK    2  A    between atoms: C_5  and  C_6
REMARK    3  A    between atoms: N_8  and  C_9
REMARK    4  A    between atoms: C_9  and  C_10
REMARK    5  A    between atoms: C_13  and  C_14
REMARK    6  A    between atoms: C_14  and  N_15
REMARK    7  A    between atoms: C_16  and  C_18
REMARK                            x       y       z     vdW  Elec       q    Type
REMARK                         _______ _______ _______ _____ _____    ______ ____
ROOT
ATOM      1  C   UNL     1      45.667   7.047  11.722  0.00  0.00    +0.000 A 
ATOM      2  C   UNL     1      46.998   6.610  11.777  0.00  0.00    +0.000 A 
ATOM      3  C   UNL     1      47.939   7.284  12.565  0.00  0.00    +0.000 A 
ATOM      4  C   UNL     1      47.565   8.398  13.326  0.00  0.00    +0.000 A 
ATOM      5  C   UNL     1      46.242   8.853  13.246  0.00  0.00    +0.000 A 
ATOM      6  C   UNL     1      45.301   8.178  12.461  0.00  0.00    +0.000 A 
ENDROOT
BRANCH   1   7
ATOM      7  C   UNL     1      44.653   6.321  10.877  0.00  0.00    +0.000 C 
BRANCH   7  10
ATOM      8  C   UNL     1      44.645   4.239   9.602  0.00  0.00    +0.000 C 
ATOM      9  O   UNL     1      43.591   3.864  10.106  0.00  0.00    +0.000 OA
ATOM     10  N   UNL     1      45.248   5.435   9.906  0.00  0.00    +0.000 N 
ATOM     11  H   UNL     1      46.135   5.654   9.464  0.00  0.00    +0.000 HD
BRANCH   8  16
ATOM     12  C   UNL     1      47.190   2.813   5.551  0.00  0.00    +0.000 C 
ATOM     13  C   UNL     1      46.475   2.836   6.860  0.00  0.00    +0.000 C 
ATOM     14  C   UNL     1      46.353   1.633   7.703  0.00  0.00    +0.000 C 
ATOM     15  C   UNL     1      45.611   2.099   8.830  0.00  0.00    +0.000 C 
ATOM     16  C   UNL     1      45.384   3.404   8.602  0.00  0.00    +0.000 C 
ATOM     17  N   UNL     1      45.903   3.886   7.400  0.00  0.00    +0.000 NA
ENDBRANCH   8  16
ENDBRANCH   7  10
ENDBRANCH   1   7
BRANCH   4  18
ATOM     18  C   UNL     1      48.567   9.116  14.198  0.00  0.00    +0.000 C 
BRANCH  18  19
ATOM     19  N   UNL     1      48.991   8.290  15.301  0.00  0.00    +0.000 N 
ATOM     20  C   UNL     1      48.572   8.539  16.582  0.00  0.00    +0.000 C 
ATOM     21  O   UNL     1      47.781   9.437  16.851  0.00  0.00    +0.000 OA
ATOM     22  H   UNL     1      49.806   7.707  15.145  0.00  0.00    +0.000 HD
BRANCH  20  23
ATOM     23  C   UNL     1      49.076   7.624  17.620  0.00  0.00    +0.000 A 
ATOM     24  C   UNL     1      49.659   8.140  18.770  0.00  0.00    +0.000 A 
ATOM     25  S   UNL     1      50.129   6.945  19.893  0.00  0.00    +0.000 S 
ATOM     26  C   UNL     1      49.622   5.693  18.857  0.00  0.00    +0.000 A 
ATOM     27  N   UNL     1      49.767   4.389  19.214  0.00  0.00    +0.000 NA
ATOM     28  C   UNL     1      49.369   3.544  18.322  0.00  0.00    +0.000 A 
ATOM     29  N   UNL     1      48.834   3.888  17.106  0.00  0.00    +0.000 N 
ATOM     30  C   UNL     1      48.642   5.189  16.716  0.00  0.00    +0.000 A 
ATOM     31  O   UNL     1      48.125   5.462  15.636  0.00  0.00    +0.000 OA
ATOM     32  C   UNL     1      49.083   6.181  17.680  0.00  0.00    +0.000 A 
ATOM     33  H   UNL     1      48.534   3.177  16.455  0.00  0.00    +0.000 HD
ENDBRANCH  20  23
ENDBRANCH  18  19
ENDBRANCH   4  18
TORSDOF 6
ENDMDL
MODEL 3
REMARK VINA RESULT:    -7.287      1.847      2.442
REMARK INTER + INTRA:         -10.890
REMARK INTER:                  -9.978
REMARK INTRA:                  -0.912
REMARK UNBOUND:                -1.047
REMARK  Name = 
REMARK  7 active torsions:
REMARK  status: ('A' for Active; 'I' for Inactive)
REMARK    1  A    between atoms: C_1  and  C_2
REMARK    2  A    between atoms: C_5  and  C_6
REMARK    3  A    between atoms: N_8  and  C_9
REMARK    4  A    between atoms: C_9  and  C_10
REMARK    5  A    between atoms: C_13  and  C_14
REMARK    6  A    between atoms: C_14  and  N_15
REMARK    7  A    between atoms: C_16  and  C_18
REMARK                            x       y       z     vdW  Elec       q    Type
REMARK                         _______ _______ _______ _____ _____    ______ ____
ROOT
ATOM      1  C   UNL     1      44.894   6.266  11.446  0.00  0.00    +0.000 A 
ATOM      2  C   UNL     1      44.707   7.656  11.459  0.00  0.00    +0.000 A 
ATOM      3  C   UNL     1      45.506   8.477  12.265  0.00  0.00    +0.000 A 
ATOM      4  C   UNL     1      46.519   7.928  13.061  0.00  0.00    +0.000 A 
ATOM      5  C   UNL     1      46.684   6.536  13.072  0.00  0.00    +0.000 A 
ATOM      6  C   UNL     1      45.888   5.716  12.265  0.00  0.00    +0.000 A 
ENDROOT
BRANCH   1   7
ATOM      7  C   UNL     1      44.038   5.383  10.578  0.00  0.00    +0.000 C 
BRANCH   7  10
ATOM      8  C   UNL     1      44.672   3.349   9.384  0.00  0.00    +0.000 C 
ATOM      9  O   UNL     1      43.949   2.643  10.081  0.00  0.00    +0.000 OA
ATOM     10  N   UNL     1      44.782   4.709   9.541  0.00  0.00    +0.000 N 
ATOM     11  H   UNL     1      45.425   5.214   8.939  0.00  0.00    +0.000 HD
BRANCH   8  16
ATOM     12  C   UNL     1      47.280   2.847   5.158  0.00  0.00    +0.000 C 
ATOM     13  C   UNL     1      46.629   2.603   6.478  0.00  0.00    +0.000 C 
ATOM     14  C   UNL     1      46.781   1.328   7.198  0.00  0.00    +0.000 C 
ATOM     15  C   UNL     1      46.008   1.528   8.382  0.00  0.00    +0.000 C 
ATOM     16  C   UNL     1      45.519   2.776   8.291  0.00  0.00    +0.000 C 
ATOM     17  N   UNL     1      45.884   3.462   7.131  0.00  0.00    +0.000 NA
ENDBRANCH   8  16
ENDBRANCH   7  10
ENDBRANCH   1   7
BRANCH   4  18
ATOM     18  C   UNL     1      47.402   8.807  13.913  0.00  0.00    +0.000 C 
BRANCH  18  19
ATOM     19  N   UNL     1      47.728   8.170  15.164  0.00  0.00    +0.000 N 
ATOM     20  C   UNL     1      49.001   7.738  15.435  0.00  0.00    +0.000 C 
ATOM     21  O   UNL     1      49.934   7.916  14.658  0.00  0.00    +0.000 OA
ATOM     22  H   UNL     1      46.951   7.810  15.707  0.00  0.00    +0.000 HD
BRANCH  20  23
ATOM     23  C   UNL     1      49.207   7.104  16.748  0.00  0.00    +0.000 A 
ATOM     24  C   UNL     1      49.865   5.884  16.828  0.00  0.00    +0.000 A 
ATOM     25  S   UNL     1      50.073   5.322  18.425  0.00  0.00    +0.000 S 
ATOM     26  C   UNL     1      49.239   6.662  19.063  0.00  0.00    +0.000 A 
ATOM     27  N   UNL     1      49.037   6.787  20.402  0.00  0.00    +0.000 NA
ATOM     28  C   UNL     1      48.364   7.834  20.745  0.00  0.00    +0.000 A 
ATOM     29  N   UNL     1      47.879   8.771  19.868  0.00  0.00    +0.000 N 
ATOM     30  C   UNL     1      48.082   8.701  18.513  0.00  0.00    +0.000 A 
ATOM     31  O   UNL     1      47.666   9.577  17.760  0.00  0.00    +0.000 OA
ATOM     32  C   UNL     1      48.826   7.536  18.072  0.00  0.00    +0.000 A 
ATOM     33  H   UNL     1      47.365   9.573  20.202  0.00  0.00    +0.000 HD
ENDBRANCH  20  23
ENDBRANCH  18  19
ENDBRANCH   4  18
TORSDOF 6
ENDMDL
MODEL 4
REMARK VINA RESULT:    -6.953      3.593      4.935
REMARK INTER + INTRA:         -10.438
REMARK INTER:                  -9.304
REMARK INTRA:                  -1.134
REMARK UNBOUND:                -1.047
REMARK  Name = 
REMARK  7 active torsions:
REMARK  status: ('A' for Active; 'I' for Inactive)
REMARK    1  A    between atoms: C_1  and  C_2
REMARK    2  A    between atoms: C_5  and  C_6
REMARK    3  A    between atoms: N_8  and  C_9
REMARK    4  A    between atoms: C_9  and  C_10
REMARK    5  A    between atoms: C_13  and  C_14
REMARK    6  A    between atoms: C_14  and  N_15
REMARK    7  A    between atoms: C_16  and  C_18
REMARK                            x       y       z     vdW  Elec       q    Type
REMARK                         _______ _______ _______ _____ _____    ______ ____
ROOT
ATOM      1  C   UNL     1      45.396   6.756  11.901  0.00  0.00    +0.000 A 
ATOM      2  C   UNL     1      45.172   8.091  12.267  0.00  0.00    +0.000 A 
ATOM      3  C   UNL     1      46.080   8.768  13.091  0.00  0.00    +0.000 A 
ATOM      4  C   UNL     1      47.239   8.130  13.551  0.00  0.00    +0.000 A 
ATOM      5  C   UNL     1      47.446   6.787  13.211  0.00  0.00    +0.000 A 
ATOM      6  C   UNL     1      46.540   6.111  12.385  0.00  0.00    +0.000 A 
ENDROOT
BRANCH   1   7
ATOM      7  C   UNL     1      44.422   6.028  11.013  0.00  0.00    +0.000 C 
BRANCH   7  10
ATOM      8  C   UNL     1      44.570   3.981   9.689  0.00  0.00    +0.000 C 
ATOM      9  O   UNL     1      43.577   3.494  10.223  0.00  0.00    +0.000 OA
ATOM     10  N   UNL     1      45.064   5.225  10.000  0.00  0.00    +0.000 N 
ATOM     11  H   UNL     1      45.907   5.540   9.531  0.00  0.00    +0.000 HD
BRANCH   8  16
ATOM     12  C   UNL     1      47.120   2.907   5.535  0.00  0.00    +0.000 C 
ATOM     13  C   UNL     1      46.437   2.826   6.859  0.00  0.00    +0.000 C 
ATOM     14  C   UNL     1      46.432   1.589   7.659  0.00  0.00    +0.000 C 
ATOM     15  C   UNL     1      45.683   1.954   8.818  0.00  0.00    +0.000 C 
ATOM     16  C   UNL     1      45.348   3.244   8.644  0.00  0.00    +0.000 C 
ATOM     17  N   UNL     1      45.797   3.807   7.449  0.00  0.00    +0.000 NA
ENDBRANCH   8  16
ENDBRANCH   7  10
ENDBRANCH   1   7
BRANCH   4  18
ATOM     18  C   UNL     1      48.237   8.859  14.418  0.00  0.00    +0.000 C 
BRANCH  18  19
ATOM     19  N   UNL     1      49.574   8.742  13.893  0.00  0.00    +0.000 N 
ATOM     20  C   UNL     1      50.219   9.815  13.335  0.00  0.00    +0.000 C 
ATOM     21  O   UNL     1      49.720  10.935  13.299  0.00  0.00    +0.000 OA
ATOM     22  H   UNL     1      49.907   7.803  13.703  0.00  0.00    +0.000 HD
BRANCH  20  23
ATOM     23  C   UNL     1      51.582   9.567  12.836  0.00  0.00    +0.000 A 
ATOM     24  C   UNL     1      52.639  10.334  13.308  0.00  0.00    +0.000 A 
ATOM     25  S   UNL     1      54.155   9.873  12.674  0.00  0.00    +0.000 S 
ATOM     26  C   UNL     1      53.443   8.669  11.703  0.00  0.00    +0.000 A 
ATOM     27  N   UNL     1      54.201   7.901  10.876  0.00  0.00    +0.000 NA
ATOM     28  C   UNL     1      53.531   7.049  10.174  0.00  0.00    +0.000 A 
ATOM     29  N   UNL     1      52.169   6.894  10.230  0.00  0.00    +0.000 N 
ATOM     30  C   UNL     1      51.368   7.625  11.070  0.00  0.00    +0.000 A 
ATOM     31  O   UNL     1      50.156   7.434  11.123  0.00  0.00    +0.000 OA
ATOM     32  C   UNL     1      52.072   8.607  11.875  0.00  0.00    +0.000 A 
ATOM     33  H   UNL     1      51.704   6.202   9.660  0.00  0.00    +0.000 HD
ENDBRANCH  20  23
ENDBRANCH  18  19
ENDBRANCH   4  18
TORSDOF 6
ENDMDL
MODEL 5
REMARK VINA RESULT:    -6.886      4.098      8.645
REMARK INTER + INTRA:         -10.348
REMARK INTER:                  -9.278
REMARK INTRA:                  -1.070
REMARK UNBOUND:                -1.047
REMARK  Name = 
REMARK  7 active torsions:
REMARK  status: ('A' for Active; 'I' for Inactive)
REMARK    1  A    between atoms: C_1  and  C_2
REMARK    2  A    between atoms: C_5  and  C_6
REMARK    3  A    between atoms: N_8  and  C_9
REMARK    4  A    between atoms: C_9  and  C_10
REMARK    5  A    between atoms: C_13  and  C_14
REMARK    6  A    between atoms: C_14  and  N_15
REMARK    7  A    between atoms: C_16  and  C_18
REMARK                            x       y       z     vdW  Elec       q    Type
REMARK                         _______ _______ _______ _____ _____    ______ ____
ROOT
ATOM      1  C   UNL     1      49.687   4.607  17.595  0.00  0.00    +0.000 A 
ATOM      2  C   UNL     1      48.477   4.360  16.932  0.00  0.00    +0.000 A 
ATOM      3  C   UNL     1      48.015   5.233  15.939  0.00  0.00    +0.000 A 
ATOM      4  C   UNL     1      48.761   6.362  15.577  0.00  0.00    +0.000 A 
ATOM      5  C   UNL     1      49.954   6.625  16.263  0.00  0.00    +0.000 A 
ATOM      6  C   UNL     1      50.418   5.752  17.253  0.00  0.00    +0.000 A 
ENDROOT
BRANCH   1   7
ATOM      7  C   UNL     1      50.187   3.668  18.660  0.00  0.00    +0.000 C 
BRANCH   7  10
ATOM      8  C   UNL     1      51.634   1.993  17.629  0.00  0.00    +0.000 C 
ATOM      9  O   UNL     1      50.685   1.381  17.150  0.00  0.00    +0.000 OA
ATOM     10  N   UNL     1      51.499   3.135  18.381  0.00  0.00    +0.000 N 
ATOM     11  H   UNL     1      52.336   3.562  18.764  0.00  0.00    +0.000 HD
BRANCH   8  16
ATOM     12  C   UNL     1      55.616  -0.816  16.547  0.00  0.00    +0.000 C 
ATOM     13  C   UNL     1      54.722   0.304  16.963  0.00  0.00    +0.000 C 
ATOM     14  C   UNL     1      55.254   1.613  17.377  0.00  0.00    +0.000 C 
ATOM     15  C   UNL     1      54.077   2.361  17.683  0.00  0.00    +0.000 C 
ATOM     16  C   UNL     1      53.047   1.533  17.442  0.00  0.00    +0.000 C 
ATOM     17  N   UNL     1      53.412   0.262  16.997  0.00  0.00    +0.000 NA
ENDBRANCH   8  16
ENDBRANCH   7  10
ENDBRANCH   1   7
BRANCH   4  18
ATOM     18  C   UNL     1      48.283   7.294  14.491  0.00  0.00    +0.000 C 
BRANCH  18  19
ATOM     19  N   UNL     1      47.042   6.840  13.916  0.00  0.00    +0.000 N 
ATOM     20  C   UNL     1      46.882   6.729  12.559  0.00  0.00    +0.000 C 
ATOM     21  O   UNL     1      47.792   6.957  11.769  0.00  0.00    +0.000 OA
ATOM     22  H   UNL     1      46.225   6.872  14.516  0.00  0.00    +0.000 HD
BRANCH  20  23
ATOM     23  C   UNL     1      45.567   6.255  12.096  0.00  0.00    +0.000 A 
ATOM     24  C   UNL     1      44.677   7.148  11.516  0.00  0.00    +0.000 A 
ATOM     25  S   UNL     1      43.229   6.421  10.981  0.00  0.00    +0.000 S 
ATOM     26  C   UNL     1      43.717   4.896  11.558  0.00  0.00    +0.000 A 
ATOM     27  N   UNL     1      42.907   3.811  11.436  0.00  0.00    +0.000 NA
ATOM     28  C   UNL     1      43.389   2.725  11.944  0.00  0.00    +0.000 A 
ATOM     29  N   UNL     1      44.612   2.628  12.558  0.00  0.00    +0.000 N 
ATOM     30  C   UNL     1      45.473   3.688  12.678  0.00  0.00    +0.000 A 
ATOM     31  O   UNL     1      46.577   3.557  13.201  0.00  0.00    +0.000 OA
ATOM     32  C   UNL     1      44.976   4.938  12.132  0.00  0.00    +0.000 A 
ATOM     33  H   UNL     1      44.934   1.746  12.929  0.00  0.00    +0.000 HD
ENDBRANCH  20  23
ENDBRANCH  18  19
ENDBRANCH   4  18
TORSDOF 6
ENDMDL
MODEL 6
REMARK VINA RESULT:    -6.738      4.909      7.514
REMARK INTER + INTRA:         -10.148
REMARK INTER:                  -9.209
REMARK INTRA:                  -0.939
REMARK UNBOUND:                -1.047
REMARK  Name = 
REMARK  7 active torsions:
REMARK  status: ('A' for Active; 'I' for Inactive)
REMARK    1  A    between atoms: C_1  and  C_2
REMARK    2  A    between atoms: C_5  and  C_6
REMARK    3  A    between atoms: N_8  and  C_9
REMARK    4  A    between atoms: C_9  and  C_10
REMARK    5  A    between atoms: C_13  and  C_14
REMARK    6  A    between atoms: C_14  and  N_15
REMARK    7  A    between atoms: C_16  and  C_18
REMARK                            x       y       z     vdW  Elec       q    Type
REMARK                         _______ _______ _______ _____ _____    ______ ____
ROOT
ATOM      1  C   UNL     1      50.510   8.791  11.374  0.00  0.00    +0.000 A 
ATOM      2  C   UNL     1      50.092   7.516  11.782  0.00  0.00    +0.000 A 
ATOM      3  C   UNL     1      48.795   7.311  12.268  0.00  0.00    +0.000 A 
ATOM      4  C   UNL     1      47.884   8.372  12.342  0.00  0.00    +0.000 A 
ATOM      5  C   UNL     1      48.313   9.651  11.964  0.00  0.00    +0.000 A 
ATOM      6  C   UNL     1      49.608   9.857  11.475  0.00  0.00    +0.000 A 
ENDROOT
BRANCH   1   7
ATOM      7  C   UNL     1      51.903   9.013  10.848  0.00  0.00    +0.000 C 
BRANCH   7  10
ATOM      8  C   UNL     1      53.342   7.203  10.061  0.00  0.00    +0.000 C 
ATOM      9  O   UNL     1      53.990   7.185  11.103  0.00  0.00    +0.000 OA
ATOM     10  N   UNL     1      52.290   8.058   9.837  0.00  0.00    +0.000 N 
ATOM     11  H   UNL     1      51.826   8.027   8.935  0.00  0.00    +0.000 HD
BRANCH   8  16
ATOM     12  C   UNL     1      55.348   3.560   7.300  0.00  0.00    +0.000 C 
ATOM     13  C   UNL     1      54.532   4.716   7.774  0.00  0.00    +0.000 C 
ATOM     14  C   UNL     1      53.524   5.362   6.916  0.00  0.00    +0.000 C 
ATOM     15  C   UNL     1      52.999   6.395   7.751  0.00  0.00    +0.000 C 
ATOM     16  C   UNL     1      53.655   6.287   8.919  0.00  0.00    +0.000 C 
ATOM     17  N   UNL     1      54.603   5.264   8.964  0.00  0.00    +0.000 NA
ENDBRANCH   8  16
ENDBRANCH   7  10
ENDBRANCH   1   7
BRANCH   4  18
ATOM     18  C   UNL     1      46.476   8.155  12.840  0.00  0.00    +0.000 C 
BRANCH  18  19
ATOM     19  N   UNL     1      46.011   6.825  12.540  0.00  0.00    +0.000 N 
ATOM     20  C   UNL     1      44.966   6.611  11.678  0.00  0.00    +0.000 C 
ATOM     21  O   UNL     1      44.411   7.526  11.081  0.00  0.00    +0.000 OA
ATOM     22  H   UNL     1      46.289   6.090  13.182  0.00  0.00    +0.000 HD
BRANCH  20  23
ATOM     23  C   UNL     1      44.586   5.206  11.454  0.00  0.00    +0.000 A 
ATOM     24  C   UNL     1      43.857   4.527  12.421  0.00  0.00    +0.000 A 
ATOM     25  S   UNL     1      43.448   2.932  11.974  0.00  0.00    +0.000 S 
ATOM     26  C   UNL     1      44.280   3.074  10.496  0.00  0.00    +0.000 A 
ATOM     27  N   UNL     1      44.341   2.031   9.626  0.00  0.00    +0.000 NA
ATOM     28  C   UNL     1      45.030   2.266   8.559  0.00  0.00    +0.000 A 
ATOM     29  N   UNL     1      45.658   3.454   8.282  0.00  0.00    +0.000 N 
ATOM     30  C   UNL     1      45.599   4.541   9.116  0.00  0.00    +0.000 A 
ATOM     31  O   UNL     1      46.141   5.602   8.819  0.00  0.00    +0.000 OA
ATOM     32  C   UNL     1      44.844   4.328  10.337  0.00  0.00    +0.000 A 
ATOM     33  H   UNL     1      46.175   3.576   7.424  0.00  0.00    +0.000 HD
ENDBRANCH  20  23
ENDBRANCH  18  19
ENDBRANCH   4  18
TORSDOF 6
ENDMDL
MODEL 7
REMARK VINA RESULT:    -6.564      3.852      8.824
REMARK INTER + INTRA:          -9.913
REMARK INTER:                  -9.153
REMARK INTRA:                  -0.760
REMARK UNBOUND:                -1.047
REMARK  Name = 
REMARK  7 active torsions:
REMARK  status: ('A' for Active; 'I' for Inactive)
REMARK    1  A    between atoms: C_1  and  C_2
REMARK    2  A    between atoms: C_5  and  C_6
REMARK    3  A    between atoms: N_8  and  C_9
REMARK    4  A    between atoms: C_9  and  C_10
REMARK    5  A    between atoms: C_13  and  C_14
REMARK    6  A    between atoms: C_14  and  N_15
REMARK    7  A    between atoms: C_16  and  C_18
REMARK                            x       y       z     vdW  Elec       q    Type
REMARK                         _______ _______ _______ _____ _____    ______ ____
ROOT
ATOM      1  C   UNL     1      49.191   5.312  17.185  0.00  0.00    +0.000 A 
ATOM      2  C   UNL     1      49.989   6.347  16.678  0.00  0.00    +0.000 A 
ATOM      3  C   UNL     1      49.687   6.945  15.448  0.00  0.00    +0.000 A 
ATOM      4  C   UNL     1      48.572   6.533  14.708  0.00  0.00    +0.000 A 
ATOM      5  C   UNL     1      47.794   5.476  15.201  0.00  0.00    +0.000 A 
ATOM      6  C   UNL     1      48.094   4.880  16.430  0.00  0.00    +0.000 A 
ENDROOT
BRANCH   1   7
ATOM      7  C   UNL     1      49.513   4.669  18.508  0.00  0.00    +0.000 C 
BRANCH   7  10
ATOM      8  C   UNL     1      51.145   2.999  17.793  0.00  0.00    +0.000 C 
ATOM      9  O   UNL     1      50.347   2.458  17.033  0.00  0.00    +0.000 OA
ATOM     10  N   UNL     1      50.838   4.098  18.558  0.00  0.00    +0.000 N 
ATOM     11  H   UNL     1      51.549   4.466  19.181  0.00  0.00    +0.000 HD
BRANCH   8  16
ATOM     12  C   UNL     1      55.046  -0.009  18.598  0.00  0.00    +0.000 C 
ATOM     13  C   UNL     1      54.183   1.173  18.307  0.00  0.00    +0.000 C 
ATOM     14  C   UNL     1      54.753   2.497  18.003  0.00  0.00    +0.000 C 
ATOM     15  C   UNL     1      53.597   3.309  17.797  0.00  0.00    +0.000 C 
ATOM     16  C   UNL     1      52.543   2.492  17.963  0.00  0.00    +0.000 C 
ATOM     17  N   UNL     1      52.872   1.172  18.278  0.00  0.00    +0.000 NA
ENDBRANCH   8  16
ENDBRANCH   7  10
ENDBRANCH   1   7
BRANCH   4  18
ATOM     18  C   UNL     1      48.223   7.189  13.395  0.00  0.00    +0.000 C 
BRANCH  18  19
ATOM     19  N   UNL     1      47.536   6.277  12.517  0.00  0.00    +0.000 N 
ATOM     20  C   UNL     1      46.304   6.579  11.995  0.00  0.00    +0.000 C 
ATOM     21  O   UNL     1      45.750   7.653  12.202  0.00  0.00    +0.000 OA
ATOM     22  H   UNL     1      47.856   5.314  12.521  0.00  0.00    +0.000 HD
BRANCH  20  23
ATOM     23  C   UNL     1      45.706   5.564  11.111  0.00  0.00    +0.000 A 
ATOM     24  C   UNL     1      45.857   5.673   9.736  0.00  0.00    +0.000 A 
ATOM     25  S   UNL     1      45.157   4.383   8.866  0.00  0.00    +0.000 S 
ATOM     26  C   UNL     1      44.578   3.662  10.296  0.00  0.00    +0.000 A 
ATOM     27  N   UNL     1      43.856   2.511  10.254  0.00  0.00    +0.000 NA
ATOM     28  C   UNL     1      43.454   2.091  11.408  0.00  0.00    +0.000 A 
ATOM     29  N   UNL     1      43.715   2.718  12.600  0.00  0.00    +0.000 N 
ATOM     30  C   UNL     1      44.463   3.864  12.692  0.00  0.00    +0.000 A 
ATOM     31  O   UNL     1      44.709   4.378  13.779  0.00  0.00    +0.000 OA
ATOM     32  C   UNL     1      44.932   4.385  11.421  0.00  0.00    +0.000 A 
ATOM     33  H   UNL     1      43.377   2.333  13.470  0.00  0.00    +0.000 HD
ENDBRANCH  20  23
ENDBRANCH  18  19
ENDBRANCH   4  18
TORSDOF 6
ENDMDL
MODEL 8
REMARK VINA RESULT:    -6.432      3.082      8.788
REMARK INTER + INTRA:          -9.736
REMARK INTER:                  -8.829
REMARK INTRA:                  -0.906
REMARK UNBOUND:                -1.047
REMARK  Name = 
REMARK  7 active torsions:
REMARK  status: ('A' for Active; 'I' for Inactive)
REMARK    1  A    between atoms: C_1  and  C_2
REMARK    2  A    between atoms: C_5  and  C_6
REMARK    3  A    between atoms: N_8  and  C_9
REMARK    4  A    between atoms: C_9  and  C_10
REMARK    5  A    between atoms: C_13  and  C_14
REMARK    6  A    between atoms: C_14  and  N_15
REMARK    7  A    between atoms: C_16  and  C_18
REMARK                            x       y       z     vdW  Elec       q    Type
REMARK                         _______ _______ _______ _____ _____    ______ ____
ROOT
ATOM      1  C   UNL     1      49.476   8.166  14.877  0.00  0.00    +0.000 A 
ATOM      2  C   UNL     1      49.016   9.340  14.263  0.00  0.00    +0.000 A 
ATOM      3  C   UNL     1      47.969   9.297  13.334  0.00  0.00    +0.000 A 
ATOM      4  C   UNL     1      47.350   8.083  13.011  0.00  0.00    +0.000 A 
ATOM      5  C   UNL     1      47.833   6.907  13.600  0.00  0.00    +0.000 A 
ATOM      6  C   UNL     1      48.876   6.949  14.531  0.00  0.00    +0.000 A 
ENDROOT
BRANCH   1   7
ATOM      7  C   UNL     1      50.599   8.211  15.879  0.00  0.00    +0.000 C 
BRANCH   7  10
ATOM      8  C   UNL     1      50.745   6.342  17.443  0.00  0.00    +0.000 C 
ATOM      9  O   UNL     1      50.003   6.886  18.255  0.00  0.00    +0.000 OA
ATOM     10  N   UNL     1      51.095   6.904  16.239  0.00  0.00    +0.000 N 
ATOM     11  H   UNL     1      51.736   6.398  15.638  0.00  0.00    +0.000 HD
BRANCH   8  16
ATOM     12  C   UNL     1      51.574   1.419  17.448  0.00  0.00    +0.000 C 
ATOM     13  C   UNL     1      51.675   2.890  17.677  0.00  0.00    +0.000 C 
ATOM     14  C   UNL     1      52.788   3.487  18.435  0.00  0.00    +0.000 C 
ATOM     15  C   UNL     1      52.489   4.882  18.409  0.00  0.00    +0.000 C 
ATOM     16  C   UNL     1      51.352   4.998  17.703  0.00  0.00    +0.000 C 
ATOM     17  N   UNL     1      50.827   3.790  17.239  0.00  0.00    +0.000 NA
ENDBRANCH   8  16
ENDBRANCH   7  10
ENDBRANCH   1   7
BRANCH   4  18
ATOM     18  C   UNL     1      46.205   8.030  12.030  0.00  0.00    +0.000 C 
BRANCH  18  19
ATOM     19  N   UNL     1      45.850   6.671  11.708  0.00  0.00    +0.000 N 
ATOM     20  C   UNL     1      44.554   6.317  11.434  0.00  0.00    +0.000 C 
ATOM     21  O   UNL     1      43.644   7.138  11.395  0.00  0.00    +0.000 OA
ATOM     22  H   UNL     1      46.523   5.954  11.958  0.00  0.00    +0.000 HD
BRANCH  20  23
ATOM     23  C   UNL     1      44.321   4.897  11.120  0.00  0.00    +0.000 A 
ATOM     24  C   UNL     1      43.558   4.118  11.979  0.00  0.00    +0.000 A 
ATOM     25  S   UNL     1      43.336   2.516  11.434  0.00  0.00    +0.000 S 
ATOM     26  C   UNL     1      44.299   2.793  10.058  0.00  0.00    +0.000 A 
ATOM     27  N   UNL     1      44.538   1.799   9.162  0.00  0.00    +0.000 NA
ATOM     28  C   UNL     1      45.309   2.137   8.182  0.00  0.00    +0.000 A 
ATOM     29  N   UNL     1      45.857   3.384   8.017  0.00  0.00    +0.000 N 
ATOM     30  C   UNL     1      45.620   4.424   8.879  0.00  0.00    +0.000 A 
ATOM     31  O   UNL     1      46.096   5.538   8.680  0.00  0.00    +0.000 OA
ATOM     32  C   UNL     1      44.766   4.094  10.005  0.00  0.00    +0.000 A 
ATOM     33  H   UNL     1      46.447   3.586   7.223  0.00  0.00    +0.000 HD
ENDBRANCH  20  23
ENDBRANCH  18  19
ENDBRANCH   4  18
TORSDOF 6
ENDMDL
MODEL 9
REMARK VINA RESULT:    -6.314      2.215      2.949
REMARK INTER + INTRA:          -9.575
REMARK INTER:                  -8.806
REMARK INTRA:                  -0.769
REMARK UNBOUND:                -1.047
REMARK  Name = 
REMARK  7 active torsions:
REMARK  status: ('A' for Active; 'I' for Inactive)
REMARK    1  A    between atoms: C_1  and  C_2
REMARK    2  A    between atoms: C_5  and  C_6
REMARK    3  A    between atoms: N_8  and  C_9
REMARK    4  A    between atoms: C_9  and  C_10
REMARK    5  A    between atoms: C_13  and  C_14
REMARK    6  A    between atoms: C_14  and  N_15
REMARK    7  A    between atoms: C_16  and  C_18
REMARK                            x       y       z     vdW  Elec       q    Type
REMARK                         _______ _______ _______ _____ _____    ______ ____
ROOT
ATOM      1  C   UNL     1      45.772   7.285  12.294  0.00  0.00    +0.000 A 
ATOM      2  C   UNL     1      46.581   6.353  12.960  0.00  0.00    +0.000 A 
ATOM      3  C   UNL     1      47.618   6.778  13.799  0.00  0.00    +0.000 A 
ATOM      4  C   UNL     1      47.858   8.142  14.003  0.00  0.00    +0.000 A 
ATOM      5  C   UNL     1      47.070   9.073  13.312  0.00  0.00    +0.000 A 
ATOM      6  C   UNL     1      46.031   8.649  12.476  0.00  0.00    +0.000 A 
ENDROOT
BRANCH   1   7
ATOM      7  C   UNL     1      44.654   6.829  11.394  0.00  0.00    +0.000 C 
BRANCH   7  10
ATOM      8  C   UNL     1      44.605   4.609  10.380  0.00  0.00    +0.000 C 
ATOM      9  O   UNL     1      43.800   4.185  11.204  0.00  0.00    +0.000 OA
ATOM     10  N   UNL     1      45.083   5.897  10.379  0.00  0.00    +0.000 N 
ATOM     11  H   UNL     1      45.769   6.157   9.678  0.00  0.00    +0.000 HD
BRANCH   8  16
ATOM     12  C   UNL     1      46.670   3.083   6.099  0.00  0.00    +0.000 C 
ATOM     13  C   UNL     1      46.045   3.128   7.453  0.00  0.00    +0.000 C 
ATOM     14  C   UNL     1      45.799   1.907   8.238  0.00  0.00    +0.000 C 
ATOM     15  C   UNL     1      45.201   2.404   9.435  0.00  0.00    +0.000 C 
ATOM     16  C   UNL     1      45.153   3.739   9.291  0.00  0.00    +0.000 C 
ATOM     17  N   UNL     1      45.665   4.214   8.082  0.00  0.00    +0.000 NA
ENDBRANCH   8  16
ENDBRANCH   7  10
ENDBRANCH   1   7
BRANCH   4  18
ATOM     18  C   UNL     1      48.957   8.610  14.926  0.00  0.00    +0.000 C 
BRANCH  18  19
ATOM     19  N   UNL     1      49.305   7.594  15.887  0.00  0.00    +0.000 N 
ATOM     20  C   UNL     1      50.315   7.784  16.793  0.00  0.00    +0.000 C 
ATOM     21  O   UNL     1      50.938   8.838  16.870  0.00  0.00    +0.000 OA
ATOM     22  H   UNL     1      48.974   6.654  15.695  0.00  0.00    +0.000 HD
BRANCH  20  23
ATOM     23  C   UNL     1      50.573   6.671  17.723  0.00  0.00    +0.000 A 
ATOM     24  C   UNL     1      49.642   6.366  18.707  0.00  0.00    +0.000 A 
ATOM     25  S   UNL     1      50.068   5.012  19.654  0.00  0.00    +0.000 S 
ATOM     26  C   UNL     1      51.539   4.822  18.819  0.00  0.00    +0.000 A 
ATOM     27  N   UNL     1      52.411   3.835  19.157  0.00  0.00    +0.000 NA
ATOM     28  C   UNL     1      53.500   3.824  18.463  0.00  0.00    +0.000 A 
ATOM     29  N   UNL     1      53.792   4.710  17.456  0.00  0.00    +0.000 N 
ATOM     30  C   UNL     1      52.930   5.702  17.062  0.00  0.00    +0.000 A 
ATOM     31  O   UNL     1      53.207   6.454  16.132  0.00  0.00    +0.000 OA
ATOM     32  C   UNL     1      51.693   5.765  17.818  0.00  0.00    +0.000 A 
ATOM     33  H   UNL     1      54.660   4.643  16.946  0.00  0.00    +0.000 HD
ENDBRANCH  20  23
ENDBRANCH  18  19
ENDBRANCH   4  18
TORSDOF 6
ENDMDL
