MODEL 1
REMARK VINA RESULT:    -8.682      0.000      0.000
REMARK INTER + INTRA:         -12.748
REMARK INTER:                 -11.727
REMARK INTRA:                  -1.021
REMARK UNBOUND:                -1.021
REMARK  Name = 
REMARK  6 active torsions:
REMARK  status: ('A' for Active; 'I' for Inactive)
REMARK    1  A    between atoms: C_2  and  C_25
REMARK    2  A    between atoms: N_3  and  C_4
REMARK    3  A    between atoms: C_4  and  C_5
REMARK    4  A    between atoms: C_8  and  C_9
REMARK    5  A    between atoms: C_9  and  N_10
REMARK    6  A    between atoms: C_11  and  C_13
REMARK                            x       y       z     vdW  Elec       q    Type
REMARK                         _______ _______ _______ _____ _____    ______ ____
ROOT
ATOM      1  C   UNL     1      44.867   6.190  11.213  0.00  0.00    +0.000 A 
ATOM      2  C   UNL     1      44.442   7.445  11.651  0.00  0.00    +0.000 A 
ATOM      3  C   UNL     1      45.276   8.190  12.486  0.00  0.00    +0.000 A 
ATOM      4  C   UNL     1      46.522   7.685  12.853  0.00  0.00    +0.000 A 
ATOM      5  C   UNL     1      46.856   6.419  12.379  0.00  0.00    +0.000 A 
ATOM      6  N   UNL     1      46.071   5.672  11.566  0.00  0.00    +0.000 NA
ENDROOT
BRANCH   1   7
ATOM      7  C   UNL     1      43.984   5.358  10.312  0.00  0.00    +0.000 C 
BRANCH   7  10
ATOM      8  O   UNL     1      44.257   2.586  10.143  0.00  0.00    +0.000 OA
ATOM      9  C   UNL     1      44.834   3.285   9.312  0.00  0.00    +0.000 C 
ATOM     10  N   UNL     1      44.727   4.658   9.290  0.00  0.00    +0.000 N 
ATOM     11  H   UNL     1      45.349   5.171   8.671  0.00  0.00    +0.000 HD
BRANCH   9  12
ATOM     12  C   UNL     1      45.685   2.654   8.254  0.00  0.00    +0.000 A 
ATOM     13  C   UNL     1      46.052   3.417   7.150  0.00  0.00    +0.000 A 
ATOM     14  C   UNL     1      46.860   2.837   6.178  0.00  0.00    +0.000 A 
ATOM     15  C   UNL     1      47.267   1.519   6.342  0.00  0.00    +0.000 A 
ATOM     16  C   UNL     1      46.852   0.831   7.479  0.00  0.00    +0.000 A 
ATOM     17  N   UNL     1      46.071   1.364   8.444  0.00  0.00    +0.000 NA
ENDBRANCH   9  12
ENDBRANCH   7  10
ENDBRANCH   1   7
BRANCH   4  18
ATOM     18  C   UNL     1      47.469   8.439  13.745  0.00  0.00    +0.000 C 
BRANCH  18  19
ATOM     19  N   UNL     1      47.817   7.670  14.913  0.00  0.00    +0.000 N 
ATOM     20  C   UNL     1      49.025   7.025  15.019  0.00  0.00    +0.000 C 
ATOM     21  O   UNL     1      49.889   7.110  14.150  0.00  0.00    +0.000 OA
ATOM     22  H   UNL     1      47.054   7.376  15.513  0.00  0.00    +0.000 HD
BRANCH  20  23
ATOM     23  C   UNL     1      49.251   6.271  16.258  0.00  0.00    +0.000 A 
ATOM     24  C   UNL     1      50.254   6.660  17.138  0.00  0.00    +0.000 A 
ATOM     25  S   UNL     1      50.340   5.700  18.545  0.00  0.00    +0.000 S 
ATOM     26  C   UNL     1      49.076   4.697  18.006  0.00  0.00    +0.000 A 
ATOM     27  N   UNL     1      48.660   3.630  18.743  0.00  0.00    +0.000 NA
ATOM     28  C   UNL     1      47.715   2.941  18.199  0.00  0.00    +0.000 A 
ATOM     29  N   UNL     1      47.139   3.224  16.987  0.00  0.00    +0.000 N 
ATOM     30  C   UNL     1      47.498   4.312  16.229  0.00  0.00    +0.000 A 
ATOM     31  O   UNL     1      46.920   4.577  15.180  0.00  0.00    +0.000 OA
ATOM     32  C   UNL     1      48.576   5.107  16.784  0.00  0.00    +0.000 A 
ATOM     33  H   UNL     1      46.388   2.656  16.623  0.00  0.00    +0.000 HD
ENDBRANCH  20  23
ENDBRANCH  18  19
ENDBRANCH   4  18
TORSDOF 6
ENDMDL
MODEL 2
REMARK VINA RESULT:    -7.755      1.982      2.421
REMARK INTER + INTRA:         -11.496
REMARK INTER:                 -10.556
REMARK INTRA:                  -0.940
REMARK UNBOUND:                -1.021
REMARK  Name = 
REMARK  6 active torsions:
REMARK  status: ('A' for Active; 'I' for Inactive)
REMARK    1  A    between atoms: C_2  and  C_25
REMARK    2  A    between atoms: N_3  and  C_4
REMARK    3  A    between atoms: C_4  and  C_5
REMARK    4  A    between atoms: C_8  and  C_9
REMARK    5  A    between atoms: C_9  and  N_10
REMARK    6  A    between atoms: C_11  and  C_13
REMARK                            x       y       z     vdW  Elec       q    Type
REMARK                         _______ _______ _______ _____ _____    ______ ____
ROOT
ATOM      1  C   UNL     1      45.286   6.281  11.515  0.00  0.00    +0.000 A 
ATOM      2  C   UNL     1      44.963   7.548  12.003  0.00  0.00    +0.000 A 
ATOM      3  C   UNL     1      45.843   8.180  12.882  0.00  0.00    +0.000 A 
ATOM      4  C   UNL     1      47.034   7.553  13.244  0.00  0.00    +0.000 A 
ATOM      5  C   UNL     1      47.266   6.284  12.718  0.00  0.00    +0.000 A 
ATOM      6  N   UNL     1      46.434   5.646  11.861  0.00  0.00    +0.000 NA
ENDROOT
BRANCH   1   7
ATOM      7  C   UNL     1      44.351   5.570  10.564  0.00  0.00    +0.000 C 
BRANCH   7  10
ATOM      8  O   UNL     1      44.235   2.843   9.983  0.00  0.00    +0.000 OA
ATOM      9  C   UNL     1      44.953   3.561   9.290  0.00  0.00    +0.000 C 
ATOM     10  N   UNL     1      45.044   4.923   9.475  0.00  0.00    +0.000 N 
ATOM     11  H   UNL     1      45.769   5.422   8.963  0.00  0.00    +0.000 HD
BRANCH   9  12
ATOM     12  C   UNL     1      45.765   2.971   8.180  0.00  0.00    +0.000 A 
ATOM     13  C   UNL     1      46.180   1.648   8.285  0.00  0.00    +0.000 A 
ATOM     14  C   UNL     1      46.917   1.095   7.244  0.00  0.00    +0.000 A 
ATOM     15  C   UNL     1      47.214   1.883   6.139  0.00  0.00    +0.000 A 
ATOM     16  C   UNL     1      46.757   3.197   6.117  0.00  0.00    +0.000 A 
ATOM     17  N   UNL     1      46.037   3.766   7.110  0.00  0.00    +0.000 NA
ENDBRANCH   9  12
ENDBRANCH   7  10
ENDBRANCH   1   7
BRANCH   4  18
ATOM     18  C   UNL     1      48.026   8.181  14.183  0.00  0.00    +0.000 C 
BRANCH  18  19
ATOM     19  N   UNL     1      47.991   7.557  15.482  0.00  0.00    +0.000 N 
ATOM     20  C   UNL     1      49.037   6.797  15.946  0.00  0.00    +0.000 C 
ATOM     21  O   UNL     1      50.072   6.650  15.303  0.00  0.00    +0.000 OA
ATOM     22  H   UNL     1      47.080   7.446  15.913  0.00  0.00    +0.000 HD
BRANCH  20  23
ATOM     23  C   UNL     1      48.870   6.213  17.282  0.00  0.00    +0.000 A 
ATOM     24  C   UNL     1      49.179   4.876  17.502  0.00  0.00    +0.000 A 
ATOM     25  S   UNL     1      48.971   4.383  19.122  0.00  0.00    +0.000 S 
ATOM     26  C   UNL     1      48.411   5.923  19.578  0.00  0.00    +0.000 A 
ATOM     27  N   UNL     1      48.022   6.181  20.857  0.00  0.00    +0.000 NA
ATOM     28  C   UNL     1      47.592   7.381  21.053  0.00  0.00    +0.000 A 
ATOM     29  N   UNL     1      47.523   8.354  20.089  0.00  0.00    +0.000 N 
ATOM     30  C   UNL     1      47.942   8.152  18.796  0.00  0.00    +0.000 A 
ATOM     31  O   UNL     1      47.928   9.060  17.972  0.00  0.00    +0.000 OA
ATOM     32  C   UNL     1      48.411   6.809  18.516  0.00  0.00    +0.000 A 
ATOM     33  H   UNL     1      47.193   9.282  20.310  0.00  0.00    +0.000 HD
ENDBRANCH  20  23
ENDBRANCH  18  19
ENDBRANCH   4  18
TORSDOF 6
ENDMDL
MODEL 3
REMARK VINA RESULT:    -7.288      1.955      2.789
REMARK INTER + INTRA:         -10.866
REMARK INTER:                  -9.894
REMARK INTRA:                  -0.971
REMARK UNBOUND:                -1.021
REMARK  Name = 
REMARK  6 active torsions:
REMARK  status: ('A' for Active; 'I' for Inactive)
REMARK    1  A    between atoms: C_2  and  C_25
REMARK    2  A    between atoms: N_3  and  C_4
REMARK    3  A    between atoms: C_4  and  C_5
REMARK    4  A    between atoms: C_8  and  C_9
REMARK    5  A    between atoms: C_9  and  N_10
REMARK    6  A    between atoms: C_11  and  C_13
REMARK                            x       y       z     vdW  Elec       q    Type
REMARK                         _______ _______ _______ _____ _____    ______ ____
ROOT
ATOM      1  C   UNL     1      45.298   6.468  11.682  0.00  0.00    +0.000 A 
ATOM      2  C   UNL     1      45.018   7.781  12.065  0.00  0.00    +0.000 A 
ATOM      3  C   UNL     1      45.919   8.454  12.890  0.00  0.00    +0.000 A 
ATOM      4  C   UNL     1      47.090   7.819  13.304  0.00  0.00    +0.000 A 
ATOM      5  C   UNL     1      47.279   6.505  12.885  0.00  0.00    +0.000 A 
ATOM      6  N   UNL     1      46.425   5.826  12.082  0.00  0.00    +0.000 NA
ENDROOT
BRANCH   1   7
ATOM      7  C   UNL     1      44.339   5.713  10.792  0.00  0.00    +0.000 C 
BRANCH   7  10
ATOM      8  O   UNL     1      43.858   3.021  10.236  0.00  0.00    +0.000 OA
ATOM      9  C   UNL     1      44.729   3.607   9.595  0.00  0.00    +0.000 C 
ATOM     10  N   UNL     1      45.010   4.943   9.770  0.00  0.00    +0.000 N 
ATOM     11  H   UNL     1      45.839   5.316   9.314  0.00  0.00    +0.000 HD
BRANCH   9  12
ATOM     12  C   UNL     1      45.527   2.876   8.561  0.00  0.00    +0.000 A 
ATOM     13  C   UNL     1      46.009   3.585   7.465  0.00  0.00    +0.000 A 
ATOM     14  C   UNL     1      46.768   2.909   6.515  0.00  0.00    +0.000 A 
ATOM     15  C   UNL     1      47.015   1.554   6.694  0.00  0.00    +0.000 A 
ATOM     16  C   UNL     1      46.495   0.925   7.821  0.00  0.00    +0.000 A 
ATOM     17  N   UNL     1      45.756   1.551   8.765  0.00  0.00    +0.000 NA
ENDBRANCH   9  12
ENDBRANCH   7  10
ENDBRANCH   1   7
BRANCH   4  18
ATOM     18  C   UNL     1      48.103   8.489  14.190  0.00  0.00    +0.000 C 
BRANCH  18  19
ATOM     19  N   UNL     1      48.927   7.524  14.873  0.00  0.00    +0.000 N 
ATOM     20  C   UNL     1      48.975   7.457  16.244  0.00  0.00    +0.000 C 
ATOM     21  O   UNL     1      48.283   8.179  16.957  0.00  0.00    +0.000 OA
ATOM     22  H   UNL     1      49.680   7.103  14.339  0.00  0.00    +0.000 HD
BRANCH  20  23
ATOM     23  C   UNL     1      49.860   6.434  16.813  0.00  0.00    +0.000 A 
ATOM     24  C   UNL     1      49.336   5.427  17.614  0.00  0.00    +0.000 A 
ATOM     25  S   UNL     1      50.501   4.300  18.146  0.00  0.00    +0.000 S 
ATOM     26  C   UNL     1      51.757   5.146  17.370  0.00  0.00    +0.000 A 
ATOM     27  N   UNL     1      53.048   4.724  17.454  0.00  0.00    +0.000 NA
ATOM     28  C   UNL     1      53.897   5.478  16.842  0.00  0.00    +0.000 A 
ATOM     29  N   UNL     1      53.574   6.613  16.144  0.00  0.00    +0.000 N 
ATOM     30  C   UNL     1      52.282   7.055  15.998  0.00  0.00    +0.000 A 
ATOM     31  O   UNL     1      52.017   8.037  15.314  0.00  0.00    +0.000 OA
ATOM     32  C   UNL     1      51.289   6.256  16.690  0.00  0.00    +0.000 A 
ATOM     33  H   UNL     1      54.285   7.152  15.670  0.00  0.00    +0.000 HD
ENDBRANCH  20  23
ENDBRANCH  18  19
ENDBRANCH   4  18
TORSDOF 6
ENDMDL
MODEL 4
REMARK VINA RESULT:    -7.133      3.197      8.577
REMARK INTER + INTRA:         -10.655
REMARK INTER:                  -9.873
REMARK INTRA:                  -0.782
REMARK UNBOUND:                -1.021
REMARK  Name = 
REMARK  6 active torsions:
REMARK  status: ('A' for Active; 'I' for Inactive)
REMARK    1  A    between atoms: C_2  and  C_25
REMARK    2  A    between atoms: N_3  and  C_4
REMARK    3  A    between atoms: C_4  and  C_5
REMARK    4  A    between atoms: C_8  and  C_9
REMARK    5  A    between atoms: C_9  and  N_10
REMARK    6  A    between atoms: C_11  and  C_13
REMARK                            x       y       z     vdW  Elec       q    Type
REMARK                         _______ _______ _______ _____ _____    ______ ____
ROOT
ATOM      1  C   UNL     1      49.842   7.467  15.438  0.00  0.00    +0.000 A 
ATOM      2  C   UNL     1      49.790   8.697  14.780  0.00  0.00    +0.000 A 
ATOM      3  C   UNL     1      48.920   8.852  13.700  0.00  0.00    +0.000 A 
ATOM      4  C   UNL     1      48.106   7.792  13.306  0.00  0.00    +0.000 A 
ATOM      5  C   UNL     1      48.235   6.598  14.012  0.00  0.00    +0.000 A 
ATOM      6  N   UNL     1      49.067   6.417  15.066  0.00  0.00    +0.000 NA
ENDROOT
BRANCH   1   7
ATOM      7  C   UNL     1      50.776   7.269  16.609  0.00  0.00    +0.000 C 
BRANCH   7  10
ATOM      8  O   UNL     1      49.708   5.263  18.229  0.00  0.00    +0.000 OA
ATOM      9  C   UNL     1      50.706   5.008  17.558  0.00  0.00    +0.000 C 
ATOM     10  N   UNL     1      51.281   5.919  16.701  0.00  0.00    +0.000 N 
ATOM     11  H   UNL     1      52.186   5.685  16.298  0.00  0.00    +0.000 HD
BRANCH   9  12
ATOM     12  C   UNL     1      51.344   3.656  17.637  0.00  0.00    +0.000 A 
ATOM     13  C   UNL     1      52.596   3.542  18.232  0.00  0.00    +0.000 A 
ATOM     14  C   UNL     1      53.179   2.282  18.323  0.00  0.00    +0.000 A 
ATOM     15  C   UNL     1      52.493   1.186  17.817  0.00  0.00    +0.000 A 
ATOM     16  C   UNL     1      51.243   1.393  17.239  0.00  0.00    +0.000 A 
ATOM     17  N   UNL     1      50.646   2.601  17.136  0.00  0.00    +0.000 NA
ENDBRANCH   9  12
ENDBRANCH   7  10
ENDBRANCH   1   7
BRANCH   4  18
ATOM     18  C   UNL     1      47.145   7.894  12.154  0.00  0.00    +0.000 C 
BRANCH  18  19
ATOM     19  N   UNL     1      46.527   6.624  11.868  0.00  0.00    +0.000 N 
ATOM     20  C   UNL     1      45.182   6.519  11.607  0.00  0.00    +0.000 C 
ATOM     21  O   UNL     1      44.449   7.502  11.554  0.00  0.00    +0.000 OA
ATOM     22  H   UNL     1      47.034   5.792  12.150  0.00  0.00    +0.000 HD
BRANCH  20  23
ATOM     23  C   UNL     1      44.678   5.167  11.339  0.00  0.00    +0.000 A 
ATOM     24  C   UNL     1      43.894   4.515  12.282  0.00  0.00    +0.000 A 
ATOM     25  S   UNL     1      43.358   2.975  11.782  0.00  0.00    +0.000 S 
ATOM     26  C   UNL     1      44.198   3.100  10.307  0.00  0.00    +0.000 A 
ATOM     27  N   UNL     1      44.184   2.085   9.400  0.00  0.00    +0.000 NA
ATOM     28  C   UNL     1      44.888   2.305   8.342  0.00  0.00    +0.000 A 
ATOM     29  N   UNL     1      45.599   3.452   8.100  0.00  0.00    +0.000 N 
ATOM     30  C   UNL     1      45.609   4.518   8.966  0.00  0.00    +0.000 A 
ATOM     31  O   UNL     1      46.201   5.556   8.693  0.00  0.00    +0.000 OA
ATOM     32  C   UNL     1      44.853   4.312  10.187  0.00  0.00    +0.000 A 
ATOM     33  H   UNL     1      46.116   3.571   7.242  0.00  0.00    +0.000 HD
ENDBRANCH  20  23
ENDBRANCH  18  19
ENDBRANCH   4  18
TORSDOF 6
ENDMDL
MODEL 5
REMARK VINA RESULT:    -7.044      3.176      4.614
REMARK INTER + INTRA:         -10.536
REMARK INTER:                  -9.418
REMARK INTRA:                  -1.117
REMARK UNBOUND:                -1.021
REMARK  Name = 
REMARK  6 active torsions:
REMARK  status: ('A' for Active; 'I' for Inactive)
REMARK    1  A    between atoms: C_2  and  C_25
REMARK    2  A    between atoms: N_3  and  C_4
REMARK    3  A    between atoms: C_4  and  C_5
REMARK    4  A    between atoms: C_8  and  C_9
REMARK    5  A    between atoms: C_9  and  N_10
REMARK    6  A    between atoms: C_11  and  C_13
REMARK                            x       y       z     vdW  Elec       q    Type
REMARK                         _______ _______ _______ _____ _____    ______ ____
ROOT
ATOM      1  C   UNL     1      45.541   5.723  11.847  0.00  0.00    +0.000 A 
ATOM      2  C   UNL     1      46.138   6.984  11.837  0.00  0.00    +0.000 A 
ATOM      3  C   UNL     1      47.051   7.310  12.841  0.00  0.00    +0.000 A 
ATOM      4  C   UNL     1      47.369   6.372  13.822  0.00  0.00    +0.000 A 
ATOM      5  C   UNL     1      46.713   5.145  13.760  0.00  0.00    +0.000 A 
ATOM      6  N   UNL     1      45.825   4.798  12.798  0.00  0.00    +0.000 NA
ENDROOT
BRANCH   1   7
ATOM      7  C   UNL     1      44.545   5.343  10.775  0.00  0.00    +0.000 C 
BRANCH   7  10
ATOM      8  O   UNL     1      44.367   2.613  10.228  0.00  0.00    +0.000 OA
ATOM      9  C   UNL     1      45.044   3.318   9.483  0.00  0.00    +0.000 C 
ATOM     10  N   UNL     1      45.160   4.680   9.649  0.00  0.00    +0.000 N 
ATOM     11  H   UNL     1      45.854   5.168   9.087  0.00  0.00    +0.000 HD
BRANCH   9  12
ATOM     12  C   UNL     1      45.777   2.712   8.327  0.00  0.00    +0.000 A 
ATOM     13  C   UNL     1      46.040   3.503   7.213  0.00  0.00    +0.000 A 
ATOM     14  C   UNL     1      46.738   2.944   6.148  0.00  0.00    +0.000 A 
ATOM     15  C   UNL     1      47.145   1.619   6.233  0.00  0.00    +0.000 A 
ATOM     16  C   UNL     1      46.840   0.902   7.387  0.00  0.00    +0.000 A 
ATOM     17  N   UNL     1      46.166   1.413   8.441  0.00  0.00    +0.000 NA
ENDBRANCH   9  12
ENDBRANCH   7  10
ENDBRANCH   1   7
BRANCH   4  18
ATOM     18  C   UNL     1      48.346   6.658  14.928  0.00  0.00    +0.000 C 
BRANCH  18  19
ATOM     19  N   UNL     1      49.657   6.957  14.410  0.00  0.00    +0.000 N 
ATOM     20  C   UNL     1      50.229   8.197  14.564  0.00  0.00    +0.000 C 
ATOM     21  O   UNL     1      49.677   9.096  15.192  0.00  0.00    +0.000 OA
ATOM     22  H   UNL     1      50.016   6.342  13.687  0.00  0.00    +0.000 HD
BRANCH  20  23
ATOM     23  C   UNL     1      51.565   8.371  13.982  0.00  0.00    +0.000 A 
ATOM     24  C   UNL     1      52.671   8.525  14.809  0.00  0.00    +0.000 A 
ATOM     25  S   UNL     1      54.145   8.666  13.962  0.00  0.00    +0.000 S 
ATOM     26  C   UNL     1      53.353   8.581  12.458  0.00  0.00    +0.000 A 
ATOM     27  N   UNL     1      54.047   8.674  11.290  0.00  0.00    +0.000 NA
ATOM     28  C   UNL     1      53.316   8.623  10.229  0.00  0.00    +0.000 A 
ATOM     29  N   UNL     1      51.953   8.480  10.225  0.00  0.00    +0.000 N 
ATOM     30  C   UNL     1      51.215   8.341  11.376  0.00  0.00    +0.000 A 
ATOM     31  O   UNL     1      50.005   8.149  11.338  0.00  0.00    +0.000 OA
ATOM     32  C   UNL     1      51.988   8.417  12.601  0.00  0.00    +0.000 A 
ATOM     33  H   UNL     1      51.438   8.428   9.358  0.00  0.00    +0.000 HD
ENDBRANCH  20  23
ENDBRANCH  18  19
ENDBRANCH   4  18
TORSDOF 6
ENDMDL
MODEL 6
REMARK VINA RESULT:    -6.768      2.369      3.419
REMARK INTER + INTRA:         -10.162
REMARK INTER:                  -9.554
REMARK INTRA:                  -0.608
REMARK UNBOUND:                -1.021
REMARK  Name = 
REMARK  6 active torsions:
REMARK  status: ('A' for Active; 'I' for Inactive)
REMARK    1  A    between atoms: C_2  and  C_25
REMARK    2  A    between atoms: N_3  and  C_4
REMARK    3  A    between atoms: C_4  and  C_5
REMARK    4  A    between atoms: C_8  and  C_9
REMARK    5  A    between atoms: C_9  and  N_10
REMARK    6  A    between atoms: C_11  and  C_13
REMARK                            x       y       z     vdW  Elec       q    Type
REMARK                         _______ _______ _______ _____ _____    ______ ____
ROOT
ATOM      1  C   UNL     1      44.576   5.300  11.456  0.00  0.00    +0.000 A 
ATOM      2  C   UNL     1      45.802   5.128  12.099  0.00  0.00    +0.000 A 
ATOM      3  C   UNL     1      46.461   6.245  12.614  0.00  0.00    +0.000 A 
ATOM      4  C   UNL     1      45.881   7.508  12.498  0.00  0.00    +0.000 A 
ATOM      5  C   UNL     1      44.662   7.585  11.829  0.00  0.00    +0.000 A 
ATOM      6  N   UNL     1      43.997   6.520  11.321  0.00  0.00    +0.000 NA
ENDROOT
BRANCH   1   7
ATOM      7  C   UNL     1      43.841   4.108  10.886  0.00  0.00    +0.000 C 
BRANCH   7  10
ATOM      8  O   UNL     1      44.957   4.893   8.451  0.00  0.00    +0.000 OA
ATOM      9  C   UNL     1      45.156   3.746   8.846  0.00  0.00    +0.000 C 
ATOM     10  N   UNL     1      44.680   3.280  10.051  0.00  0.00    +0.000 N 
ATOM     11  H   UNL     1      44.757   2.283  10.236  0.00  0.00    +0.000 HD
BRANCH   9  12
ATOM     12  C   UNL     1      45.956   2.790   8.018  0.00  0.00    +0.000 A 
ATOM     13  C   UNL     1      46.577   3.262   6.866  0.00  0.00    +0.000 A 
ATOM     14  C   UNL     1      47.337   2.377   6.108  0.00  0.00    +0.000 A 
ATOM     15  C   UNL     1      47.447   1.057   6.526  0.00  0.00    +0.000 A 
ATOM     16  C   UNL     1      46.793   0.673   7.693  0.00  0.00    +0.000 A 
ATOM     17  N   UNL     1      46.049   1.505   8.455  0.00  0.00    +0.000 NA
ENDBRANCH   9  12
ENDBRANCH   7  10
ENDBRANCH   1   7
BRANCH   4  18
ATOM     18  C   UNL     1      46.536   8.751  13.033  0.00  0.00    +0.000 C 
BRANCH  18  19
ATOM     19  N   UNL     1      47.043   8.548  14.366  0.00  0.00    +0.000 N 
ATOM     20  C   UNL     1      48.391   8.466  14.621  0.00  0.00    +0.000 C 
ATOM     21  O   UNL     1      49.231   8.611  13.738  0.00  0.00    +0.000 OA
ATOM     22  H   UNL     1      46.395   8.177  15.053  0.00  0.00    +0.000 HD
BRANCH  20  23
ATOM     23  C   UNL     1      48.774   8.250  16.021  0.00  0.00    +0.000 A 
ATOM     24  C   UNL     1      48.876   6.959  16.525  0.00  0.00    +0.000 A 
ATOM     25  S   UNL     1      49.379   6.898  18.154  0.00  0.00    +0.000 S 
ATOM     26  C   UNL     1      49.428   8.595  18.261  0.00  0.00    +0.000 A 
ATOM     27  N   UNL     1      49.763   9.218  19.425  0.00  0.00    +0.000 NA
ATOM     28  C   UNL     1      49.730  10.506  19.369  0.00  0.00    +0.000 A 
ATOM     29  N   UNL     1      49.402  11.233  18.254  0.00  0.00    +0.000 N 
ATOM     30  C   UNL     1      49.097  10.649  17.048  0.00  0.00    +0.000 A 
ATOM     31  O   UNL     1      48.871  11.326  16.051  0.00  0.00    +0.000 OA
ATOM     32  C   UNL     1      49.095   9.199  17.063  0.00  0.00    +0.000 A 
ATOM     33  H   UNL     1      49.412  12.242  18.269  0.00  0.00    +0.000 HD
ENDBRANCH  20  23
ENDBRANCH  18  19
ENDBRANCH   4  18
TORSDOF 6
ENDMDL
MODEL 7
REMARK VINA RESULT:    -6.761      3.259      4.386
REMARK INTER + INTRA:         -10.153
REMARK INTER:                  -9.144
REMARK INTRA:                  -1.010
REMARK UNBOUND:                -1.021
REMARK  Name = 
REMARK  6 active torsions:
REMARK  status: ('A' for Active; 'I' for Inactive)
REMARK    1  A    between atoms: C_2  and  C_25
REMARK    2  A    between atoms: N_3  and  C_4
REMARK    3  A    between atoms: C_4  and  C_5
REMARK    4  A    between atoms: C_8  and  C_9
REMARK    5  A    between atoms: C_9  and  N_10
REMARK    6  A    between atoms: C_11  and  C_13
REMARK                            x       y       z     vdW  Elec       q    Type
REMARK                         _______ _______ _______ _____ _____    ______ ____
ROOT
ATOM      1  C   UNL     1      45.684   5.759  11.765  0.00  0.00    +0.000 A 
ATOM      2  C   UNL     1      46.402   6.955  11.708  0.00  0.00    +0.000 A 
ATOM      3  C   UNL     1      47.311   7.250  12.724  0.00  0.00    +0.000 A 
ATOM      4  C   UNL     1      47.505   6.344  13.766  0.00  0.00    +0.000 A 
ATOM      5  C   UNL     1      46.736   5.184  13.747  0.00  0.00    +0.000 A 
ATOM      6  N   UNL     1      45.848   4.868  12.774  0.00  0.00    +0.000 NA
ENDROOT
BRANCH   1   7
ATOM      7  C   UNL     1      44.690   5.415  10.680  0.00  0.00    +0.000 C 
BRANCH   7  10
ATOM      8  O   UNL     1      44.340   2.707  10.102  0.00  0.00    +0.000 OA
ATOM      9  C   UNL     1      45.088   3.369   9.385  0.00  0.00    +0.000 C 
ATOM     10  N   UNL     1      45.293   4.719   9.567  0.00  0.00    +0.000 N 
ATOM     11  H   UNL     1      46.037   5.161   9.032  0.00  0.00    +0.000 HD
BRANCH   9  12
ATOM     12  C   UNL     1      45.814   2.721   8.247  0.00  0.00    +0.000 A 
ATOM     13  C   UNL     1      46.078   3.474   7.108  0.00  0.00    +0.000 A 
ATOM     14  C   UNL     1      46.770   2.877   6.060  0.00  0.00    +0.000 A 
ATOM     15  C   UNL     1      47.169   1.553   6.186  0.00  0.00    +0.000 A 
ATOM     16  C   UNL     1      46.863   0.875   7.363  0.00  0.00    +0.000 A 
ATOM     17  N   UNL     1      46.195   1.424   8.403  0.00  0.00    +0.000 NA
ENDBRANCH   9  12
ENDBRANCH   7  10
ENDBRANCH   1   7
BRANCH   4  18
ATOM     18  C   UNL     1      48.471   6.599  14.889  0.00  0.00    +0.000 C 
BRANCH  18  19
ATOM     19  N   UNL     1      49.730   7.101  14.399  0.00  0.00    +0.000 N 
ATOM     20  C   UNL     1      50.133   8.393  14.635  0.00  0.00    +0.000 C 
ATOM     21  O   UNL     1      49.468   9.170  15.314  0.00  0.00    +0.000 OA
ATOM     22  H   UNL     1      50.166   6.585  13.642  0.00  0.00    +0.000 HD
BRANCH  20  23
ATOM     23  C   UNL     1      51.433   8.779  14.074  0.00  0.00    +0.000 A 
ATOM     24  C   UNL     1      51.507   9.766  13.099  0.00  0.00    +0.000 A 
ATOM     25  S   UNL     1      53.099  10.118  12.599  0.00  0.00    +0.000 S 
ATOM     26  C   UNL     1      53.745   8.927  13.628  0.00  0.00    +0.000 A 
ATOM     27  N   UNL     1      55.084   8.681  13.668  0.00  0.00    +0.000 NA
ATOM     28  C   UNL     1      55.428   7.732  14.470  0.00  0.00    +0.000 A 
ATOM     29  N   UNL     1      54.559   7.009  15.245  0.00  0.00    +0.000 N 
ATOM     30  C   UNL     1      53.207   7.249  15.269  0.00  0.00    +0.000 A 
ATOM     31  O   UNL     1      52.462   6.630  16.021  0.00  0.00    +0.000 OA
ATOM     32  C   UNL     1      52.762   8.291  14.364  0.00  0.00    +0.000 A 
ATOM     33  H   UNL     1      54.894   6.289  15.869  0.00  0.00    +0.000 HD
ENDBRANCH  20  23
ENDBRANCH  18  19
ENDBRANCH   4  18
TORSDOF 6
ENDMDL
MODEL 8
REMARK VINA RESULT:    -6.609      3.591      4.844
REMARK INTER + INTRA:          -9.947
REMARK INTER:                  -9.074
REMARK INTRA:                  -0.874
REMARK UNBOUND:                -1.021
REMARK  Name = 
REMARK  6 active torsions:
REMARK  status: ('A' for Active; 'I' for Inactive)
REMARK    1  A    between atoms: C_2  and  C_25
REMARK    2  A    between atoms: N_3  and  C_4
REMARK    3  A    between atoms: C_4  and  C_5
REMARK    4  A    between atoms: C_8  and  C_9
REMARK    5  A    between atoms: C_9  and  N_10
REMARK    6  A    between atoms: C_11  and  C_13
REMARK                            x       y       z     vdW  Elec       q    Type
REMARK                         _______ _______ _______ _____ _____    ______ ____
ROOT
ATOM      1  C   UNL     1      47.709   6.475  14.017  0.00  0.00    +0.000 A 
ATOM      2  C   UNL     1      48.581   7.250  14.782  0.00  0.00    +0.000 A 
ATOM      3  C   UNL     1      49.029   6.756  16.008  0.00  0.00    +0.000 A 
ATOM      4  C   UNL     1      48.619   5.496  16.441  0.00  0.00    +0.000 A 
ATOM      5  C   UNL     1      47.737   4.801  15.617  0.00  0.00    +0.000 A 
ATOM      6  N   UNL     1      47.286   5.251  14.422  0.00  0.00    +0.000 NA
ENDROOT
BRANCH   1   7
ATOM      7  C   UNL     1      47.204   6.986  12.687  0.00  0.00    +0.000 C 
BRANCH   7  10
ATOM      8  O   UNL     1      44.956   7.072  11.036  0.00  0.00    +0.000 OA
ATOM      9  C   UNL     1      45.635   6.048  11.051  0.00  0.00    +0.000 C 
ATOM     10  N   UNL     1      46.782   5.925  11.803  0.00  0.00    +0.000 N 
ATOM     11  H   UNL     1      47.201   5.002  11.878  0.00  0.00    +0.000 HD
BRANCH   9  12
ATOM     12  C   UNL     1      45.240   4.867  10.220  0.00  0.00    +0.000 A 
ATOM     13  C   UNL     1      45.640   4.823   8.888  0.00  0.00    +0.000 A 
ATOM     14  C   UNL     1      45.290   3.716   8.123  0.00  0.00    +0.000 A 
ATOM     15  C   UNL     1      44.553   2.697   8.713  0.00  0.00    +0.000 A 
ATOM     16  C   UNL     1      44.197   2.824  10.052  0.00  0.00    +0.000 A 
ATOM     17  N   UNL     1      44.522   3.884  10.827  0.00  0.00    +0.000 NA
ENDBRANCH   9  12
ENDBRANCH   7  10
ENDBRANCH   1   7
BRANCH   4  18
ATOM     18  C   UNL     1      49.067   4.904  17.748  0.00  0.00    +0.000 C 
BRANCH  18  19
ATOM     19  N   UNL     1      50.385   4.331  17.644  0.00  0.00    +0.000 N 
ATOM     20  C   UNL     1      51.227   4.254  18.727  0.00  0.00    +0.000 C 
ATOM     21  O   UNL     1      50.884   4.622  19.847  0.00  0.00    +0.000 OA
ATOM     22  H   UNL     1      50.782   4.260  16.713  0.00  0.00    +0.000 HD
BRANCH  20  23
ATOM     23  C   UNL     1      52.544   3.655  18.483  0.00  0.00    +0.000 A 
ATOM     24  C   UNL     1      53.700   4.366  18.779  0.00  0.00    +0.000 A 
ATOM     25  S   UNL     1      55.136   3.497  18.477  0.00  0.00    +0.000 S 
ATOM     26  C   UNL     1      54.268   2.157  17.890  0.00  0.00    +0.000 A 
ATOM     27  N   UNL     1      54.910   1.049  17.426  0.00  0.00    +0.000 NA
ATOM     28  C   UNL     1      54.127   0.124  16.984  0.00  0.00    +0.000 A 
ATOM     29  N   UNL     1      52.759   0.199  16.970  0.00  0.00    +0.000 N 
ATOM     30  C   UNL     1      52.067   1.278  17.464  0.00  0.00    +0.000 A 
ATOM     31  O   UNL     1      50.841   1.288  17.498  0.00  0.00    +0.000 OA
ATOM     32  C   UNL     1      52.901   2.359  17.951  0.00  0.00    +0.000 A 
ATOM     33  H   UNL     1      52.200  -0.569  16.627  0.00  0.00    +0.000 HD
ENDBRANCH  20  23
ENDBRANCH  18  19
ENDBRANCH   4  18
TORSDOF 6
ENDMDL
MODEL 9
REMARK VINA RESULT:    -6.420      5.077      7.612
REMARK INTER + INTRA:          -9.692
REMARK INTER:                  -8.801
REMARK INTRA:                  -0.892
REMARK UNBOUND:                -1.021
REMARK  Name = 
REMARK  6 active torsions:
REMARK  status: ('A' for Active; 'I' for Inactive)
REMARK    1  A    between atoms: C_2  and  C_25
REMARK    2  A    between atoms: N_3  and  C_4
REMARK    3  A    between atoms: C_4  and  C_5
REMARK    4  A    between atoms: C_8  and  C_9
REMARK    5  A    between atoms: C_9  and  N_10
REMARK    6  A    between atoms: C_11  and  C_13
REMARK                            x       y       z     vdW  Elec       q    Type
REMARK                         _______ _______ _______ _____ _____    ______ ____
ROOT
ATOM      1  C   UNL     1      51.122   8.204  12.075  0.00  0.00    +0.000 A 
ATOM      2  C   UNL     1      50.191   7.849  11.097  0.00  0.00    +0.000 A 
ATOM      3  C   UNL     1      48.840   7.783  11.439  0.00  0.00    +0.000 A 
ATOM      4  C   UNL     1      48.436   8.090  12.737  0.00  0.00    +0.000 A 
ATOM      5  C   UNL     1      49.436   8.420  13.649  0.00  0.00    +0.000 A 
ATOM      6  N   UNL     1      50.754   8.495  13.348  0.00  0.00    +0.000 NA
ENDROOT
BRANCH   1   7
ATOM      7  C   UNL     1      52.592   8.279  11.734  0.00  0.00    +0.000 C 
BRANCH   7  10
ATOM      8  O   UNL     1      53.970   8.602   9.329  0.00  0.00    +0.000 OA
ATOM      9  C   UNL     1      53.669   7.464   9.685  0.00  0.00    +0.000 C 
ATOM     10  N   UNL     1      53.024   7.203  10.874  0.00  0.00    +0.000 N 
ATOM     11  H   UNL     1      52.677   6.259  11.026  0.00  0.00    +0.000 HD
BRANCH   9  12
ATOM     12  C   UNL     1      54.012   6.287   8.827  0.00  0.00    +0.000 A 
ATOM     13  C   UNL     1      53.187   5.982   7.750  0.00  0.00    +0.000 A 
ATOM     14  C   UNL     1      53.518   4.900   6.941  0.00  0.00    +0.000 A 
ATOM     15  C   UNL     1      54.658   4.164   7.238  0.00  0.00    +0.000 A 
ATOM     16  C   UNL     1      55.427   4.542   8.335  0.00  0.00    +0.000 A 
ATOM     17  N   UNL     1      55.136   5.588   9.141  0.00  0.00    +0.000 NA
ENDBRANCH   9  12
ENDBRANCH   7  10
ENDBRANCH   1   7
BRANCH   4  18
ATOM     18  C   UNL     1      46.997   8.043  13.170  0.00  0.00    +0.000 C 
BRANCH  18  19
ATOM     19  N   UNL     1      46.385   6.784  12.828  0.00  0.00    +0.000 N 
ATOM     20  C   UNL     1      45.349   6.705  11.929  0.00  0.00    +0.000 C 
ATOM     21  O   UNL     1      44.926   7.692  11.334  0.00  0.00    +0.000 OA
ATOM     22  H   UNL     1      46.529   6.013  13.472  0.00  0.00    +0.000 HD
BRANCH  20  23
ATOM     23  C   UNL     1      44.810   5.363  11.677  0.00  0.00    +0.000 A 
ATOM     24  C   UNL     1      44.072   4.712  12.657  0.00  0.00    +0.000 A 
ATOM     25  S   UNL     1      43.486   3.185  12.172  0.00  0.00    +0.000 S 
ATOM     26  C   UNL     1      44.242   3.315  10.653  0.00  0.00    +0.000 A 
ATOM     27  N   UNL     1      44.161   2.310   9.738  0.00  0.00    +0.000 NA
ATOM     28  C   UNL     1      44.806   2.532   8.643  0.00  0.00    +0.000 A 
ATOM     29  N   UNL     1      45.519   3.672   8.373  0.00  0.00    +0.000 N 
ATOM     30  C   UNL     1      45.594   4.728   9.248  0.00  0.00    +0.000 A 
ATOM     31  O   UNL     1      46.185   5.761   8.952  0.00  0.00    +0.000 OA
ATOM     32  C   UNL     1      44.907   4.519  10.507  0.00  0.00    +0.000 A 
ATOM     33  H   UNL     1      45.988   3.794   7.487  0.00  0.00    +0.000 HD
ENDBRANCH  20  23
ENDBRANCH  18  19
ENDBRANCH   4  18
TORSDOF 6
ENDMDL
