MODEL 1
REMARK VINA RESULT:    -8.707      0.000      0.000
REMARK INTER + INTRA:         -13.711
REMARK INTER:                 -12.524
REMARK INTRA:                  -1.187
REMARK UNBOUND:                -1.187
REMARK  Name = 
REMARK  9 active torsions:
REMARK  status: ('A' for Active; 'I' for Inactive)
REMARK    1  A    between atoms: C_1  and  C_2
REMARK    2  A    between atoms: C_2  and  N_3
REMARK    3  A    between atoms: C_2  and  C_20
REMARK    4  A    between atoms: N_3  and  C_4
REMARK    5  A    between atoms: C_7  and  C_8
REMARK    6  A    between atoms: C_8  and  C_9
REMARK    7  A    between atoms: C_8  and  C_11
REMARK    8  A    between atoms: C_9  and  O_10
REMARK    9  A    between atoms: C_11  and  C_12
REMARK                            x       y       z     vdW  Elec       q    Type
REMARK                         _______ _______ _______ _____ _____    ______ ____
ROOT
ATOM      1  C   UNL     1      47.317   5.427  14.488  0.00  0.00    +0.000 A 
ATOM      2  C   UNL     1      47.426   6.332  13.430  0.00  0.00    +0.000 A 
ATOM      3  C   UNL     1      46.622   6.206  12.298  0.00  0.00    +0.000 A 
ATOM      4  C   UNL     1      45.727   5.145  12.225  0.00  0.00    +0.000 A 
ATOM      5  N   UNL     1      45.681   4.176  13.174  0.00  0.00    +0.000 NA
ATOM      6  C   UNL     1      46.495   4.326  14.252  0.00  0.00    +0.000 A 
ENDROOT
BRANCH   1   7
ATOM      7  N   UNL     1      48.081   5.637  15.640  0.00  0.00    +0.000 N 
ATOM      8  H   UNL     1      47.841   6.546  16.052  0.00  0.00    +0.000 HD
BRANCH   7  10
ATOM      9  C   UNL     1      47.056   4.834  17.762  0.00  0.00    +0.000 C 
ATOM     10  C   UNL     1      48.143   4.614  16.695  0.00  0.00    +0.000 C 
BRANCH  10  11
ATOM     11  C   UNL     1      49.492   4.510  17.401  0.00  0.00    +0.000 A 
ATOM     12  C   UNL     1      50.070   5.566  18.087  0.00  0.00    +0.000 A 
ATOM     13  S   UNL     1      51.626   5.209  18.692  0.00  0.00    +0.000 S 
ATOM     14  C   UNL     1      51.575   3.628  18.063  0.00  0.00    +0.000 A 
ATOM     15  N   UNL     1      52.625   2.776  18.216  0.00  0.00    +0.000 NA
ATOM     16  C   UNL     1      52.445   1.611  17.688  0.00  0.00    +0.000 A 
ATOM     17  N   UNL     1      51.308   1.216  17.025  0.00  0.00    +0.000 N 
ATOM     18  C   UNL     1      50.226   2.043  16.841  0.00  0.00    +0.000 A 
ATOM     19  O   UNL     1      49.227   1.661  16.238  0.00  0.00    +0.000 OA
ATOM     20  C   UNL     1      50.383   3.370  17.413  0.00  0.00    +0.000 A 
ATOM     21  H   UNL     1      51.228   0.285  16.648  0.00  0.00    +0.000 HD
ENDBRANCH  10  11
ENDBRANCH   7  10
ENDBRANCH   1   7
BRANCH   4  22
ATOM     22  C   UNL     1      44.631   5.151  11.167  0.00  0.00    +0.000 C 
BRANCH  22  23
ATOM     23  C   UNL     1      43.423   5.914  11.752  0.00  0.00    +0.000 C 
BRANCH  23  24
ATOM     24  O   UNL     1      43.372   5.845  13.177  0.00  0.00    +0.000 OA
ATOM     25  H   UNL     1      43.323   4.889  13.393  0.00  0.00    +0.000 HD
ENDBRANCH  23  24
ENDBRANCH  22  23
BRANCH  22  26
ATOM     26  C   UNL     1      44.282   3.733  10.675  0.00  0.00    +0.000 C 
BRANCH  26  27
ATOM     27  C   UNL     1      45.069   3.360   9.436  0.00  0.00    +0.000 A 
ATOM     28  C   UNL     1      45.347   2.019   9.141  0.00  0.00    +0.000 A 
ATOM     29  C   UNL     1      46.148   1.684   8.048  0.00  0.00    +0.000 A 
ATOM     30  C   UNL     1      46.683   2.685   7.239  0.00  0.00    +0.000 A 
ATOM     31  C   UNL     1      46.406   4.022   7.517  0.00  0.00    +0.000 A 
ATOM     32  C   UNL     1      45.599   4.357   8.605  0.00  0.00    +0.000 A 
ENDBRANCH  26  27
ENDBRANCH  22  26
ENDBRANCH   4  22
TORSDOF 8
ENDMDL
MODEL 2
REMARK VINA RESULT:    -7.707      2.474      3.319
REMARK INTER + INTRA:         -12.273
REMARK INTER:                 -11.050
REMARK INTRA:                  -1.223
REMARK UNBOUND:                -1.187
REMARK  Name = 
REMARK  9 active torsions:
REMARK  status: ('A' for Active; 'I' for Inactive)
REMARK    1  A    between atoms: C_1  and  C_2
REMARK    2  A    between atoms: C_2  and  N_3
REMARK    3  A    between atoms: C_2  and  C_20
REMARK    4  A    between atoms: N_3  and  C_4
REMARK    5  A    between atoms: C_7  and  C_8
REMARK    6  A    between atoms: C_8  and  C_9
REMARK    7  A    between atoms: C_8  and  C_11
REMARK    8  A    between atoms: C_9  and  O_10
REMARK    9  A    between atoms: C_11  and  C_12
REMARK                            x       y       z     vdW  Elec       q    Type
REMARK                         _______ _______ _______ _____ _____    ______ ____
ROOT
ATOM      1  C   UNL     1      47.063   5.692  13.567  0.00  0.00    +0.000 A 
ATOM      2  C   UNL     1      47.018   6.518  12.442  0.00  0.00    +0.000 A 
ATOM      3  C   UNL     1      46.190   6.210  11.364  0.00  0.00    +0.000 A 
ATOM      4  C   UNL     1      45.427   5.048  11.413  0.00  0.00    +0.000 A 
ATOM      5  N   UNL     1      45.539   4.157  12.431  0.00  0.00    +0.000 NA
ATOM      6  C   UNL     1      46.373   4.487  13.453  0.00  0.00    +0.000 A 
ENDROOT
BRANCH   1   7
ATOM      7  N   UNL     1      47.844   6.081  14.660  0.00  0.00    +0.000 N 
ATOM      8  H   UNL     1      48.557   5.366  14.846  0.00  0.00    +0.000 HD
BRANCH   7  10
ATOM      9  C   UNL     1      49.864   7.415  14.077  0.00  0.00    +0.000 C 
ATOM     10  C   UNL     1      48.458   7.417  14.704  0.00  0.00    +0.000 C 
BRANCH  10  11
ATOM     11  C   UNL     1      48.558   8.025  16.100  0.00  0.00    +0.000 A 
ATOM     12  C   UNL     1      48.186   9.329  16.386  0.00  0.00    +0.000 A 
ATOM     13  S   UNL     1      48.499   9.783  18.001  0.00  0.00    +0.000 S 
ATOM     14  C   UNL     1      49.135   8.249  18.374  0.00  0.00    +0.000 A 
ATOM     15  N   UNL     1      49.613   7.968  19.617  0.00  0.00    +0.000 NA
ATOM     16  C   UNL     1      50.064   6.766  19.754  0.00  0.00    +0.000 A 
ATOM     17  N   UNL     1      50.075   5.814  18.764  0.00  0.00    +0.000 N 
ATOM     18  C   UNL     1      49.610   6.053  17.492  0.00  0.00    +0.000 A 
ATOM     19  O   UNL     1      49.640   5.182  16.628  0.00  0.00    +0.000 OA
ATOM     20  C   UNL     1      49.097   7.397  17.287  0.00  0.00    +0.000 A 
ATOM     21  H   UNL     1      50.430   4.887  18.943  0.00  0.00    +0.000 HD
ENDBRANCH  10  11
ENDBRANCH   7  10
ENDBRANCH   1   7
BRANCH   4  22
ATOM     22  C   UNL     1      44.297   4.841  10.415  0.00  0.00    +0.000 C 
BRANCH  22  23
ATOM     23  C   UNL     1      43.004   5.392  11.053  0.00  0.00    +0.000 C 
BRANCH  23  24
ATOM     24  O   UNL     1      42.540   4.580  12.132  0.00  0.00    +0.000 OA
ATOM     25  H   UNL     1      42.250   5.208  12.829  0.00  0.00    +0.000 HD
ENDBRANCH  23  24
ENDBRANCH  22  23
BRANCH  22  26
ATOM     26  C   UNL     1      44.178   3.375   9.956  0.00  0.00    +0.000 C 
BRANCH  26  27
ATOM     27  C   UNL     1      45.220   3.028   8.911  0.00  0.00    +0.000 A 
ATOM     28  C   UNL     1      45.685   3.998   8.014  0.00  0.00    +0.000 A 
ATOM     29  C   UNL     1      46.577   3.653   6.997  0.00  0.00    +0.000 A 
ATOM     30  C   UNL     1      47.010   2.335   6.863  0.00  0.00    +0.000 A 
ATOM     31  C   UNL     1      46.562   1.364   7.754  0.00  0.00    +0.000 A 
ATOM     32  C   UNL     1      45.676   1.709   8.776  0.00  0.00    +0.000 A 
ENDBRANCH  26  27
ENDBRANCH  22  26
ENDBRANCH   4  22
TORSDOF 8
ENDMDL
MODEL 3
REMARK VINA RESULT:    -7.490      3.044      8.569
REMARK INTER + INTRA:         -11.961
REMARK INTER:                 -11.156
REMARK INTRA:                  -0.805
REMARK UNBOUND:                -1.187
REMARK  Name = 
REMARK  9 active torsions:
REMARK  status: ('A' for Active; 'I' for Inactive)
REMARK    1  A    between atoms: C_1  and  C_2
REMARK    2  A    between atoms: C_2  and  N_3
REMARK    3  A    between atoms: C_2  and  C_20
REMARK    4  A    between atoms: N_3  and  C_4
REMARK    5  A    between atoms: C_7  and  C_8
REMARK    6  A    between atoms: C_8  and  C_9
REMARK    7  A    between atoms: C_8  and  C_11
REMARK    8  A    between atoms: C_9  and  O_10
REMARK    9  A    between atoms: C_11  and  C_12
REMARK                            x       y       z     vdW  Elec       q    Type
REMARK                         _______ _______ _______ _____ _____    ______ ____
ROOT
ATOM      1  C   UNL     1      47.583   6.070  13.454  0.00  0.00    +0.000 A 
ATOM      2  C   UNL     1      48.286   6.946  14.285  0.00  0.00    +0.000 A 
ATOM      3  C   UNL     1      48.625   6.577  15.586  0.00  0.00    +0.000 A 
ATOM      4  C   UNL     1      48.227   5.331  16.056  0.00  0.00    +0.000 A 
ATOM      5  N   UNL     1      47.436   4.505  15.325  0.00  0.00    +0.000 NA
ATOM      6  C   UNL     1      47.112   4.912  14.068  0.00  0.00    +0.000 A 
ENDROOT
BRANCH   1   7
ATOM      7  N   UNL     1      47.336   6.446  12.131  0.00  0.00    +0.000 N 
ATOM      8  H   UNL     1      47.792   5.783  11.493  0.00  0.00    +0.000 HD
BRANCH   7  10
ATOM      9  C   UNL     1      45.250   7.730  12.581  0.00  0.00    +0.000 C 
ATOM     10  C   UNL     1      45.963   6.712  11.672  0.00  0.00    +0.000 C 
BRANCH  10  11
ATOM     11  C   UNL     1      45.080   5.473  11.556  0.00  0.00    +0.000 A 
ATOM     12  C   UNL     1      44.274   5.020  12.589  0.00  0.00    +0.000 A 
ATOM     13  S   UNL     1      43.473   3.556  12.229  0.00  0.00    +0.000 S 
ATOM     14  C   UNL     1      44.172   3.484  10.678  0.00  0.00    +0.000 A 
ATOM     15  N   UNL     1      43.911   2.446   9.837  0.00  0.00    +0.000 NA
ATOM     16  C   UNL     1      44.510   2.525   8.696  0.00  0.00    +0.000 A 
ATOM     17  N   UNL     1      45.342   3.549   8.314  0.00  0.00    +0.000 N 
ATOM     18  C   UNL     1      45.640   4.613   9.131  0.00  0.00    +0.000 A 
ATOM     19  O   UNL     1      46.394   5.509   8.762  0.00  0.00    +0.000 OA
ATOM     20  C   UNL     1      44.994   4.567  10.432  0.00  0.00    +0.000 A 
ATOM     21  H   UNL     1      45.768   3.554   7.400  0.00  0.00    +0.000 HD
ENDBRANCH  10  11
ENDBRANCH   7  10
ENDBRANCH   1   7
BRANCH   4  22
ATOM     22  C   UNL     1      48.835   4.774  17.336  0.00  0.00    +0.000 C 
BRANCH  22  23
ATOM     23  C   UNL     1      48.011   5.324  18.521  0.00  0.00    +0.000 C 
BRANCH  23  24
ATOM     24  O   UNL     1      46.607   5.125  18.348  0.00  0.00    +0.000 OA
ATOM     25  H   UNL     1      46.200   5.364  19.208  0.00  0.00    +0.000 HD
ENDBRANCH  23  24
ENDBRANCH  22  23
BRANCH  22  26
ATOM     26  C   UNL     1      50.342   5.070  17.448  0.00  0.00    +0.000 C 
BRANCH  26  27
ATOM     27  C   UNL     1      51.159   3.797  17.536  0.00  0.00    +0.000 A 
ATOM     28  C   UNL     1      50.579   2.553  17.255  0.00  0.00    +0.000 A 
ATOM     29  C   UNL     1      51.309   1.375  17.423  0.00  0.00    +0.000 A 
ATOM     30  C   UNL     1      52.626   1.428  17.878  0.00  0.00    +0.000 A 
ATOM     31  C   UNL     1      53.216   2.659  18.152  0.00  0.00    +0.000 A 
ATOM     32  C   UNL     1      52.489   3.837  17.977  0.00  0.00    +0.000 A 
ENDBRANCH  26  27
ENDBRANCH  22  26
ENDBRANCH   4  22
TORSDOF 8
ENDMDL
MODEL 4
REMARK VINA RESULT:    -7.136      1.966      2.616
REMARK INTER + INTRA:         -11.452
REMARK INTER:                 -10.974
REMARK INTRA:                  -0.478
REMARK UNBOUND:                -1.187
REMARK  Name = 
REMARK  9 active torsions:
REMARK  status: ('A' for Active; 'I' for Inactive)
REMARK    1  A    between atoms: C_1  and  C_2
REMARK    2  A    between atoms: C_2  and  N_3
REMARK    3  A    between atoms: C_2  and  C_20
REMARK    4  A    between atoms: N_3  and  C_4
REMARK    5  A    between atoms: C_7  and  C_8
REMARK    6  A    between atoms: C_8  and  C_9
REMARK    7  A    between atoms: C_8  and  C_11
REMARK    8  A    between atoms: C_9  and  O_10
REMARK    9  A    between atoms: C_11  and  C_12
REMARK                            x       y       z     vdW  Elec       q    Type
REMARK                         _______ _______ _______ _____ _____    ______ ____
ROOT
ATOM      1  C   UNL     1      47.463   6.554  12.932  0.00  0.00    +0.000 A 
ATOM      2  C   UNL     1      46.822   7.010  11.778  0.00  0.00    +0.000 A 
ATOM      3  C   UNL     1      45.812   6.259  11.179  0.00  0.00    +0.000 A 
ATOM      4  C   UNL     1      45.470   5.030  11.733  0.00  0.00    +0.000 A 
ATOM      5  N   UNL     1      46.153   4.497  12.777  0.00  0.00    +0.000 NA
ATOM      6  C   UNL     1      47.145   5.253  13.319  0.00  0.00    +0.000 A 
ENDROOT
BRANCH   1   7
ATOM      7  N   UNL     1      48.412   7.375  13.548  0.00  0.00    +0.000 N 
ATOM      8  H   UNL     1      48.417   8.296  13.094  0.00  0.00    +0.000 HD
BRANCH   7  10
ATOM      9  C   UNL     1      48.239   9.017  15.413  0.00  0.00    +0.000 C 
ATOM     10  C   UNL     1      48.421   7.542  15.010  0.00  0.00    +0.000 C 
BRANCH  10  11
ATOM     11  C   UNL     1      49.672   7.008  15.702  0.00  0.00    +0.000 A 
ATOM     12  C   UNL     1      50.929   7.565  15.527  0.00  0.00    +0.000 A 
ATOM     13  S   UNL     1      52.166   6.709  16.334  0.00  0.00    +0.000 S 
ATOM     14  C   UNL     1      51.061   5.571  16.951  0.00  0.00    +0.000 A 
ATOM     15  N   UNL     1      51.479   4.534  17.728  0.00  0.00    +0.000 NA
ATOM     16  C   UNL     1      50.530   3.752  18.123  0.00  0.00    +0.000 A 
ATOM     17  N   UNL     1      49.201   3.914  17.820  0.00  0.00    +0.000 N 
ATOM     18  C   UNL     1      48.733   4.941  17.035  0.00  0.00    +0.000 A 
ATOM     19  O   UNL     1      47.538   5.053  16.778  0.00  0.00    +0.000 OA
ATOM     20  C   UNL     1      49.765   5.846  16.559  0.00  0.00    +0.000 A 
ATOM     21  H   UNL     1      48.509   3.272  18.175  0.00  0.00    +0.000 HD
ENDBRANCH  10  11
ENDBRANCH   7  10
ENDBRANCH   1   7
BRANCH   4  22
ATOM     22  C   UNL     1      44.184   4.337  11.302  0.00  0.00    +0.000 C 
BRANCH  22  23
ATOM     23  C   UNL     1      44.245   2.882  11.815  0.00  0.00    +0.000 C 
BRANCH  23  24
ATOM     24  O   UNL     1      42.977   2.228  11.752  0.00  0.00    +0.000 OA
ATOM     25  H   UNL     1      42.930   1.667  12.556  0.00  0.00    +0.000 HD
ENDBRANCH  23  24
ENDBRANCH  22  23
BRANCH  22  26
ATOM     26  C   UNL     1      43.938   4.444   9.786  0.00  0.00    +0.000 C 
BRANCH  26  27
ATOM     27  C   UNL     1      44.976   3.677   8.993  0.00  0.00    +0.000 A 
ATOM     28  C   UNL     1      45.791   4.332   8.060  0.00  0.00    +0.000 A 
ATOM     29  C   UNL     1      46.684   3.608   7.267  0.00  0.00    +0.000 A 
ATOM     30  C   UNL     1      46.770   2.223   7.396  0.00  0.00    +0.000 A 
ATOM     31  C   UNL     1      45.971   1.562   8.327  0.00  0.00    +0.000 A 
ATOM     32  C   UNL     1      45.084   2.286   9.125  0.00  0.00    +0.000 A 
ENDBRANCH  26  27
ENDBRANCH  22  26
ENDBRANCH   4  22
TORSDOF 8
ENDMDL
MODEL 5
REMARK VINA RESULT:    -6.994      3.080      3.931
REMARK INTER + INTRA:         -11.248
REMARK INTER:                  -9.957
REMARK INTRA:                  -1.290
REMARK UNBOUND:                -1.187
REMARK  Name = 
REMARK  9 active torsions:
REMARK  status: ('A' for Active; 'I' for Inactive)
REMARK    1  A    between atoms: C_1  and  C_2
REMARK    2  A    between atoms: C_2  and  N_3
REMARK    3  A    between atoms: C_2  and  C_20
REMARK    4  A    between atoms: N_3  and  C_4
REMARK    5  A    between atoms: C_7  and  C_8
REMARK    6  A    between atoms: C_8  and  C_9
REMARK    7  A    between atoms: C_8  and  C_11
REMARK    8  A    between atoms: C_9  and  O_10
REMARK    9  A    between atoms: C_11  and  C_12
REMARK                            x       y       z     vdW  Elec       q    Type
REMARK                         _______ _______ _______ _____ _____    ______ ____
ROOT
ATOM      1  C   UNL     1      47.577   6.420  13.156  0.00  0.00    +0.000 A 
ATOM      2  C   UNL     1      46.970   5.176  13.339  0.00  0.00    +0.000 A 
ATOM      3  C   UNL     1      45.801   4.846  12.655  0.00  0.00    +0.000 A 
ATOM      4  C   UNL     1      45.230   5.788  11.806  0.00  0.00    +0.000 A 
ATOM      5  N   UNL     1      45.719   7.050  11.700  0.00  0.00    +0.000 NA
ATOM      6  C   UNL     1      46.849   7.336  12.399  0.00  0.00    +0.000 A 
ENDROOT
BRANCH   1   7
ATOM      7  N   UNL     1      48.793   6.680  13.796  0.00  0.00    +0.000 N 
ATOM      8  H   UNL     1      49.538   6.773  13.096  0.00  0.00    +0.000 HD
BRANCH   7  10
ATOM      9  C   UNL     1      49.784   8.916  14.266  0.00  0.00    +0.000 C 
ATOM     10  C   UNL     1      48.902   7.765  14.784  0.00  0.00    +0.000 C 
BRANCH  10  11
ATOM     11  C   UNL     1      49.433   7.332  16.147  0.00  0.00    +0.000 A 
ATOM     12  C   UNL     1      50.319   6.279  16.314  0.00  0.00    +0.000 A 
ATOM     13  S   UNL     1      50.667   5.942  17.951  0.00  0.00    +0.000 S 
ATOM     14  C   UNL     1      49.652   7.197  18.490  0.00  0.00    +0.000 A 
ATOM     15  N   UNL     1      49.481   7.443  19.818  0.00  0.00    +0.000 NA
ATOM     16  C   UNL     1      48.683   8.425  20.077  0.00  0.00    +0.000 A 
ATOM     17  N   UNL     1      48.045   9.189  19.132  0.00  0.00    +0.000 N 
ATOM     18  C   UNL     1      48.181   8.974  17.781  0.00  0.00    +0.000 A 
ATOM     19  O   UNL     1      47.590   9.672  16.962  0.00  0.00    +0.000 OA
ATOM     20  C   UNL     1      49.065   7.874  17.437  0.00  0.00    +0.000 A 
ATOM     21  H   UNL     1      47.444   9.952  19.405  0.00  0.00    +0.000 HD
ENDBRANCH  10  11
ENDBRANCH   7  10
ENDBRANCH   1   7
BRANCH   4  22
ATOM     22  C   UNL     1      44.149   5.364  10.821  0.00  0.00    +0.000 C 
BRANCH  22  23
ATOM     23  C   UNL     1      42.808   5.941  11.322  0.00  0.00    +0.000 C 
BRANCH  23  24
ATOM     24  O   UNL     1      42.699   7.346  11.092  0.00  0.00    +0.000 OA
ATOM     25  H   UNL     1      42.736   7.456  10.117  0.00  0.00    +0.000 HD
ENDBRANCH  23  24
ENDBRANCH  22  23
BRANCH  22  26
ATOM     26  C   UNL     1      44.118   3.839  10.603  0.00  0.00    +0.000 C 
BRANCH  26  27
ATOM     27  C   UNL     1      44.953   3.426   9.408  0.00  0.00    +0.000 A 
ATOM     28  C   UNL     1      45.267   2.079   9.186  0.00  0.00    +0.000 A 
ATOM     29  C   UNL     1      46.111   1.711   8.136  0.00  0.00    +0.000 A 
ATOM     30  C   UNL     1      46.651   2.685   7.299  0.00  0.00    +0.000 A 
ATOM     31  C   UNL     1      46.339   4.027   7.504  0.00  0.00    +0.000 A 
ATOM     32  C   UNL     1      45.490   4.395   8.549  0.00  0.00    +0.000 A 
ENDBRANCH  26  27
ENDBRANCH  22  26
ENDBRANCH   4  22
TORSDOF 8
ENDMDL
MODEL 6
REMARK VINA RESULT:    -6.910      4.530      5.444
REMARK INTER + INTRA:         -11.127
REMARK INTER:                  -9.986
REMARK INTRA:                  -1.141
REMARK UNBOUND:                -1.187
REMARK  Name = 
REMARK  9 active torsions:
REMARK  status: ('A' for Active; 'I' for Inactive)
REMARK    1  A    between atoms: C_1  and  C_2
REMARK    2  A    between atoms: C_2  and  N_3
REMARK    3  A    between atoms: C_2  and  C_20
REMARK    4  A    between atoms: N_3  and  C_4
REMARK    5  A    between atoms: C_7  and  C_8
REMARK    6  A    between atoms: C_8  and  C_9
REMARK    7  A    between atoms: C_8  and  C_11
REMARK    8  A    between atoms: C_9  and  O_10
REMARK    9  A    between atoms: C_11  and  C_12
REMARK                            x       y       z     vdW  Elec       q    Type
REMARK                         _______ _______ _______ _____ _____    ______ ____
ROOT
ATOM      1  C   UNL     1      46.673   6.465  12.923  0.00  0.00    +0.000 A 
ATOM      2  C   UNL     1      46.788   6.635  11.542  0.00  0.00    +0.000 A 
ATOM      3  C   UNL     1      46.092   5.809  10.661  0.00  0.00    +0.000 A 
ATOM      4  C   UNL     1      45.301   4.789  11.179  0.00  0.00    +0.000 A 
ATOM      5  N   UNL     1      45.264   4.512  12.507  0.00  0.00    +0.000 NA
ATOM      6  C   UNL     1      45.973   5.331  13.330  0.00  0.00    +0.000 A 
ENDROOT
BRANCH   1   7
ATOM      7  N   UNL     1      47.321   7.367  13.772  0.00  0.00    +0.000 N 
ATOM      8  H   UNL     1      48.333   7.199  13.745  0.00  0.00    +0.000 HD
BRANCH   7  10
ATOM      9  C   UNL     1      45.686   9.091  13.024  0.00  0.00    +0.000 C 
ATOM     10  C   UNL     1      47.054   8.811  13.675  0.00  0.00    +0.000 C 
BRANCH  10  11
ATOM     11  C   UNL     1      48.115   9.603  12.917  0.00  0.00    +0.000 A 
ATOM     12  C   UNL     1      47.854  10.281  11.737  0.00  0.00    +0.000 A 
ATOM     13  S   UNL     1      49.242  10.996  11.046  0.00  0.00    +0.000 S 
ATOM     14  C   UNL     1      50.236  10.430  12.307  0.00  0.00    +0.000 A 
ATOM     15  N   UNL     1      51.573  10.682  12.315  0.00  0.00    +0.000 NA
ATOM     16  C   UNL     1      52.200  10.191  13.333  0.00  0.00    +0.000 A 
ATOM     17  N   UNL     1      51.612   9.475  14.347  0.00  0.00    +0.000 N 
ATOM     18  C   UNL     1      50.267   9.190  14.377  0.00  0.00    +0.000 A 
ATOM     19  O   UNL     1      49.774   8.542  15.296  0.00  0.00    +0.000 OA
ATOM     20  C   UNL     1      49.519   9.717  13.249  0.00  0.00    +0.000 A 
ATOM     21  H   UNL     1      52.159   9.132  15.121  0.00  0.00    +0.000 HD
ENDBRANCH  10  11
ENDBRANCH   7  10
ENDBRANCH   1   7
BRANCH   4  22
ATOM     22  C   UNL     1      44.299   4.077  10.281  0.00  0.00    +0.000 C 
BRANCH  22  23
ATOM     23  C   UNL     1      42.918   4.160  10.967  0.00  0.00    +0.000 C 
BRANCH  23  24
ATOM     24  O   UNL     1      42.586   5.490  11.367  0.00  0.00    +0.000 OA
ATOM     25  H   UNL     1      42.479   5.452  12.342  0.00  0.00    +0.000 HD
ENDBRANCH  23  24
ENDBRANCH  22  23
BRANCH  22  26
ATOM     26  C   UNL     1      44.731   2.639   9.941  0.00  0.00    +0.000 C 
BRANCH  26  27
ATOM     27  C   UNL     1      45.581   2.589   8.688  0.00  0.00    +0.000 A 
ATOM     28  C   UNL     1      45.687   3.706   7.850  0.00  0.00    +0.000 A 
ATOM     29  C   UNL     1      46.399   3.628   6.651  0.00  0.00    +0.000 A 
ATOM     30  C   UNL     1      47.009   2.432   6.276  0.00  0.00    +0.000 A 
ATOM     31  C   UNL     1      46.918   1.317   7.106  0.00  0.00    +0.000 A 
ATOM     32  C   UNL     1      46.213   1.396   8.308  0.00  0.00    +0.000 A 
ENDBRANCH  26  27
ENDBRANCH  22  26
ENDBRANCH   4  22
TORSDOF 8
ENDMDL
MODEL 7
REMARK VINA RESULT:    -6.754      1.864      2.524
REMARK INTER + INTRA:         -10.903
REMARK INTER:                  -9.581
REMARK INTRA:                  -1.322
REMARK UNBOUND:                -1.187
REMARK  Name = 
REMARK  9 active torsions:
REMARK  status: ('A' for Active; 'I' for Inactive)
REMARK    1  A    between atoms: C_1  and  C_2
REMARK    2  A    between atoms: C_2  and  N_3
REMARK    3  A    between atoms: C_2  and  C_20
REMARK    4  A    between atoms: N_3  and  C_4
REMARK    5  A    between atoms: C_7  and  C_8
REMARK    6  A    between atoms: C_8  and  C_9
REMARK    7  A    between atoms: C_8  and  C_11
REMARK    8  A    between atoms: C_9  and  O_10
REMARK    9  A    between atoms: C_11  and  C_12
REMARK                            x       y       z     vdW  Elec       q    Type
REMARK                         _______ _______ _______ _____ _____    ______ ____
ROOT
ATOM      1  C   UNL     1      48.170   5.468  15.499  0.00  0.00    +0.000 A 
ATOM      2  C   UNL     1      47.156   4.569  15.161  0.00  0.00    +0.000 A 
ATOM      3  C   UNL     1      46.364   4.779  14.033  0.00  0.00    +0.000 A 
ATOM      4  C   UNL     1      46.581   5.916  13.262  0.00  0.00    +0.000 A 
ATOM      5  N   UNL     1      47.470   6.874  13.628  0.00  0.00    +0.000 NA
ATOM      6  C   UNL     1      48.207   6.639  14.746  0.00  0.00    +0.000 A 
ENDROOT
BRANCH   1   7
ATOM      7  N   UNL     1      48.995   5.177  16.590  0.00  0.00    +0.000 N 
ATOM      8  H   UNL     1      48.931   5.934  17.281  0.00  0.00    +0.000 HD
BRANCH   7  10
ATOM      9  C   UNL     1      48.236   4.001  18.650  0.00  0.00    +0.000 C 
ATOM     10  C   UNL     1      48.907   3.875  17.269  0.00  0.00    +0.000 C 
BRANCH  10  11
ATOM     11  C   UNL     1      50.243   3.161  17.450  0.00  0.00    +0.000 A 
ATOM     12  C   UNL     1      50.447   1.836  17.099  0.00  0.00    +0.000 A 
ATOM     13  S   UNL     1      52.001   1.259  17.505  0.00  0.00    +0.000 S 
ATOM     14  C   UNL     1      52.456   2.764  18.157  0.00  0.00    +0.000 A 
ATOM     15  N   UNL     1      53.688   2.950  18.704  0.00  0.00    +0.000 NA
ATOM     16  C   UNL     1      53.893   4.142  19.158  0.00  0.00    +0.000 A 
ATOM     17  N   UNL     1      52.981   5.168  19.111  0.00  0.00    +0.000 N 
ATOM     18  C   UNL     1      51.724   5.026  18.574  0.00  0.00    +0.000 A 
ATOM     19  O   UNL     1      50.930   5.962  18.553  0.00  0.00    +0.000 OA
ATOM     20  C   UNL     1      51.443   3.698  18.054  0.00  0.00    +0.000 A 
ATOM     21  H   UNL     1      53.213   6.080  19.473  0.00  0.00    +0.000 HD
ENDBRANCH  10  11
ENDBRANCH   7  10
ENDBRANCH   1   7
BRANCH   4  22
ATOM     22  C   UNL     1      45.961   6.020  11.875  0.00  0.00    +0.000 C 
BRANCH  22  23
ATOM     23  C   UNL     1      45.519   7.485  11.671  0.00  0.00    +0.000 C 
BRANCH  23  24
ATOM     24  O   UNL     1      44.898   8.034  12.834  0.00  0.00    +0.000 OA
ATOM     25  H   UNL     1      44.534   8.901  12.552  0.00  0.00    +0.000 HD
ENDBRANCH  23  24
ENDBRANCH  22  23
BRANCH  22  26
ATOM     26  C   UNL     1      44.827   5.000  11.660  0.00  0.00    +0.000 C 
BRANCH  26  27
ATOM     27  C   UNL     1      45.002   4.230  10.367  0.00  0.00    +0.000 A 
ATOM     28  C   UNL     1      44.656   2.875  10.288  0.00  0.00    +0.000 A 
ATOM     29  C   UNL     1      44.902   2.147   9.122  0.00  0.00    +0.000 A 
ATOM     30  C   UNL     1      45.499   2.764   8.025  0.00  0.00    +0.000 A 
ATOM     31  C   UNL     1      45.839   4.114   8.088  0.00  0.00    +0.000 A 
ATOM     32  C   UNL     1      45.587   4.844   9.250  0.00  0.00    +0.000 A 
ENDBRANCH  26  27
ENDBRANCH  22  26
ENDBRANCH   4  22
TORSDOF 8
ENDMDL
MODEL 8
REMARK VINA RESULT:    -6.598      3.576      4.923
REMARK INTER + INTRA:         -10.679
REMARK INTER:                  -9.918
REMARK INTRA:                  -0.761
REMARK UNBOUND:                -1.187
REMARK  Name = 
REMARK  9 active torsions:
REMARK  status: ('A' for Active; 'I' for Inactive)
REMARK    1  A    between atoms: C_1  and  C_2
REMARK    2  A    between atoms: C_2  and  N_3
REMARK    3  A    between atoms: C_2  and  C_20
REMARK    4  A    between atoms: N_3  and  C_4
REMARK    5  A    between atoms: C_7  and  C_8
REMARK    6  A    between atoms: C_8  and  C_9
REMARK    7  A    between atoms: C_8  and  C_11
REMARK    8  A    between atoms: C_9  and  O_10
REMARK    9  A    between atoms: C_11  and  C_12
REMARK                            x       y       z     vdW  Elec       q    Type
REMARK                         _______ _______ _______ _____ _____    ______ ____
ROOT
ATOM      1  C   UNL     1      47.166   6.686  12.955  0.00  0.00    +0.000 A 
ATOM      2  C   UNL     1      46.565   7.121  11.772  0.00  0.00    +0.000 A 
ATOM      3  C   UNL     1      45.671   6.302  11.083  0.00  0.00    +0.000 A 
ATOM      4  C   UNL     1      45.408   5.030  11.578  0.00  0.00    +0.000 A 
ATOM      5  N   UNL     1      46.067   4.525  12.652  0.00  0.00    +0.000 NA
ATOM      6  C   UNL     1      46.945   5.350  13.283  0.00  0.00    +0.000 A 
ENDROOT
BRANCH   1   7
ATOM      7  N   UNL     1      47.992   7.569  13.658  0.00  0.00    +0.000 N 
ATOM      8  H   UNL     1      47.433   8.092  14.343  0.00  0.00    +0.000 HD
BRANCH   7  10
ATOM      9  C   UNL     1      48.998   6.672  15.752  0.00  0.00    +0.000 C 
ATOM     10  C   UNL     1      49.232   7.092  14.289  0.00  0.00    +0.000 C 
BRANCH  10  11
ATOM     11  C   UNL     1      50.386   8.091  14.257  0.00  0.00    +0.000 A 
ATOM     12  C   UNL     1      50.917   8.669  15.399  0.00  0.00    +0.000 A 
ATOM     13  S   UNL     1      52.126   9.828  15.070  0.00  0.00    +0.000 S 
ATOM     14  C   UNL     1      51.985   9.589  13.391  0.00  0.00    +0.000 A 
ATOM     15  N   UNL     1      52.744  10.301  12.513  0.00  0.00    +0.000 NA
ATOM     16  C   UNL     1      52.529  10.014  11.272  0.00  0.00    +0.000 A 
ATOM     17  N   UNL     1      51.631   9.075  10.827  0.00  0.00    +0.000 N 
ATOM     18  C   UNL     1      50.839   8.338  11.675  0.00  0.00    +0.000 A 
ATOM     19  O   UNL     1      50.041   7.511  11.244  0.00  0.00    +0.000 OA
ATOM     20  C   UNL     1      51.039   8.630  13.084  0.00  0.00    +0.000 A 
ATOM     21  H   UNL     1      51.523   8.891   9.842  0.00  0.00    +0.000 HD
ENDBRANCH  10  11
ENDBRANCH   7  10
ENDBRANCH   1   7
BRANCH   4  22
ATOM     22  C   UNL     1      44.224   4.238  11.040  0.00  0.00    +0.000 C 
BRANCH  22  23
ATOM     23  C   UNL     1      44.374   2.783  11.534  0.00  0.00    +0.000 C 
BRANCH  23  24
ATOM     24  O   UNL     1      43.751   2.570  12.802  0.00  0.00    +0.000 OA
ATOM     25  H   UNL     1      42.853   2.959  12.722  0.00  0.00    +0.000 HD
ENDBRANCH  23  24
ENDBRANCH  22  23
BRANCH  22  26
ATOM     26  C   UNL     1      44.083   4.356   9.511  0.00  0.00    +0.000 C 
BRANCH  26  27
ATOM     27  C   UNL     1      45.148   3.558   8.786  0.00  0.00    +0.000 A 
ATOM     28  C   UNL     1      46.053   4.190   7.923  0.00  0.00    +0.000 A 
ATOM     29  C   UNL     1      46.974   3.441   7.188  0.00  0.00    +0.000 A 
ATOM     30  C   UNL     1      46.998   2.052   7.306  0.00  0.00    +0.000 A 
ATOM     31  C   UNL     1      46.110   1.413   8.168  0.00  0.00    +0.000 A 
ATOM     32  C   UNL     1      45.194   2.162   8.908  0.00  0.00    +0.000 A 
ENDBRANCH  26  27
ENDBRANCH  22  26
ENDBRANCH   4  22
TORSDOF 8
ENDMDL
MODEL 9
REMARK VINA RESULT:    -6.558      3.416      8.744
REMARK INTER + INTRA:         -10.621
REMARK INTER:                  -9.333
REMARK INTRA:                  -1.288
REMARK UNBOUND:                -1.187
REMARK  Name = 
REMARK  9 active torsions:
REMARK  status: ('A' for Active; 'I' for Inactive)
REMARK    1  A    between atoms: C_1  and  C_2
REMARK    2  A    between atoms: C_2  and  N_3
REMARK    3  A    between atoms: C_2  and  C_20
REMARK    4  A    between atoms: N_3  and  C_4
REMARK    5  A    between atoms: C_7  and  C_8
REMARK    6  A    between atoms: C_8  and  C_9
REMARK    7  A    between atoms: C_8  and  C_11
REMARK    8  A    between atoms: C_9  and  O_10
REMARK    9  A    between atoms: C_11  and  C_12
REMARK                            x       y       z     vdW  Elec       q    Type
REMARK                         _______ _______ _______ _____ _____    ______ ____
ROOT
ATOM      1  C   UNL     1      48.232   6.233  15.438  0.00  0.00    +0.000 A 
ATOM      2  C   UNL     1      49.352   6.867  15.980  0.00  0.00    +0.000 A 
ATOM      3  C   UNL     1      50.096   6.259  16.991  0.00  0.00    +0.000 A 
ATOM      4  C   UNL     1      49.686   5.021  17.474  0.00  0.00    +0.000 A 
ATOM      5  N   UNL     1      48.535   4.433  17.061  0.00  0.00    +0.000 NA
ATOM      6  C   UNL     1      47.829   5.069  16.088  0.00  0.00    +0.000 A 
ENDROOT
BRANCH   1   7
ATOM      7  N   UNL     1      47.564   6.839  14.369  0.00  0.00    +0.000 N 
ATOM      8  H   UNL     1      47.848   7.823  14.298  0.00  0.00    +0.000 HD
BRANCH   7  10
ATOM      9  C   UNL     1      48.477   6.998  12.057  0.00  0.00    +0.000 C 
ATOM     10  C   UNL     1      47.574   6.221  13.033  0.00  0.00    +0.000 C 
BRANCH  10  11
ATOM     11  C   UNL     1      46.197   6.070  12.393  0.00  0.00    +0.000 A 
ATOM     12  C   UNL     1      45.509   7.127  11.820  0.00  0.00    +0.000 A 
ATOM     13  S   UNL     1      43.949   6.701  11.273  0.00  0.00    +0.000 S 
ATOM     14  C   UNL     1      44.145   5.087  11.777  0.00  0.00    +0.000 A 
ATOM     15  N   UNL     1      43.150   4.174  11.616  0.00  0.00    +0.000 NA
ATOM     16  C   UNL     1      43.440   2.991  12.045  0.00  0.00    +0.000 A 
ATOM     17  N   UNL     1      44.638   2.634  12.615  0.00  0.00    +0.000 N 
ATOM     18  C   UNL     1      45.669   3.523  12.804  0.00  0.00    +0.000 A 
ATOM     19  O   UNL     1      46.725   3.173  13.323  0.00  0.00    +0.000 OA
ATOM     20  C   UNL     1      45.388   4.871  12.343  0.00  0.00    +0.000 A 
ATOM     21  H   UNL     1      44.803   1.686  12.916  0.00  0.00    +0.000 HD
ENDBRANCH  10  11
ENDBRANCH   7  10
ENDBRANCH   1   7
BRANCH   4  22
ATOM     22  C   UNL     1      50.629   4.197  18.340  0.00  0.00    +0.000 C 
BRANCH  22  23
ATOM     23  C   UNL     1      50.304   4.514  19.815  0.00  0.00    +0.000 C 
BRANCH  23  24
ATOM     24  O   UNL     1      49.010   4.048  20.201  0.00  0.00    +0.000 OA
ATOM     25  H   UNL     1      48.603   4.788  20.701  0.00  0.00    +0.000 HD
ENDBRANCH  23  24
ENDBRANCH  22  23
BRANCH  22  26
ATOM     26  C   UNL     1      52.109   4.421  17.976  0.00  0.00    +0.000 C 
BRANCH  26  27
ATOM     27  C   UNL     1      52.855   3.111  17.825  0.00  0.00    +0.000 A 
ATOM     28  C   UNL     1      54.249   3.092  17.688  0.00  0.00    +0.000 A 
ATOM     29  C   UNL     1      54.923   1.891  17.460  0.00  0.00    +0.000 A 
ATOM     30  C   UNL     1      54.212   0.697  17.362  0.00  0.00    +0.000 A 
ATOM     31  C   UNL     1      52.826   0.701  17.505  0.00  0.00    +0.000 A 
ATOM     32  C   UNL     1      52.152   1.900  17.740  0.00  0.00    +0.000 A 
ENDBRANCH  26  27
ENDBRANCH  22  26
ENDBRANCH   4  22
TORSDOF 8
ENDMDL
