MODEL 1
REMARK VINA RESULT:    -7.924      0.000      0.000
REMARK INTER + INTRA:         -10.837
REMARK INTER:                 -10.241
REMARK INTRA:                  -0.597
REMARK UNBOUND:                -0.597
REMARK  Name = 
REMARK  6 active torsions:
REMARK  status: ('A' for Active; 'I' for Inactive)
REMARK    1  A    between atoms: N_1  and  C_2
REMARK    2  A    between atoms: C_2  and  C_3
REMARK    3  A    between atoms: C_6  and  O_7
REMARK    4  A    between atoms: O_7  and  C_8
REMARK    5  A    between atoms: C_8  and  C_9
REMARK    6  A    between atoms: C_15  and  N_16
REMARK                            x       y       z     vdW  Elec       q    Type
REMARK                         _______ _______ _______ _____ _____    ______ ____
ROOT
ATOM      1  C   UNL     1      43.770   4.657  10.319  0.00  0.00    +0.000 C 
ENDROOT
BRANCH   1   2
ATOM      2  C   UNL     1      44.672   4.804  11.520  0.00  0.00    +0.000 A 
ATOM      3  N   UNL     1      45.545   5.850  11.534  0.00  0.00    +0.000 NA
ATOM      4  C   UNL     1      46.337   5.924  12.628  0.00  0.00    +0.000 A 
ATOM      5  C   UNL     1      46.300   4.994  13.664  0.00  0.00    +0.000 A 
ATOM      6  N   UNL     1      47.111   5.113  14.792  0.00  0.00    +0.000 N 
ATOM      7  N   UNL     1      45.438   3.961  13.643  0.00  0.00    +0.000 NA
ATOM      8  C   UNL     1      44.618   3.876  12.572  0.00  0.00    +0.000 A 
ATOM      9  H   UNL     1      48.091   5.211  14.551  0.00  0.00    +0.000 HD
ATOM     10  H   UNL     1      46.943   4.292  15.370  0.00  0.00    +0.000 HD
BRANCH   8  11
ATOM     11  N   UNL     1      43.758   2.775  12.559  0.00  0.00    +0.000 N 
ATOM     12  H   UNL     1      44.283   1.977  12.910  0.00  0.00    +0.000 HD
ATOM     13  H   UNL     1      42.928   2.962  13.118  0.00  0.00    +0.000 HD
ENDBRANCH   8  11
ENDBRANCH   1   2
BRANCH   1  14
ATOM     14  O   UNL     1      43.850   3.311   9.829  0.00  0.00    +0.000 OA
BRANCH  14  18
ATOM     15  C   UNL     1      46.941   2.319   7.196  0.00  0.00    +0.000 A 
ATOM     16  C   UNL     1      46.490   3.645   7.250  0.00  0.00    +0.000 A 
ATOM     17  C   UNL     1      45.457   4.017   8.118  0.00  0.00    +0.000 A 
ATOM     18  C   UNL     1      44.858   3.064   8.938  0.00  0.00    +0.000 A 
ATOM     19  C   UNL     1      45.327   1.749   8.917  0.00  0.00    +0.000 A 
ATOM     20  C   UNL     1      46.354   1.375   8.047  0.00  0.00    +0.000 A 
BRANCH  15  21
ATOM     21  C   UNL     1      48.013   1.910   6.217  0.00  0.00    +0.000 C 
BRANCH  21  22
ATOM     22  N   UNL     1      48.159   2.875   5.134  0.00  0.00    +0.000 NA
ATOM     23  H   UNL     1      48.611   2.421   4.344  0.00  0.00    +0.000 HD
ATOM     24  H   UNL     1      48.792   3.615   5.440  0.00  0.00    +0.000 HD
ENDBRANCH  21  22
ENDBRANCH  15  21
ENDBRANCH  14  18
ENDBRANCH   1  14
TORSDOF 6
ENDMDL
MODEL 2
REMARK VINA RESULT:    -7.909      1.052      1.532
REMARK INTER + INTRA:         -10.818
REMARK INTER:                 -10.167
REMARK INTRA:                  -0.651
REMARK UNBOUND:                -0.597
REMARK  Name = 
REMARK  6 active torsions:
REMARK  status: ('A' for Active; 'I' for Inactive)
REMARK    1  A    between atoms: N_1  and  C_2
REMARK    2  A    between atoms: C_2  and  C_3
REMARK    3  A    between atoms: C_6  and  O_7
REMARK    4  A    between atoms: O_7  and  C_8
REMARK    5  A    between atoms: C_8  and  C_9
REMARK    6  A    between atoms: C_15  and  N_16
REMARK                            x       y       z     vdW  Elec       q    Type
REMARK                         _______ _______ _______ _____ _____    ______ ____
ROOT
ATOM      1  C   UNL     1      43.552   3.356  11.391  0.00  0.00    +0.000 C 
ENDROOT
BRANCH   1   2
ATOM      2  C   UNL     1      44.621   4.029  12.218  0.00  0.00    +0.000 A 
ATOM      3  N   UNL     1      45.610   3.248  12.735  0.00  0.00    +0.000 NA
ATOM      4  C   UNL     1      46.533   3.903  13.477  0.00  0.00    +0.000 A 
ATOM      5  C   UNL     1      46.480   5.271  13.730  0.00  0.00    +0.000 A 
ATOM      6  N   UNL     1      47.461   5.922  14.477  0.00  0.00    +0.000 N 
ATOM      7  N   UNL     1      45.499   6.038  13.219  0.00  0.00    +0.000 NA
ATOM      8  C   UNL     1      44.577   5.413  12.454  0.00  0.00    +0.000 A 
ATOM      9  H   UNL     1      47.609   5.485  15.380  0.00  0.00    +0.000 HD
ATOM     10  H   UNL     1      47.173   6.894  14.569  0.00  0.00    +0.000 HD
BRANCH   8  11
ATOM     11  N   UNL     1      43.550   6.225  11.965  0.00  0.00    +0.000 N 
ATOM     12  H   UNL     1      43.980   7.084  11.628  0.00  0.00    +0.000 HD
ATOM     13  H   UNL     1      43.031   5.744  11.233  0.00  0.00    +0.000 HD
ENDBRANCH   8  11
ENDBRANCH   1   2
BRANCH   1  14
ATOM     14  O   UNL     1      43.550   3.919  10.072  0.00  0.00    +0.000 OA
BRANCH  14  18
ATOM     15  C   UNL     1      46.512   2.302   7.604  0.00  0.00    +0.000 A 
ATOM     16  C   UNL     1      46.305   3.689   7.604  0.00  0.00    +0.000 A 
ATOM     17  C   UNL     1      45.324   4.269   8.416  0.00  0.00    +0.000 A 
ATOM     18  C   UNL     1      44.531   3.466   9.233  0.00  0.00    +0.000 A 
ATOM     19  C   UNL     1      44.755   2.089   9.267  0.00  0.00    +0.000 A 
ATOM     20  C   UNL     1      45.731   1.508   8.453  0.00  0.00    +0.000 A 
BRANCH  15  21
ATOM     21  C   UNL     1      47.529   1.676   6.684  0.00  0.00    +0.000 C 
BRANCH  21  22
ATOM     22  N   UNL     1      48.619   2.592   6.372  0.00  0.00    +0.000 NA
ATOM     23  H   UNL     1      49.049   2.309   5.493  0.00  0.00    +0.000 HD
ATOM     24  H   UNL     1      49.340   2.498   7.087  0.00  0.00    +0.000 HD
ENDBRANCH  21  22
ENDBRANCH  15  21
ENDBRANCH  14  18
ENDBRANCH   1  14
TORSDOF 6
ENDMDL
MODEL 3
REMARK VINA RESULT:    -7.516      1.490      2.366
REMARK INTER + INTRA:         -10.310
REMARK INTER:                  -9.664
REMARK INTRA:                  -0.646
REMARK UNBOUND:                -0.597
REMARK  Name = 
REMARK  6 active torsions:
REMARK  status: ('A' for Active; 'I' for Inactive)
REMARK    1  A    between atoms: N_1  and  C_2
REMARK    2  A    between atoms: C_2  and  C_3
REMARK    3  A    between atoms: C_6  and  O_7
REMARK    4  A    between atoms: O_7  and  C_8
REMARK    5  A    between atoms: C_8  and  C_9
REMARK    6  A    between atoms: C_15  and  N_16
REMARK                            x       y       z     vdW  Elec       q    Type
REMARK                         _______ _______ _______ _____ _____    ______ ____
ROOT
ATOM      1  C   UNL     1      43.284   4.618  11.095  0.00  0.00    +0.000 C 
ENDROOT
BRANCH   1   2
ATOM      2  C   UNL     1      44.446   5.090  11.935  0.00  0.00    +0.000 A 
ATOM      3  N   UNL     1      45.128   4.158  12.657  0.00  0.00    +0.000 NA
ATOM      4  C   UNL     1      46.150   4.640  13.400  0.00  0.00    +0.000 A 
ATOM      5  C   UNL     1      46.483   5.991  13.459  0.00  0.00    +0.000 A 
ATOM      6  N   UNL     1      47.560   6.455  14.214  0.00  0.00    +0.000 N 
ATOM      7  N   UNL     1      45.804   6.908  12.746  0.00  0.00    +0.000 NA
ATOM      8  C   UNL     1      44.791   6.451  11.976  0.00  0.00    +0.000 A 
ATOM      9  H   UNL     1      47.514   6.144  15.178  0.00  0.00    +0.000 HD
ATOM     10  H   UNL     1      47.562   7.470  14.142  0.00  0.00    +0.000 HD
BRANCH   8  11
ATOM     11  N   UNL     1      44.081   7.427  11.274  0.00  0.00    +0.000 N 
ATOM     12  H   UNL     1      43.914   7.064  10.337  0.00  0.00    +0.000 HD
ATOM     13  H   UNL     1      43.213   7.655  11.755  0.00  0.00    +0.000 HD
ENDBRANCH   8  11
ENDBRANCH   1   2
BRANCH   1  14
ATOM     14  O   UNL     1      43.603   4.788   9.707  0.00  0.00    +0.000 OA
BRANCH  14  18
ATOM     15  C   UNL     1      46.200   2.050   7.907  0.00  0.00    +0.000 A 
ATOM     16  C   UNL     1      45.241   1.585   8.818  0.00  0.00    +0.000 A 
ATOM     17  C   UNL     1      44.354   2.469   9.442  0.00  0.00    +0.000 A 
ATOM     18  C   UNL     1      44.420   3.833   9.167  0.00  0.00    +0.000 A 
ATOM     19  C   UNL     1      45.346   4.300   8.232  0.00  0.00    +0.000 A 
ATOM     20  C   UNL     1      46.236   3.418   7.613  0.00  0.00    +0.000 A 
BRANCH  15  21
ATOM     21  C   UNL     1      47.192   1.102   7.283  0.00  0.00    +0.000 C 
BRANCH  21  22
ATOM     22  N   UNL     1      46.969  -0.275   7.704  0.00  0.00    +0.000 NA
ATOM     23  H   UNL     1      46.018  -0.365   8.057  0.00  0.00    +0.000 HD
ATOM     24  H   UNL     1      47.586  -0.480   8.490  0.00  0.00    +0.000 HD
ENDBRANCH  21  22
ENDBRANCH  15  21
ENDBRANCH  14  18
ENDBRANCH   1  14
TORSDOF 6
ENDMDL
MODEL 4
REMARK VINA RESULT:    -6.963      2.044      5.713
REMARK INTER + INTRA:          -9.595
REMARK INTER:                  -8.994
REMARK INTRA:                  -0.601
REMARK UNBOUND:                -0.597
REMARK  Name = 
REMARK  6 active torsions:
REMARK  status: ('A' for Active; 'I' for Inactive)
REMARK    1  A    between atoms: N_1  and  C_2
REMARK    2  A    between atoms: C_2  and  C_3
REMARK    3  A    between atoms: C_6  and  O_7
REMARK    4  A    between atoms: O_7  and  C_8
REMARK    5  A    between atoms: C_8  and  C_9
REMARK    6  A    between atoms: C_15  and  N_16
REMARK                            x       y       z     vdW  Elec       q    Type
REMARK                         _______ _______ _______ _____ _____    ______ ____
ROOT
ATOM      1  C   UNL     1      44.133   4.384   9.371  0.00  0.00    +0.000 C 
ENDROOT
BRANCH   1   2
ATOM      2  C   UNL     1      45.245   3.701   8.612  0.00  0.00    +0.000 A 
ATOM      3  N   UNL     1      46.059   4.477   7.843  0.00  0.00    +0.000 NA
ATOM      4  C   UNL     1      47.029   3.809   7.176  0.00  0.00    +0.000 A 
ATOM      5  C   UNL     1      47.185   2.427   7.235  0.00  0.00    +0.000 A 
ATOM      6  N   UNL     1      48.212   1.770   6.557  0.00  0.00    +0.000 N 
ATOM      7  N   UNL     1      46.377   1.665   7.994  0.00  0.00    +0.000 NA
ATOM      8  C   UNL     1      45.413   2.309   8.689  0.00  0.00    +0.000 A 
ATOM      9  H   UNL     1      48.230   2.004   5.571  0.00  0.00    +0.000 HD
ATOM     10  H   UNL     1      48.082   0.773   6.709  0.00  0.00    +0.000 HD
BRANCH   8  11
ATOM     11  N   UNL     1      44.566   1.491   9.442  0.00  0.00    +0.000 N 
ATOM     12  H   UNL     1      45.155   0.887  10.011  0.00  0.00    +0.000 HD
ATOM     13  H   UNL     1      43.935   2.054  10.009  0.00  0.00    +0.000 HD
ENDBRANCH   8  11
ENDBRANCH   1   2
BRANCH   1  14
ATOM     14  O   UNL     1      44.220   4.029  10.758  0.00  0.00    +0.000 OA
BRANCH  14  18
ATOM     15  C   UNL     1      47.067   5.935  13.155  0.00  0.00    +0.000 A 
ATOM     16  C   UNL     1      46.576   6.596  12.020  0.00  0.00    +0.000 A 
ATOM     17  C   UNL     1      45.623   5.993  11.192  0.00  0.00    +0.000 A 
ATOM     18  C   UNL     1      45.153   4.714  11.487  0.00  0.00    +0.000 A 
ATOM     19  C   UNL     1      45.609   4.064  12.635  0.00  0.00    +0.000 A 
ATOM     20  C   UNL     1      46.565   4.664  13.459  0.00  0.00    +0.000 A 
BRANCH  15  21
ATOM     21  C   UNL     1      48.136   6.565  14.010  0.00  0.00    +0.000 C 
BRANCH  21  22
ATOM     22  N   UNL     1      49.398   6.700  13.293  0.00  0.00    +0.000 NA
ATOM     23  H   UNL     1      50.082   6.068  13.703  0.00  0.00    +0.000 HD
ATOM     24  H   UNL     1      49.757   7.644  13.440  0.00  0.00    +0.000 HD
ENDBRANCH  21  22
ENDBRANCH  15  21
ENDBRANCH  14  18
ENDBRANCH   1  14
TORSDOF 6
ENDMDL
MODEL 5
REMARK VINA RESULT:    -5.974      2.451      5.549
REMARK INTER + INTRA:          -8.317
REMARK INTER:                  -7.961
REMARK INTRA:                  -0.356
REMARK UNBOUND:                -0.597
REMARK  Name = 
REMARK  6 active torsions:
REMARK  status: ('A' for Active; 'I' for Inactive)
REMARK    1  A    between atoms: N_1  and  C_2
REMARK    2  A    between atoms: C_2  and  C_3
REMARK    3  A    between atoms: C_6  and  O_7
REMARK    4  A    between atoms: O_7  and  C_8
REMARK    5  A    between atoms: C_8  and  C_9
REMARK    6  A    between atoms: C_15  and  N_16
REMARK                            x       y       z     vdW  Elec       q    Type
REMARK                         _______ _______ _______ _____ _____    ______ ____
ROOT
ATOM      1  C   UNL     1      42.668   5.186  11.767  0.00  0.00    +0.000 C 
ENDROOT
BRANCH   1   2
ATOM      2  C   UNL     1      43.479   4.338  10.816  0.00  0.00    +0.000 A 
ATOM      3  N   UNL     1      43.799   4.871   9.605  0.00  0.00    +0.000 NA
ATOM      4  C   UNL     1      44.514   4.062   8.790  0.00  0.00    +0.000 A 
ATOM      5  C   UNL     1      44.883   2.764   9.133  0.00  0.00    +0.000 A 
ATOM      6  N   UNL     1      45.644   1.962   8.282  0.00  0.00    +0.000 N 
ATOM      7  N   UNL     1      44.561   2.240  10.331  0.00  0.00    +0.000 NA
ATOM      8  C   UNL     1      43.866   3.036  11.173  0.00  0.00    +0.000 A 
ATOM      9  H   UNL     1      45.238   1.893   7.356  0.00  0.00    +0.000 HD
ATOM     10  H   UNL     1      45.733   1.052   8.727  0.00  0.00    +0.000 HD
BRANCH   8  11
ATOM     11  N   UNL     1      43.515   2.457  12.395  0.00  0.00    +0.000 N 
ATOM     12  H   UNL     1      44.214   2.741  13.077  0.00  0.00    +0.000 HD
ATOM     13  H   UNL     1      42.576   2.741  12.669  0.00  0.00    +0.000 HD
ENDBRANCH   8  11
ENDBRANCH   1   2
BRANCH   1  14
ATOM     14  O   UNL     1      43.339   5.249  13.033  0.00  0.00    +0.000 OA
BRANCH  14  18
ATOM     15  C   UNL     1      47.104   7.053  12.819  0.00  0.00    +0.000 A 
ATOM     16  C   UNL     1      46.979   5.805  13.444  0.00  0.00    +0.000 A 
ATOM     17  C   UNL     1      45.737   5.168  13.537  0.00  0.00    +0.000 A 
ATOM     18  C   UNL     1      44.600   5.777  13.009  0.00  0.00    +0.000 A 
ATOM     19  C   UNL     1      44.722   7.002  12.352  0.00  0.00    +0.000 A 
ATOM     20  C   UNL     1      45.961   7.642  12.264  0.00  0.00    +0.000 A 
BRANCH  15  21
ATOM     21  C   UNL     1      48.434   7.762  12.774  0.00  0.00    +0.000 C 
BRANCH  21  22
ATOM     22  N   UNL     1      49.550   6.838  12.926  0.00  0.00    +0.000 NA
ATOM     23  H   UNL     1      49.188   5.919  13.175  0.00  0.00    +0.000 HD
ATOM     24  H   UNL     1      50.122   7.143  13.713  0.00  0.00    +0.000 HD
ENDBRANCH  21  22
ENDBRANCH  15  21
ENDBRANCH  14  18
ENDBRANCH   1  14
TORSDOF 6
ENDMDL
MODEL 6
REMARK VINA RESULT:    -5.868      4.195      7.924
REMARK INTER + INTRA:          -8.180
REMARK INTER:                  -7.631
REMARK INTRA:                  -0.548
REMARK UNBOUND:                -0.597
REMARK  Name = 
REMARK  6 active torsions:
REMARK  status: ('A' for Active; 'I' for Inactive)
REMARK    1  A    between atoms: N_1  and  C_2
REMARK    2  A    between atoms: C_2  and  C_3
REMARK    3  A    between atoms: C_6  and  O_7
REMARK    4  A    between atoms: O_7  and  C_8
REMARK    5  A    between atoms: C_8  and  C_9
REMARK    6  A    between atoms: C_15  and  N_16
REMARK                            x       y       z     vdW  Elec       q    Type
REMARK                         _______ _______ _______ _____ _____    ______ ____
ROOT
ATOM      1  C   UNL     1      47.224   4.417  13.681  0.00  0.00    +0.000 C 
ENDROOT
BRANCH   1   2
ATOM      2  C   UNL     1      46.034   5.049  13.000  0.00  0.00    +0.000 A 
ATOM      3  N   UNL     1      45.970   6.410  12.967  0.00  0.00    +0.000 NA
ATOM      4  C   UNL     1      44.876   6.920  12.355  0.00  0.00    +0.000 A 
ATOM      5  C   UNL     1      43.863   6.131  11.817  0.00  0.00    +0.000 A 
ATOM      6  N   UNL     1      42.760   6.687  11.169  0.00  0.00    +0.000 N 
ATOM      7  N   UNL     1      43.930   4.787  11.856  0.00  0.00    +0.000 NA
ATOM      8  C   UNL     1      45.024   4.251  12.440  0.00  0.00    +0.000 A 
ATOM      9  H   UNL     1      42.290   7.380  11.740  0.00  0.00    +0.000 HD
ATOM     10  H   UNL     1      42.141   5.918  10.919  0.00  0.00    +0.000 HD
BRANCH   8  11
ATOM     11  N   UNL     1      45.052   2.855  12.498  0.00  0.00    +0.000 N 
ATOM     12  H   UNL     1      45.220   2.596  13.468  0.00  0.00    +0.000 HD
ATOM     13  H   UNL     1      44.180   2.465  12.145  0.00  0.00    +0.000 HD
ENDBRANCH   8  11
ENDBRANCH   1   2
BRANCH   1  14
ATOM     14  O   UNL     1      46.779   3.698  14.839  0.00  0.00    +0.000 OA
BRANCH  14  18
ATOM     15  C   UNL     1      48.577   4.491  18.529  0.00  0.00    +0.000 A 
ATOM     16  C   UNL     1      48.606   5.474  17.529  0.00  0.00    +0.000 A 
ATOM     17  C   UNL     1      48.015   5.247  16.281  0.00  0.00    +0.000 A 
ATOM     18  C   UNL     1      47.394   4.029  16.015  0.00  0.00    +0.000 A 
ATOM     19  C   UNL     1      47.328   3.060  17.017  0.00  0.00    +0.000 A 
ATOM     20  C   UNL     1      47.922   3.283  18.262  0.00  0.00    +0.000 A 
BRANCH  15  21
ATOM     21  C   UNL     1      49.265   4.718  19.851  0.00  0.00    +0.000 C 
BRANCH  21  22
ATOM     22  N   UNL     1      48.600   4.013  20.940  0.00  0.00    +0.000 NA
ATOM     23  H   UNL     1      48.279   3.108  20.602  0.00  0.00    +0.000 HD
ATOM     24  H   UNL     1      47.764   4.534  21.203  0.00  0.00    +0.000 HD
ENDBRANCH  21  22
ENDBRANCH  15  21
ENDBRANCH  14  18
ENDBRANCH   1  14
TORSDOF 6
ENDMDL
MODEL 7
REMARK VINA RESULT:    -5.677      4.616      8.039
REMARK INTER + INTRA:          -7.933
REMARK INTER:                  -7.596
REMARK INTRA:                  -0.337
REMARK UNBOUND:                -0.597
REMARK  Name = 
REMARK  6 active torsions:
REMARK  status: ('A' for Active; 'I' for Inactive)
REMARK    1  A    between atoms: N_1  and  C_2
REMARK    2  A    between atoms: C_2  and  C_3
REMARK    3  A    between atoms: C_6  and  O_7
REMARK    4  A    between atoms: O_7  and  C_8
REMARK    5  A    between atoms: C_8  and  C_9
REMARK    6  A    between atoms: C_15  and  N_16
REMARK                            x       y       z     vdW  Elec       q    Type
REMARK                         _______ _______ _______ _____ _____    ______ ____
ROOT
ATOM      1  C   UNL     1      47.085   4.660  13.637  0.00  0.00    +0.000 C 
ENDROOT
BRANCH   1   2
ATOM      2  C   UNL     1      45.695   4.992  13.152  0.00  0.00    +0.000 A 
ATOM      3  N   UNL     1      44.717   4.062  13.344  0.00  0.00    +0.000 NA
ATOM      4  C   UNL     1      43.495   4.408  12.878  0.00  0.00    +0.000 A 
ATOM      5  C   UNL     1      43.238   5.610  12.223  0.00  0.00    +0.000 A 
ATOM      6  N   UNL     1      41.960   5.950  11.777  0.00  0.00    +0.000 N 
ATOM      7  N   UNL     1      44.208   6.523  12.034  0.00  0.00    +0.000 NA
ATOM      8  C   UNL     1      45.434   6.213  12.510  0.00  0.00    +0.000 A 
ATOM      9  H   UNL     1      41.554   5.229  11.192  0.00  0.00    +0.000 HD
ATOM     10  H   UNL     1      42.040   6.838  11.287  0.00  0.00    +0.000 HD
BRANCH   8  11
ATOM     11  N   UNL     1      46.431   7.162  12.270  0.00  0.00    +0.000 N 
ATOM     12  H   UNL     1      47.208   6.678  11.824  0.00  0.00    +0.000 HD
ATOM     13  H   UNL     1      46.072   7.920  11.693  0.00  0.00    +0.000 HD
ENDBRANCH   8  11
ENDBRANCH   1   2
BRANCH   1  14
ATOM     14  O   UNL     1      47.003   3.658  14.660  0.00  0.00    +0.000 OA
BRANCH  14  18
ATOM     15  C   UNL     1      48.562   4.486  18.450  0.00  0.00    +0.000 A 
ATOM     16  C   UNL     1      48.544   5.500  17.482  0.00  0.00    +0.000 A 
ATOM     17  C   UNL     1      48.030   5.263  16.202  0.00  0.00    +0.000 A 
ATOM     18  C   UNL     1      47.535   4.004  15.872  0.00  0.00    +0.000 A 
ATOM     19  C   UNL     1      47.515   2.999  16.841  0.00  0.00    +0.000 A 
ATOM     20  C   UNL     1      48.032   3.234  18.118  0.00  0.00    +0.000 A 
BRANCH  15  21
ATOM     21  C   UNL     1      49.170   4.729  19.808  0.00  0.00    +0.000 C 
BRANCH  21  22
ATOM     22  N   UNL     1      48.500   3.961  20.850  0.00  0.00    +0.000 NA
ATOM     23  H   UNL     1      48.394   4.546  21.677  0.00  0.00    +0.000 HD
ATOM     24  H   UNL     1      49.104   3.186  21.124  0.00  0.00    +0.000 HD
ENDBRANCH  21  22
ENDBRANCH  15  21
ENDBRANCH  14  18
ENDBRANCH   1  14
TORSDOF 6
ENDMDL
MODEL 8
REMARK VINA RESULT:    -5.563      3.661      5.912
REMARK INTER + INTRA:          -7.786
REMARK INTER:                  -7.295
REMARK INTRA:                  -0.490
REMARK UNBOUND:                -0.597
REMARK  Name = 
REMARK  6 active torsions:
REMARK  status: ('A' for Active; 'I' for Inactive)
REMARK    1  A    between atoms: N_1  and  C_2
REMARK    2  A    between atoms: C_2  and  C_3
REMARK    3  A    between atoms: C_6  and  O_7
REMARK    4  A    between atoms: O_7  and  C_8
REMARK    5  A    between atoms: C_8  and  C_9
REMARK    6  A    between atoms: C_15  and  N_16
REMARK                            x       y       z     vdW  Elec       q    Type
REMARK                         _______ _______ _______ _____ _____    ______ ____
ROOT
ATOM      1  C   UNL     1      47.172   4.284  15.575  0.00  0.00    +0.000 C 
ENDROOT
BRANCH   1   2
ATOM      2  C   UNL     1      48.330   4.180  16.538  0.00  0.00    +0.000 A 
ATOM      3  N   UNL     1      48.954   2.974  16.653  0.00  0.00    +0.000 NA
ATOM      4  C   UNL     1      49.975   2.937  17.540  0.00  0.00    +0.000 A 
ATOM      5  C   UNL     1      50.360   4.032  18.310  0.00  0.00    +0.000 A 
ATOM      6  N   UNL     1      51.435   3.969  19.196  0.00  0.00    +0.000 N 
ATOM      7  N   UNL     1      49.738   5.219  18.194  0.00  0.00    +0.000 NA
ATOM      8  C   UNL     1      48.728   5.291  17.299  0.00  0.00    +0.000 A 
ATOM      9  H   UNL     1      51.352   3.196  19.846  0.00  0.00    +0.000 HD
ATOM     10  H   UNL     1      51.481   4.866  19.676  0.00  0.00    +0.000 HD
BRANCH   8  11
ATOM     11  N   UNL     1      48.077   6.525  17.224  0.00  0.00    +0.000 N 
ATOM     12  H   UNL     1      48.796   7.242  17.145  0.00  0.00    +0.000 HD
ATOM     13  H   UNL     1      47.433   6.542  16.436  0.00  0.00    +0.000 HD
ENDBRANCH   8  11
ENDBRANCH   1   2
BRANCH   1  14
ATOM     14  O   UNL     1      47.539   5.139  14.484  0.00  0.00    +0.000 OA
BRANCH  14  18
ATOM     15  C   UNL     1      45.087   4.612  11.139  0.00  0.00    +0.000 A 
ATOM     16  C   UNL     1      45.801   5.811  11.281  0.00  0.00    +0.000 A 
ATOM     17  C   UNL     1      46.632   6.025  12.386  0.00  0.00    +0.000 A 
ATOM     18  C   UNL     1      46.754   5.045  13.368  0.00  0.00    +0.000 A 
ATOM     19  C   UNL     1      46.076   3.834  13.216  0.00  0.00    +0.000 A 
ATOM     20  C   UNL     1      45.241   3.621  12.115  0.00  0.00    +0.000 A 
BRANCH  15  21
ATOM     21  C   UNL     1      44.147   4.410   9.978  0.00  0.00    +0.000 C 
BRANCH  21  22
ATOM     22  N   UNL     1      44.806   4.632   8.697  0.00  0.00    +0.000 NA
ATOM     23  H   UNL     1      45.195   3.751   8.367  0.00  0.00    +0.000 HD
ATOM     24  H   UNL     1      45.599   5.257   8.842  0.00  0.00    +0.000 HD
ENDBRANCH  21  22
ENDBRANCH  15  21
ENDBRANCH  14  18
ENDBRANCH   1  14
TORSDOF 6
ENDMDL
MODEL 9
REMARK VINA RESULT:    -5.443      4.588      6.372
REMARK INTER + INTRA:          -7.631
REMARK INTER:                  -7.279
REMARK INTRA:                  -0.352
REMARK UNBOUND:                -0.597
REMARK  Name = 
REMARK  6 active torsions:
REMARK  status: ('A' for Active; 'I' for Inactive)
REMARK    1  A    between atoms: N_1  and  C_2
REMARK    2  A    between atoms: C_2  and  C_3
REMARK    3  A    between atoms: C_6  and  O_7
REMARK    4  A    between atoms: O_7  and  C_8
REMARK    5  A    between atoms: C_8  and  C_9
REMARK    6  A    between atoms: C_15  and  N_16
REMARK                            x       y       z     vdW  Elec       q    Type
REMARK                         _______ _______ _______ _____ _____    ______ ____
ROOT
ATOM      1  C   UNL     1      48.293   6.343  15.121  0.00  0.00    +0.000 C 
ENDROOT
BRANCH   1   2
ATOM      2  C   UNL     1      48.354   5.542  16.399  0.00  0.00    +0.000 A 
ATOM      3  N   UNL     1      48.479   4.189  16.295  0.00  0.00    +0.000 NA
ATOM      4  C   UNL     1      48.515   3.523  17.472  0.00  0.00    +0.000 A 
ATOM      5  C   UNL     1      48.407   4.150  18.710  0.00  0.00    +0.000 A 
ATOM      6  N   UNL     1      48.475   3.438  19.908  0.00  0.00    +0.000 N 
ATOM      7  N   UNL     1      48.282   5.486  18.807  0.00  0.00    +0.000 NA
ATOM      8  C   UNL     1      48.265   6.180  17.646  0.00  0.00    +0.000 A 
ATOM      9  H   UNL     1      47.815   2.670  19.934  0.00  0.00    +0.000 HD
ATOM     10  H   UNL     1      48.315   4.103  20.661  0.00  0.00    +0.000 HD
BRANCH   8  11
ATOM     11  N   UNL     1      48.099   7.561  17.773  0.00  0.00    +0.000 N 
ATOM     12  H   UNL     1      47.892   7.752  18.752  0.00  0.00    +0.000 HD
ATOM     13  H   UNL     1      48.932   8.053  17.456  0.00  0.00    +0.000 HD
ENDBRANCH   8  11
ENDBRANCH   1   2
BRANCH   1  14
ATOM     14  O   UNL     1      48.220   5.446  14.004  0.00  0.00    +0.000 OA
BRANCH  14  18
ATOM     15  C   UNL     1      44.670   5.558  11.798  0.00  0.00    +0.000 A 
ATOM     16  C   UNL     1      45.738   6.382  11.416  0.00  0.00    +0.000 A 
ATOM     17  C   UNL     1      46.943   6.374  12.128  0.00  0.00    +0.000 A 
ATOM     18  C   UNL     1      47.092   5.545  13.238  0.00  0.00    +0.000 A 
ATOM     19  C   UNL     1      46.047   4.694  13.602  0.00  0.00    +0.000 A 
ATOM     20  C   UNL     1      44.841   4.705  12.895  0.00  0.00    +0.000 A 
BRANCH  15  21
ATOM     21  C   UNL     1      43.355   5.614  11.064  0.00  0.00    +0.000 C 
BRANCH  21  22
ATOM     22  N   UNL     1      42.699   6.907  11.217  0.00  0.00    +0.000 NA
ATOM     23  H   UNL     1      43.360   7.568  11.620  0.00  0.00    +0.000 HD
ATOM     24  H   UNL     1      41.942   6.811  11.894  0.00  0.00    +0.000 HD
ENDBRANCH  21  22
ENDBRANCH  15  21
ENDBRANCH  14  18
ENDBRANCH   1  14
TORSDOF 6
ENDMDL
