MODEL 1
REMARK VINA RESULT:    -6.741      0.000      0.000
REMARK INTER + INTRA:          -8.813
REMARK INTER:                  -8.120
REMARK INTRA:                  -0.693
REMARK UNBOUND:                -0.693
REMARK  Name = 
REMARK  4 active torsions:
REMARK  status: ('A' for Active; 'I' for Inactive)
REMARK    1  A    between atoms: N_1  and  C_2
REMARK    2  A    between atoms: C_2  and  C_3
REMARK    3  A    between atoms: C_6  and  C_7
REMARK    4  A    between atoms: C_7  and  N_8
REMARK                            x       y       z     vdW  Elec       q    Type
REMARK                         _______ _______ _______ _____ _____    ______ ____
ROOT
ATOM      1  C   UNL     1      44.535   6.607  11.408  0.00  0.00    +0.000 C 
ENDROOT
BRANCH   1   2
ATOM      2  N   UNL     1      44.207   5.218  11.114  0.00  0.00    +0.000 N 
ATOM      3  C   UNL     1      43.392   4.440  11.902  0.00  0.00    +0.000 A 
ATOM      4  C   UNL     1      43.414   3.159  11.405  0.00  0.00    +0.000 A 
ATOM      5  C   UNL     1      44.253   3.154  10.257  0.00  0.00    +0.000 A 
ATOM      6  C   UNL     1      44.644   2.150   9.349  0.00  0.00    +0.000 A 
ATOM      7  C   UNL     1      45.488   2.481   8.282  0.00  0.00    +0.000 A 
ATOM      8  C   UNL     1      45.933   3.783   8.130  0.00  0.00    +0.000 A 
ATOM      9  F   UNL     1      46.735   4.079   7.097  0.00  0.00    +0.000 F 
ATOM     10  C   UNL     1      45.579   4.799   9.017  0.00  0.00    +0.000 A 
ATOM     11  C   UNL     1      44.727   4.460  10.083  0.00  0.00    +0.000 A 
ENDBRANCH   1   2
BRANCH   1  15
ATOM     12  C   UNL     1      48.061   7.772  12.431  0.00  0.00    +0.000 C 
ATOM     13  C   UNL     1      47.656   6.303  12.210  0.00  0.00    +0.000 C 
ATOM     14  C   UNL     1      46.418   5.908  13.021  0.00  0.00    +0.000 C 
ATOM     15  C   UNL     1      45.209   6.831  12.778  0.00  0.00    +0.000 C 
ATOM     16  C   UNL     1      45.620   8.307  12.937  0.00  0.00    +0.000 C 
ATOM     17  C   UNL     1      46.858   8.677  12.115  0.00  0.00    +0.000 C 
BRANCH  12  18
ATOM     18  C   UNL     1      48.641   7.958  13.852  0.00  0.00    +0.000 C 
BRANCH  18  19
ATOM     19  N   UNL     1      49.761   7.068  14.137  0.00  0.00    +0.000 NA
ATOM     20  H   UNL     1      50.476   7.593  14.641  0.00  0.00    +0.000 HD
ATOM     21  H   UNL     1      50.203   6.779  13.265  0.00  0.00    +0.000 HD
ENDBRANCH  18  19
ENDBRANCH  12  18
ENDBRANCH   1  15
TORSDOF 4
ENDMDL
MODEL 2
REMARK VINA RESULT:    -5.745      3.789      7.054
REMARK INTER + INTRA:          -7.613
REMARK INTER:                  -7.225
REMARK INTRA:                  -0.388
REMARK UNBOUND:                -0.693
REMARK  Name = 
REMARK  4 active torsions:
REMARK  status: ('A' for Active; 'I' for Inactive)
REMARK    1  A    between atoms: N_1  and  C_2
REMARK    2  A    between atoms: C_2  and  C_3
REMARK    3  A    between atoms: C_6  and  C_7
REMARK    4  A    between atoms: C_7  and  N_8
REMARK                            x       y       z     vdW  Elec       q    Type
REMARK                         _______ _______ _______ _____ _____    ______ ____
ROOT
ATOM      1  C   UNL     1      47.537   5.673  13.410  0.00  0.00    +0.000 C 
ENDROOT
BRANCH   1   2
ATOM      2  N   UNL     1      48.057   6.050  14.718  0.00  0.00    +0.000 N 
ATOM      3  C   UNL     1      48.787   7.191  14.951  0.00  0.00    +0.000 A 
ATOM      4  C   UNL     1      49.226   7.158  16.252  0.00  0.00    +0.000 A 
ATOM      5  C   UNL     1      48.728   5.967  16.848  0.00  0.00    +0.000 A 
ATOM      6  C   UNL     1      48.843   5.408  18.136  0.00  0.00    +0.000 A 
ATOM      7  C   UNL     1      48.199   4.197  18.418  0.00  0.00    +0.000 A 
ATOM      8  C   UNL     1      47.461   3.560  17.435  0.00  0.00    +0.000 A 
ATOM      9  F   UNL     1      46.846   2.405  17.730  0.00  0.00    +0.000 F 
ATOM     10  C   UNL     1      47.337   4.076  16.146  0.00  0.00    +0.000 A 
ATOM     11  C   UNL     1      47.982   5.294  15.871  0.00  0.00    +0.000 A 
ENDBRANCH   1   2
BRANCH   1  15
ATOM     12  C   UNL     1      44.997   4.465  10.778  0.00  0.00    +0.000 C 
ATOM     13  C   UNL     1      45.807   5.770  10.676  0.00  0.00    +0.000 C 
ATOM     14  C   UNL     1      45.669   6.644  11.927  0.00  0.00    +0.000 C 
ATOM     15  C   UNL     1      46.022   5.905  13.230  0.00  0.00    +0.000 C 
ATOM     16  C   UNL     1      45.261   4.567  13.312  0.00  0.00    +0.000 C 
ATOM     17  C   UNL     1      45.417   3.712  12.052  0.00  0.00    +0.000 C 
BRANCH  12  18
ATOM     18  C   UNL     1      43.483   4.766  10.689  0.00  0.00    +0.000 C 
BRANCH  18  19
ATOM     19  N   UNL     1      42.658   3.769  11.363  0.00  0.00    +0.000 NA
ATOM     20  H   UNL     1      43.034   3.612  12.298  0.00  0.00    +0.000 HD
ATOM     21  H   UNL     1      42.738   2.873  10.885  0.00  0.00    +0.000 HD
ENDBRANCH  18  19
ENDBRANCH  12  18
ENDBRANCH   1  15
TORSDOF 4
ENDMDL
MODEL 3
REMARK VINA RESULT:    -5.605      2.750      6.212
REMARK INTER + INTRA:          -7.445
REMARK INTER:                  -6.926
REMARK INTRA:                  -0.519
REMARK UNBOUND:                -0.693
REMARK  Name = 
REMARK  4 active torsions:
REMARK  status: ('A' for Active; 'I' for Inactive)
REMARK    1  A    between atoms: N_1  and  C_2
REMARK    2  A    between atoms: C_2  and  C_3
REMARK    3  A    between atoms: C_6  and  C_7
REMARK    4  A    between atoms: C_7  and  N_8
REMARK                            x       y       z     vdW  Elec       q    Type
REMARK                         _______ _______ _______ _____ _____    ______ ____
ROOT
ATOM      1  C   UNL     1      45.140   7.495  12.775  0.00  0.00    +0.000 C 
ENDROOT
BRANCH   1   2
ATOM      2  N   UNL     1      45.806   8.735  12.400  0.00  0.00    +0.000 N 
ATOM      3  C   UNL     1      45.147   9.919  12.171  0.00  0.00    +0.000 A 
ATOM      4  C   UNL     1      46.061  10.834  11.708  0.00  0.00    +0.000 A 
ATOM      5  C   UNL     1      47.331  10.198  11.674  0.00  0.00    +0.000 A 
ATOM      6  C   UNL     1      48.620  10.629  11.300  0.00  0.00    +0.000 A 
ATOM      7  C   UNL     1      49.698   9.741  11.403  0.00  0.00    +0.000 A 
ATOM      8  C   UNL     1      49.491   8.452  11.864  0.00  0.00    +0.000 A 
ATOM      9  F   UNL     1      50.538   7.621  11.962  0.00  0.00    +0.000 F 
ATOM     10  C   UNL     1      48.228   7.986  12.229  0.00  0.00    +0.000 A 
ATOM     11  C   UNL     1      47.152   8.885  12.128  0.00  0.00    +0.000 A 
ENDBRANCH   1   2
BRANCH   1  15
ATOM     12  C   UNL     1      43.811   3.884  12.587  0.00  0.00    +0.000 C 
ATOM     13  C   UNL     1      45.301   4.265  12.646  0.00  0.00    +0.000 C 
ATOM     14  C   UNL     1      45.688   5.285  11.571  0.00  0.00    +0.000 C 
ATOM     15  C   UNL     1      44.818   6.555  11.594  0.00  0.00    +0.000 C 
ATOM     16  C   UNL     1      43.324   6.183  11.597  0.00  0.00    +0.000 C 
ATOM     17  C   UNL     1      42.963   5.164  12.681  0.00  0.00    +0.000 C 
BRANCH  12  18
ATOM     18  C   UNL     1      43.527   3.025  11.334  0.00  0.00    +0.000 C 
BRANCH  18  19
ATOM     19  N   UNL     1      42.922   1.734  11.647  0.00  0.00    +0.000 NA
ATOM     20  H   UNL     1      43.549   1.220  12.266  0.00  0.00    +0.000 HD
ATOM     21  H   UNL     1      42.853   1.171  10.801  0.00  0.00    +0.000 HD
ENDBRANCH  18  19
ENDBRANCH  12  18
ENDBRANCH   1  15
TORSDOF 4
ENDMDL
MODEL 4
REMARK VINA RESULT:    -5.549      4.044      5.204
REMARK INTER + INTRA:          -7.377
REMARK INTER:                  -7.113
REMARK INTRA:                  -0.264
REMARK UNBOUND:                -0.693
REMARK  Name = 
REMARK  4 active torsions:
REMARK  status: ('A' for Active; 'I' for Inactive)
REMARK    1  A    between atoms: N_1  and  C_2
REMARK    2  A    between atoms: C_2  and  C_3
REMARK    3  A    between atoms: C_6  and  C_7
REMARK    4  A    between atoms: C_7  and  N_8
REMARK                            x       y       z     vdW  Elec       q    Type
REMARK                         _______ _______ _______ _____ _____    ______ ____
ROOT
ATOM      1  C   UNL     1      47.468   3.877  14.746  0.00  0.00    +0.000 C 
ENDROOT
BRANCH   1   2
ATOM      2  N   UNL     1      47.035   4.699  13.624  0.00  0.00    +0.000 N 
ATOM      3  C   UNL     1      47.619   5.894  13.281  0.00  0.00    +0.000 A 
ATOM      4  C   UNL     1      46.877   6.457  12.270  0.00  0.00    +0.000 A 
ATOM      5  C   UNL     1      45.814   5.565  11.965  0.00  0.00    +0.000 A 
ATOM      6  C   UNL     1      44.757   5.601  11.033  0.00  0.00    +0.000 A 
ATOM      7  C   UNL     1      43.864   4.525  10.966  0.00  0.00    +0.000 A 
ATOM      8  C   UNL     1      44.021   3.442  11.813  0.00  0.00    +0.000 A 
ATOM      9  F   UNL     1      43.158   2.419  11.727  0.00  0.00    +0.000 F 
ATOM     10  C   UNL     1      45.045   3.378  12.757  0.00  0.00    +0.000 A 
ATOM     11  C   UNL     1      45.941   4.459  12.815  0.00  0.00    +0.000 A 
ENDBRANCH   1   2
BRANCH   1  15
ATOM     12  C   UNL     1      49.333   3.845  18.116  0.00  0.00    +0.000 C 
ATOM     13  C   UNL     1      48.319   2.776  17.668  0.00  0.00    +0.000 C 
ATOM     14  C   UNL     1      46.984   3.385  17.227  0.00  0.00    +0.000 C 
ATOM     15  C   UNL     1      47.134   4.460  16.136  0.00  0.00    +0.000 C 
ATOM     16  C   UNL     1      48.192   5.501  16.548  0.00  0.00    +0.000 C 
ATOM     17  C   UNL     1      49.517   4.868  16.983  0.00  0.00    +0.000 C 
BRANCH  12  18
ATOM     18  C   UNL     1      48.898   4.463  19.465  0.00  0.00    +0.000 C 
BRANCH  18  19
ATOM     19  N   UNL     1      48.392   3.475  20.413  0.00  0.00    +0.000 NA
ATOM     20  H   UNL     1      47.659   2.931  19.958  0.00  0.00    +0.000 HD
ATOM     21  H   UNL     1      47.936   3.947  21.193  0.00  0.00    +0.000 HD
ENDBRANCH  18  19
ENDBRANCH  12  18
ENDBRANCH   1  15
TORSDOF 4
ENDMDL
MODEL 5
REMARK VINA RESULT:    -5.528      2.689      6.166
REMARK INTER + INTRA:          -7.352
REMARK INTER:                  -6.717
REMARK INTRA:                  -0.635
REMARK UNBOUND:                -0.693
REMARK  Name = 
REMARK  4 active torsions:
REMARK  status: ('A' for Active; 'I' for Inactive)
REMARK    1  A    between atoms: N_1  and  C_2
REMARK    2  A    between atoms: C_2  and  C_3
REMARK    3  A    between atoms: C_6  and  C_7
REMARK    4  A    between atoms: C_7  and  N_8
REMARK                            x       y       z     vdW  Elec       q    Type
REMARK                         _______ _______ _______ _____ _____    ______ ____
ROOT
ATOM      1  C   UNL     1      45.274   6.322  12.924  0.00  0.00    +0.000 C 
ENDROOT
BRANCH   1   2
ATOM      2  N   UNL     1      45.881   7.630  12.718  0.00  0.00    +0.000 N 
ATOM      3  C   UNL     1      47.061   8.026  13.299  0.00  0.00    +0.000 A 
ATOM      4  C   UNL     1      47.261   9.352  12.999  0.00  0.00    +0.000 A 
ATOM      5  C   UNL     1      46.178   9.780  12.184  0.00  0.00    +0.000 A 
ATOM      6  C   UNL     1      45.849  11.009  11.579  0.00  0.00    +0.000 A 
ATOM      7  C   UNL     1      44.689  11.101  10.799  0.00  0.00    +0.000 A 
ATOM      8  C   UNL     1      43.877   9.992  10.633  0.00  0.00    +0.000 A 
ATOM      9  F   UNL     1      42.775  10.101   9.876  0.00  0.00    +0.000 F 
ATOM     10  C   UNL     1      44.163   8.765  11.230  0.00  0.00    +0.000 A 
ATOM     11  C   UNL     1      45.331   8.678  12.006  0.00  0.00    +0.000 A 
ENDBRANCH   1   2
BRANCH   1  15
ATOM     12  C   UNL     1      43.706   3.530  10.782  0.00  0.00    +0.000 C 
ATOM     13  C   UNL     1      44.061   3.392  12.274  0.00  0.00    +0.000 C 
ATOM     14  C   UNL     1      45.513   3.782  12.568  0.00  0.00    +0.000 C 
ATOM     15  C   UNL     1      45.880   5.190  12.067  0.00  0.00    +0.000 C 
ATOM     16  C   UNL     1      45.473   5.359  10.591  0.00  0.00    +0.000 C 
ATOM     17  C   UNL     1      44.017   4.965  10.323  0.00  0.00    +0.000 C 
BRANCH  12  18
ATOM     18  C   UNL     1      44.416   2.431   9.959  0.00  0.00    +0.000 C 
BRANCH  18  19
ATOM     19  N   UNL     1      44.340   2.653   8.519  0.00  0.00    +0.000 NA
ATOM     20  H   UNL     1      44.873   1.923   8.047  0.00  0.00    +0.000 HD
ATOM     21  H   UNL     1      44.805   3.527   8.279  0.00  0.00    +0.000 HD
ENDBRANCH  18  19
ENDBRANCH  12  18
ENDBRANCH   1  15
TORSDOF 4
ENDMDL
MODEL 6
REMARK VINA RESULT:    -5.258      2.715      6.411
REMARK INTER + INTRA:          -7.026
REMARK INTER:                  -6.528
REMARK INTRA:                  -0.498
REMARK UNBOUND:                -0.693
REMARK  Name = 
REMARK  4 active torsions:
REMARK  status: ('A' for Active; 'I' for Inactive)
REMARK    1  A    between atoms: N_1  and  C_2
REMARK    2  A    between atoms: C_2  and  C_3
REMARK    3  A    between atoms: C_6  and  C_7
REMARK    4  A    between atoms: C_7  and  N_8
REMARK                            x       y       z     vdW  Elec       q    Type
REMARK                         _______ _______ _______ _____ _____    ______ ____
ROOT
ATOM      1  C   UNL     1      45.185   6.263  12.968  0.00  0.00    +0.000 C 
ENDROOT
BRANCH   1   2
ATOM      2  N   UNL     1      45.830   7.567  12.884  0.00  0.00    +0.000 N 
ATOM      3  C   UNL     1      45.250   8.671  12.306  0.00  0.00    +0.000 A 
ATOM      4  C   UNL     1      46.184   9.679  12.280  0.00  0.00    +0.000 A 
ATOM      5  C   UNL     1      47.372   9.184  12.885  0.00  0.00    +0.000 A 
ATOM      6  C   UNL     1      48.636   9.751  13.142  0.00  0.00    +0.000 A 
ATOM      7  C   UNL     1      49.613   8.986  13.790  0.00  0.00    +0.000 A 
ATOM      8  C   UNL     1      49.333   7.684  14.169  0.00  0.00    +0.000 A 
ATOM      9  F   UNL     1      50.281   6.972  14.796  0.00  0.00    +0.000 F 
ATOM     10  C   UNL     1      48.099   7.085  13.919  0.00  0.00    +0.000 A 
ATOM     11  C   UNL     1      47.122   7.861  13.272  0.00  0.00    +0.000 A 
ENDBRANCH   1   2
BRANCH   1  15
ATOM     12  C   UNL     1      43.644   3.485  10.789  0.00  0.00    +0.000 C 
ATOM     13  C   UNL     1      44.054   3.314  12.263  0.00  0.00    +0.000 C 
ATOM     14  C   UNL     1      45.501   3.746  12.522  0.00  0.00    +0.000 C 
ATOM     15  C   UNL     1      45.801   5.182  12.054  0.00  0.00    +0.000 C 
ATOM     16  C   UNL     1      45.338   5.382  10.599  0.00  0.00    +0.000 C 
ATOM     17  C   UNL     1      43.889   4.944  10.367  0.00  0.00    +0.000 C 
BRANCH  12  18
ATOM     18  C   UNL     1      44.364   2.439   9.907  0.00  0.00    +0.000 C 
BRANCH  18  19
ATOM     19  N   UNL     1      44.286   2.739   8.481  0.00  0.00    +0.000 NA
ATOM     20  H   UNL     1      45.233   2.820   8.111  0.00  0.00    +0.000 HD
ATOM     21  H   UNL     1      43.861   3.655   8.343  0.00  0.00    +0.000 HD
ENDBRANCH  18  19
ENDBRANCH  12  18
ENDBRANCH   1  15
TORSDOF 4
ENDMDL
MODEL 7
REMARK VINA RESULT:    -4.935      3.114      7.158
REMARK INTER + INTRA:          -6.638
REMARK INTER:                  -6.129
REMARK INTRA:                  -0.509
REMARK UNBOUND:                -0.693
REMARK  Name = 
REMARK  4 active torsions:
REMARK  status: ('A' for Active; 'I' for Inactive)
REMARK    1  A    between atoms: N_1  and  C_2
REMARK    2  A    between atoms: C_2  and  C_3
REMARK    3  A    between atoms: C_6  and  C_7
REMARK    4  A    between atoms: C_7  and  N_8
REMARK                            x       y       z     vdW  Elec       q    Type
REMARK                         _______ _______ _______ _____ _____    ______ ____
ROOT
ATOM      1  C   UNL     1      47.319   6.467  12.521  0.00  0.00    +0.000 C 
ENDROOT
BRANCH   1   2
ATOM      2  N   UNL     1      47.882   7.543  13.326  0.00  0.00    +0.000 N 
ATOM      3  C   UNL     1      47.971   8.848  12.905  0.00  0.00    +0.000 A 
ATOM      4  C   UNL     1      48.672   9.556  13.852  0.00  0.00    +0.000 A 
ATOM      5  C   UNL     1      49.004   8.660  14.904  0.00  0.00    +0.000 A 
ATOM      6  C   UNL     1      49.698   8.810  16.121  0.00  0.00    +0.000 A 
ATOM      7  C   UNL     1      49.842   7.706  16.970  0.00  0.00    +0.000 A 
ATOM      8  C   UNL     1      49.309   6.481  16.609  0.00  0.00    +0.000 A 
ATOM      9  F   UNL     1      49.453   5.439  17.441  0.00  0.00    +0.000 F 
ATOM     10  C   UNL     1      48.630   6.291  15.406  0.00  0.00    +0.000 A 
ATOM     11  C   UNL     1      48.484   7.405  14.561  0.00  0.00    +0.000 A 
ENDBRANCH   1   2
BRANCH   1  15
ATOM     12  C   UNL     1      44.958   3.604  11.490  0.00  0.00    +0.000 C 
ATOM     13  C   UNL     1      45.223   4.864  10.647  0.00  0.00    +0.000 C 
ATOM     14  C   UNL     1      45.002   6.156  11.440  0.00  0.00    +0.000 C 
ATOM     15  C   UNL     1      45.813   6.216  12.747  0.00  0.00    +0.000 C 
ATOM     16  C   UNL     1      45.602   4.931  13.570  0.00  0.00    +0.000 C 
ATOM     17  C   UNL     1      45.831   3.654  12.756  0.00  0.00    +0.000 C 
BRANCH  12  18
ATOM     18  C   UNL     1      43.445   3.454  11.768  0.00  0.00    +0.000 C 
BRANCH  18  19
ATOM     19  N   UNL     1      42.974   2.077  11.659  0.00  0.00    +0.000 NA
ATOM     20  H   UNL     1      42.027   2.084  11.280  0.00  0.00    +0.000 HD
ATOM     21  H   UNL     1      42.892   1.666  12.587  0.00  0.00    +0.000 HD
ENDBRANCH  18  19
ENDBRANCH  12  18
ENDBRANCH   1  15
TORSDOF 4
ENDMDL
MODEL 8
REMARK VINA RESULT:    -4.898      2.638      6.489
REMARK INTER + INTRA:          -6.593
REMARK INTER:                  -6.110
REMARK INTRA:                  -0.484
REMARK UNBOUND:                -0.693
REMARK  Name = 
REMARK  4 active torsions:
REMARK  status: ('A' for Active; 'I' for Inactive)
REMARK    1  A    between atoms: N_1  and  C_2
REMARK    2  A    between atoms: C_2  and  C_3
REMARK    3  A    between atoms: C_6  and  C_7
REMARK    4  A    between atoms: C_7  and  N_8
REMARK                            x       y       z     vdW  Elec       q    Type
REMARK                         _______ _______ _______ _____ _____    ______ ____
ROOT
ATOM      1  C   UNL     1      46.659   7.052  13.069  0.00  0.00    +0.000 C 
ENDROOT
BRANCH   1   2
ATOM      2  N   UNL     1      47.991   7.134  13.655  0.00  0.00    +0.000 N 
ATOM      3  C   UNL     1      48.328   6.585  14.869  0.00  0.00    +0.000 A 
ATOM      4  C   UNL     1      49.613   6.969  15.169  0.00  0.00    +0.000 A 
ATOM      5  C   UNL     1      50.091   7.761  14.090  0.00  0.00    +0.000 A 
ATOM      6  C   UNL     1      51.314   8.414  13.837  0.00  0.00    +0.000 A 
ATOM      7  C   UNL     1      51.481   9.116  12.637  0.00  0.00    +0.000 A 
ATOM      8  C   UNL     1      50.450   9.167  11.715  0.00  0.00    +0.000 A 
ATOM      9  F   UNL     1      50.635   9.838  10.569  0.00  0.00    +0.000 F 
ATOM     10  C   UNL     1      49.222   8.546  11.938  0.00  0.00    +0.000 A 
ATOM     11  C   UNL     1      49.062   7.839  13.143  0.00  0.00    +0.000 A 
ENDBRANCH   1   2
BRANCH   1  15
ATOM     12  C   UNL     1      43.546   5.054  11.996  0.00  0.00    +0.000 C 
ATOM     13  C   UNL     1      44.449   4.691  13.189  0.00  0.00    +0.000 C 
ATOM     14  C   UNL     1      45.927   4.598  12.797  0.00  0.00    +0.000 C 
ATOM     15  C   UNL     1      46.455   5.866  12.102  0.00  0.00    +0.000 C 
ATOM     16  C   UNL     1      45.523   6.273  10.945  0.00  0.00    +0.000 C 
ATOM     17  C   UNL     1      44.053   6.361  11.363  0.00  0.00    +0.000 C 
BRANCH  12  18
ATOM     18  C   UNL     1      43.454   3.865  11.013  0.00  0.00    +0.000 C 
BRANCH  18  19
ATOM     19  N   UNL     1      42.958   2.642  11.635  0.00  0.00    +0.000 NA
ATOM     20  H   UNL     1      42.488   2.885  12.507  0.00  0.00    +0.000 HD
ATOM     21  H   UNL     1      43.741   2.049  11.905  0.00  0.00    +0.000 HD
ENDBRANCH  18  19
ENDBRANCH  12  18
ENDBRANCH   1  15
TORSDOF 4
ENDMDL
MODEL 9
REMARK VINA RESULT:    -4.799      4.535      7.525
REMARK INTER + INTRA:          -6.474
REMARK INTER:                  -5.983
REMARK INTRA:                  -0.491
REMARK UNBOUND:                -0.693
REMARK  Name = 
REMARK  4 active torsions:
REMARK  status: ('A' for Active; 'I' for Inactive)
REMARK    1  A    between atoms: N_1  and  C_2
REMARK    2  A    between atoms: C_2  and  C_3
REMARK    3  A    between atoms: C_6  and  C_7
REMARK    4  A    between atoms: C_7  and  N_8
REMARK                            x       y       z     vdW  Elec       q    Type
REMARK                         _______ _______ _______ _____ _____    ______ ____
ROOT
ATOM      1  C   UNL     1      46.767   4.280  15.275  0.00  0.00    +0.000 C 
ENDROOT
BRANCH   1   2
ATOM      2  N   UNL     1      47.895   3.936  16.131  0.00  0.00    +0.000 N 
ATOM      3  C   UNL     1      48.281   2.646  16.406  0.00  0.00    +0.000 A 
ATOM      4  C   UNL     1      49.282   2.692  17.347  0.00  0.00    +0.000 A 
ATOM      5  C   UNL     1      49.537   4.058  17.642  0.00  0.00    +0.000 A 
ATOM      6  C   UNL     1      50.438   4.710  18.508  0.00  0.00    +0.000 A 
ATOM      7  C   UNL     1      50.455   6.109  18.555  0.00  0.00    +0.000 A 
ATOM      8  C   UNL     1      49.588   6.839  17.759  0.00  0.00    +0.000 A 
ATOM      9  F   UNL     1      49.627   8.178  17.814  0.00  0.00    +0.000 F 
ATOM     10  C   UNL     1      48.673   6.228  16.902  0.00  0.00    +0.000 A 
ATOM     11  C   UNL     1      48.666   4.823  16.856  0.00  0.00    +0.000 A 
ENDBRANCH   1   2
BRANCH   1  15
ATOM     12  C   UNL     1      44.788   5.391  12.163  0.00  0.00    +0.000 C 
ATOM     13  C   UNL     1      44.696   3.995  12.805  0.00  0.00    +0.000 C 
ATOM     14  C   UNL     1      46.069   3.340  12.981  0.00  0.00    +0.000 C 
ATOM     15  C   UNL     1      47.066   4.215  13.762  0.00  0.00    +0.000 C 
ATOM     16  C   UNL     1      47.120   5.633  13.165  0.00  0.00    +0.000 C 
ATOM     17  C   UNL     1      45.735   6.266  13.001  0.00  0.00    +0.000 C 
BRANCH  12  18
ATOM     18  C   UNL     1      45.184   5.271  10.674  0.00  0.00    +0.000 C 
BRANCH  18  19
ATOM     19  N   UNL     1      44.054   4.967   9.802  0.00  0.00    +0.000 NA
ATOM     20  H   UNL     1      44.149   5.509   8.943  0.00  0.00    +0.000 HD
ATOM     21  H   UNL     1      43.189   5.291  10.232  0.00  0.00    +0.000 HD
ENDBRANCH  18  19
ENDBRANCH  12  18
ENDBRANCH   1  15
TORSDOF 4
ENDMDL
