MODEL 1
REMARK VINA RESULT:    -7.595      0.000      0.000
REMARK INTER + INTRA:          -9.745
REMARK INTER:                  -9.370
REMARK INTRA:                  -0.375
REMARK UNBOUND:                -0.375
REMARK  Name = 
REMARK  4 active torsions:
REMARK  status: ('A' for Active; 'I' for Inactive)
REMARK    1  A    between atoms: C_2  and  C_4
REMARK    2  A    between atoms: C_7  and  N_8
REMARK    3  A    between atoms: N_8  and  C_9
REMARK    4  A    between atoms: C_9  and  C_10
REMARK                            x       y       z     vdW  Elec       q    Type
REMARK                         _______ _______ _______ _____ _____    ______ ____
ROOT
ATOM      1  C   UNL     1      46.392   2.336   7.821  0.00  0.00    +0.000 A 
ATOM      2  C   UNL     1      46.357   3.700   7.602  0.00  0.00    +0.000 A 
ATOM      3  N   UNL     1      45.495   4.517   8.262  0.00  0.00    +0.000 NA
ATOM      4  C   UNL     1      44.690   3.946   9.183  0.00  0.00    +0.000 A 
ATOM      5  C   UNL     1      44.733   2.558   9.375  0.00  0.00    +0.000 A 
ATOM      6  N   UNL     1      45.572   1.719   8.716  0.00  0.00    +0.000 NA
ENDROOT
BRANCH   1   8
ATOM      7  N   UNL     1      48.419   2.116   6.528  0.00  0.00    +0.000 N 
ATOM      8  C   UNL     1      47.323   1.476   7.039  0.00  0.00    +0.000 C 
ATOM      9  O   UNL     1      47.132   0.278   6.877  0.00  0.00    +0.000 OA
ATOM     10  H   UNL     1      49.115   1.584   6.024  0.00  0.00    +0.000 HD
ATOM     11  H   UNL     1      48.557   3.103   6.707  0.00  0.00    +0.000 HD
ENDBRANCH   1   8
BRANCH   4  12
ATOM     12  N   UNL     1      43.807   4.803   9.815  0.00  0.00    +0.000 N 
ATOM     13  H   UNL     1      42.939   4.830   9.284  0.00  0.00    +0.000 HD
BRANCH  12  14
ATOM     14  C   UNL     1      43.546   4.613  11.238  0.00  0.00    +0.000 C 
BRANCH  14  15
ATOM     15  C   UNL     1      44.769   4.977  12.055  0.00  0.00    +0.000 A 
ATOM     16  C   UNL     1      45.400   6.207  11.853  0.00  0.00    +0.000 A 
ATOM     17  C   UNL     1      46.542   6.507  12.586  0.00  0.00    +0.000 A 
ATOM     18  C   UNL     1      47.027   5.578  13.497  0.00  0.00    +0.000 A 
ATOM     19  C   UNL     1      46.343   4.382  13.640  0.00  0.00    +0.000 A 
ATOM     20  N   UNL     1      45.230   4.060  12.943  0.00  0.00    +0.000 NA
ENDBRANCH  14  15
ENDBRANCH  12  14
ENDBRANCH   4  12
TORSDOF 4
ENDMDL
MODEL 2
REMARK VINA RESULT:    -7.358      2.642      5.938
REMARK INTER + INTRA:          -9.453
REMARK INTER:                  -9.092
REMARK INTRA:                  -0.361
REMARK UNBOUND:                -0.375
REMARK  Name = 
REMARK  4 active torsions:
REMARK  status: ('A' for Active; 'I' for Inactive)
REMARK    1  A    between atoms: C_2  and  C_4
REMARK    2  A    between atoms: C_7  and  N_8
REMARK    3  A    between atoms: N_8  and  C_9
REMARK    4  A    between atoms: C_9  and  C_10
REMARK                            x       y       z     vdW  Elec       q    Type
REMARK                         _______ _______ _______ _____ _____    ______ ____
ROOT
ATOM      1  C   UNL     1      46.501   4.898  13.226  0.00  0.00    +0.000 A 
ATOM      2  C   UNL     1      46.281   5.752  12.161  0.00  0.00    +0.000 A 
ATOM      3  N   UNL     1      45.541   5.385  11.082  0.00  0.00    +0.000 NA
ATOM      4  C   UNL     1      44.989   4.154  11.103  0.00  0.00    +0.000 A 
ATOM      5  C   UNL     1      45.241   3.300  12.187  0.00  0.00    +0.000 A 
ATOM      6  N   UNL     1      45.990   3.636  13.268  0.00  0.00    +0.000 NA
ENDROOT
BRANCH   1   8
ATOM      7  N   UNL     1      47.020   4.797  15.581  0.00  0.00    +0.000 N 
ATOM      8  C   UNL     1      47.357   5.328  14.366  0.00  0.00    +0.000 C 
ATOM      9  O   UNL     1      48.304   6.089  14.227  0.00  0.00    +0.000 OA
ATOM     10  H   UNL     1      47.585   5.012  16.391  0.00  0.00    +0.000 HD
ATOM     11  H   UNL     1      46.245   4.148  15.653  0.00  0.00    +0.000 HD
ENDBRANCH   1   8
BRANCH   4  12
ATOM     12  N   UNL     1      44.267   3.805   9.976  0.00  0.00    +0.000 N 
ATOM     13  H   UNL     1      44.454   4.487   9.243  0.00  0.00    +0.000 HD
BRANCH  12  14
ATOM     14  C   UNL     1      44.382   2.442   9.467  0.00  0.00    +0.000 C 
BRANCH  14  15
ATOM     15  C   UNL     1      45.480   2.355   8.426  0.00  0.00    +0.000 A 
ATOM     16  C   UNL     1      45.731   3.443   7.586  0.00  0.00    +0.000 A 
ATOM     17  C   UNL     1      46.717   3.330   6.613  0.00  0.00    +0.000 A 
ATOM     18  C   UNL     1      47.425   2.141   6.499  0.00  0.00    +0.000 A 
ATOM     19  C   UNL     1      47.118   1.109   7.372  0.00  0.00    +0.000 A 
ATOM     20  N   UNL     1      46.165   1.187   8.328  0.00  0.00    +0.000 NA
ENDBRANCH  14  15
ENDBRANCH  12  14
ENDBRANCH   4  12
TORSDOF 4
ENDMDL
MODEL 3
REMARK VINA RESULT:    -7.333      2.624      5.966
REMARK INTER + INTRA:          -9.423
REMARK INTER:                  -9.113
REMARK INTRA:                  -0.310
REMARK UNBOUND:                -0.375
REMARK  Name = 
REMARK  4 active torsions:
REMARK  status: ('A' for Active; 'I' for Inactive)
REMARK    1  A    between atoms: C_2  and  C_4
REMARK    2  A    between atoms: C_7  and  N_8
REMARK    3  A    between atoms: N_8  and  C_9
REMARK    4  A    between atoms: C_9  and  C_10
REMARK                            x       y       z     vdW  Elec       q    Type
REMARK                         _______ _______ _______ _____ _____    ______ ____
ROOT
ATOM      1  C   UNL     1      46.536   4.558  13.748  0.00  0.00    +0.000 A 
ATOM      2  C   UNL     1      46.628   5.763  13.077  0.00  0.00    +0.000 A 
ATOM      3  N   UNL     1      46.039   5.963  11.869  0.00  0.00    +0.000 NA
ATOM      4  C   UNL     1      45.318   4.943  11.358  0.00  0.00    +0.000 A 
ATOM      5  C   UNL     1      45.255   3.725  12.050  0.00  0.00    +0.000 A 
ATOM      6  N   UNL     1      45.848   3.494  13.249  0.00  0.00    +0.000 NA
ENDROOT
BRANCH   1   8
ATOM      7  N   UNL     1      47.526   5.523  15.727  0.00  0.00    +0.000 N 
ATOM      8  C   UNL     1      47.238   4.370  15.048  0.00  0.00    +0.000 C 
ATOM      9  O   UNL     1      47.523   3.266  15.488  0.00  0.00    +0.000 OA
ATOM     10  H   UNL     1      47.962   5.468  16.638  0.00  0.00    +0.000 HD
ATOM     11  H   UNL     1      47.249   6.419  15.344  0.00  0.00    +0.000 HD
ENDBRANCH   1   8
BRANCH   4  12
ATOM     12  N   UNL     1      44.758   5.174  10.114  0.00  0.00    +0.000 N 
ATOM     13  H   UNL     1      45.442   5.647   9.529  0.00  0.00    +0.000 HD
BRANCH  12  14
ATOM     14  C   UNL     1      44.145   4.055   9.406  0.00  0.00    +0.000 C 
BRANCH  14  15
ATOM     15  C   UNL     1      45.175   3.334   8.560  0.00  0.00    +0.000 A 
ATOM     16  C   UNL     1      45.423   1.976   8.773  0.00  0.00    +0.000 A 
ATOM     17  C   UNL     1      46.399   1.341   8.013  0.00  0.00    +0.000 A 
ATOM     18  C   UNL     1      47.100   2.072   7.063  0.00  0.00    +0.000 A 
ATOM     19  C   UNL     1      46.793   3.414   6.911  0.00  0.00    +0.000 A 
ATOM     20  N   UNL     1      45.851   4.061   7.635  0.00  0.00    +0.000 NA
ENDBRANCH  14  15
ENDBRANCH  12  14
ENDBRANCH   4  12
TORSDOF 4
ENDMDL
MODEL 4
REMARK VINA RESULT:    -6.740      3.084      6.117
REMARK INTER + INTRA:          -8.690
REMARK INTER:                  -8.351
REMARK INTRA:                  -0.339
REMARK UNBOUND:                -0.375
REMARK  Name = 
REMARK  4 active torsions:
REMARK  status: ('A' for Active; 'I' for Inactive)
REMARK    1  A    between atoms: C_2  and  C_4
REMARK    2  A    between atoms: C_7  and  N_8
REMARK    3  A    between atoms: N_8  and  C_9
REMARK    4  A    between atoms: C_9  and  C_10
REMARK                            x       y       z     vdW  Elec       q    Type
REMARK                         _______ _______ _______ _____ _____    ______ ____
ROOT
ATOM      1  C   UNL     1      44.644   6.864  11.553  0.00  0.00    +0.000 A 
ATOM      2  C   UNL     1      43.568   6.115  11.114  0.00  0.00    +0.000 A 
ATOM      3  N   UNL     1      43.658   4.776  10.901  0.00  0.00    +0.000 NA
ATOM      4  C   UNL     1      44.841   4.188  11.175  0.00  0.00    +0.000 A 
ATOM      5  C   UNL     1      45.922   4.971  11.603  0.00  0.00    +0.000 A 
ATOM      6  N   UNL     1      45.863   6.313  11.807  0.00  0.00    +0.000 NA
ENDROOT
BRANCH   1   8
ATOM      7  N   UNL     1      43.540   8.929  10.964  0.00  0.00    +0.000 N 
ATOM      8  C   UNL     1      44.510   8.336  11.728  0.00  0.00    +0.000 C 
ATOM      9  O   UNL     1      45.204   8.973  12.508  0.00  0.00    +0.000 OA
ATOM     10  H   UNL     1      43.364   9.919  11.065  0.00  0.00    +0.000 HD
ATOM     11  H   UNL     1      42.966   8.365  10.349  0.00  0.00    +0.000 HD
ENDBRANCH   1   8
BRANCH   4  12
ATOM     12  N   UNL     1      44.904   2.829  10.919  0.00  0.00    +0.000 N 
ATOM     13  H   UNL     1      44.493   2.329  11.704  0.00  0.00    +0.000 HD
BRANCH  12  14
ATOM     14  C   UNL     1      44.384   2.333   9.649  0.00  0.00    +0.000 C 
BRANCH  14  15
ATOM     15  C   UNL     1      45.472   2.334   8.593  0.00  0.00    +0.000 A 
ATOM     16  C   UNL     1      45.713   3.487   7.844  0.00  0.00    +0.000 A 
ATOM     17  C   UNL     1      46.690   3.456   6.855  0.00  0.00    +0.000 A 
ATOM     18  C   UNL     1      47.397   2.282   6.637  0.00  0.00    +0.000 A 
ATOM     19  C   UNL     1      47.100   1.181   7.424  0.00  0.00    +0.000 A 
ATOM     20  N   UNL     1      46.156   1.179   8.393  0.00  0.00    +0.000 NA
ENDBRANCH  14  15
ENDBRANCH  12  14
ENDBRANCH   4  12
TORSDOF 4
ENDMDL
MODEL 5
REMARK VINA RESULT:    -6.598      2.917      6.211
REMARK INTER + INTRA:          -8.516
REMARK INTER:                  -8.173
REMARK INTRA:                  -0.343
REMARK UNBOUND:                -0.375
REMARK  Name = 
REMARK  4 active torsions:
REMARK  status: ('A' for Active; 'I' for Inactive)
REMARK    1  A    between atoms: C_2  and  C_4
REMARK    2  A    between atoms: C_7  and  N_8
REMARK    3  A    between atoms: N_8  and  C_9
REMARK    4  A    between atoms: C_9  and  C_10
REMARK                            x       y       z     vdW  Elec       q    Type
REMARK                         _______ _______ _______ _____ _____    ______ ____
ROOT
ATOM      1  C   UNL     1      47.173   5.956  13.384  0.00  0.00    +0.000 A 
ATOM      2  C   UNL     1      46.796   4.688  13.787  0.00  0.00    +0.000 A 
ATOM      3  N   UNL     1      45.907   3.941  13.082  0.00  0.00    +0.000 NA
ATOM      4  C   UNL     1      45.429   4.471  11.937  0.00  0.00    +0.000 A 
ATOM      5  C   UNL     1      45.813   5.765  11.559  0.00  0.00    +0.000 A 
ATOM      6  N   UNL     1      46.685   6.539  12.255  0.00  0.00    +0.000 NA
ENDROOT
BRANCH   1   8
ATOM      7  N   UNL     1      47.613   7.936  14.694  0.00  0.00    +0.000 N 
ATOM      8  C   UNL     1      48.115   6.756  14.215  0.00  0.00    +0.000 C 
ATOM      9  O   UNL     1      49.252   6.382  14.466  0.00  0.00    +0.000 OA
ATOM     10  H   UNL     1      48.183   8.509  15.301  0.00  0.00    +0.000 HD
ATOM     11  H   UNL     1      46.657   8.200  14.487  0.00  0.00    +0.000 HD
ENDBRANCH   1   8
BRANCH   4  12
ATOM     12  N   UNL     1      44.505   3.693  11.261  0.00  0.00    +0.000 N 
ATOM     13  H   UNL     1      43.673   3.596  11.838  0.00  0.00    +0.000 HD
BRANCH  12  14
ATOM     14  C   UNL     1      44.155   4.056   9.891  0.00  0.00    +0.000 C 
BRANCH  14  15
ATOM     15  C   UNL     1      45.138   3.444   8.913  0.00  0.00    +0.000 A 
ATOM     16  C   UNL     1      45.346   2.063   8.908  0.00  0.00    +0.000 A 
ATOM     17  C   UNL     1      46.279   1.525   8.028  0.00  0.00    +0.000 A 
ATOM     18  C   UNL     1      46.979   2.373   7.181  0.00  0.00    +0.000 A 
ATOM     19  C   UNL     1      46.713   3.731   7.245  0.00  0.00    +0.000 A 
ATOM     20  N   UNL     1      45.813   4.285   8.089  0.00  0.00    +0.000 NA
ENDBRANCH  14  15
ENDBRANCH  12  14
ENDBRANCH   4  12
TORSDOF 4
ENDMDL
MODEL 6
REMARK VINA RESULT:    -6.098      3.260      6.623
REMARK INTER + INTRA:          -7.899
REMARK INTER:                  -7.545
REMARK INTRA:                  -0.354
REMARK UNBOUND:                -0.375
REMARK  Name = 
REMARK  4 active torsions:
REMARK  status: ('A' for Active; 'I' for Inactive)
REMARK    1  A    between atoms: C_2  and  C_4
REMARK    2  A    between atoms: C_7  and  N_8
REMARK    3  A    between atoms: N_8  and  C_9
REMARK    4  A    between atoms: C_9  and  C_10
REMARK                            x       y       z     vdW  Elec       q    Type
REMARK                         _______ _______ _______ _____ _____    ______ ____
ROOT
ATOM      1  C   UNL     1      47.544   5.147  14.953  0.00  0.00    +0.000 A 
ATOM      2  C   UNL     1      46.419   4.542  14.425  0.00  0.00    +0.000 A 
ATOM      3  N   UNL     1      45.933   4.867  13.198  0.00  0.00    +0.000 NA
ATOM      4  C   UNL     1      46.619   5.786  12.488  0.00  0.00    +0.000 A 
ATOM      5  C   UNL     1      47.747   6.398  13.052  0.00  0.00    +0.000 A 
ATOM      6  N   UNL     1      48.243   6.103  14.282  0.00  0.00    +0.000 NA
ENDROOT
BRANCH   1   8
ATOM      7  N   UNL     1      47.093   4.972  17.319  0.00  0.00    +0.000 N 
ATOM      8  C   UNL     1      48.012   4.791  16.321  0.00  0.00    +0.000 C 
ATOM      9  O   UNL     1      49.133   4.353  16.539  0.00  0.00    +0.000 OA
ATOM     10  H   UNL     1      47.328   4.709  18.266  0.00  0.00    +0.000 HD
ATOM     11  H   UNL     1      46.165   5.311  17.095  0.00  0.00    +0.000 HD
ENDBRANCH   1   8
BRANCH   4  12
ATOM     12  N   UNL     1      46.078   6.112  11.256  0.00  0.00    +0.000 N 
ATOM     13  H   UNL     1      46.808   6.048  10.550  0.00  0.00    +0.000 HD
BRANCH  12  14
ATOM     14  C   UNL     1      44.866   5.426  10.822  0.00  0.00    +0.000 C 
BRANCH  14  15
ATOM     15  C   UNL     1      45.188   4.409   9.746  0.00  0.00    +0.000 A 
ATOM     16  C   UNL     1      44.863   3.065   9.940  0.00  0.00    +0.000 A 
ATOM     17  C   UNL     1      45.200   2.141   8.957  0.00  0.00    +0.000 A 
ATOM     18  C   UNL     1      45.852   2.577   7.811  0.00  0.00    +0.000 A 
ATOM     19  C   UNL     1      46.137   3.928   7.694  0.00  0.00    +0.000 A 
ATOM     20  N   UNL     1      45.823   4.851   8.631  0.00  0.00    +0.000 NA
ENDBRANCH  14  15
ENDBRANCH  12  14
ENDBRANCH   4  12
TORSDOF 4
ENDMDL
MODEL 7
REMARK VINA RESULT:    -5.798      3.760      5.919
REMARK INTER + INTRA:          -7.529
REMARK INTER:                  -7.242
REMARK INTRA:                  -0.287
REMARK UNBOUND:                -0.375
REMARK  Name = 
REMARK  4 active torsions:
REMARK  status: ('A' for Active; 'I' for Inactive)
REMARK    1  A    between atoms: C_2  and  C_4
REMARK    2  A    between atoms: C_7  and  N_8
REMARK    3  A    between atoms: N_8  and  C_9
REMARK    4  A    between atoms: C_9  and  C_10
REMARK                            x       y       z     vdW  Elec       q    Type
REMARK                         _______ _______ _______ _____ _____    ______ ____
ROOT
ATOM      1  C   UNL     1      44.904   4.248  11.993  0.00  0.00    +0.000 A 
ATOM      2  C   UNL     1      45.050   5.533  12.483  0.00  0.00    +0.000 A 
ATOM      3  N   UNL     1      45.873   5.819  13.525  0.00  0.00    +0.000 NA
ATOM      4  C   UNL     1      46.582   4.798  14.049  0.00  0.00    +0.000 A 
ATOM      5  C   UNL     1      46.404   3.501  13.546  0.00  0.00    +0.000 A 
ATOM      6  N   UNL     1      45.576   3.186  12.517  0.00  0.00    +0.000 NA
ENDROOT
BRANCH   1   8
ATOM      7  N   UNL     1      43.743   5.022  10.024  0.00  0.00    +0.000 N 
ATOM      8  C   UNL     1      43.955   3.975  10.879  0.00  0.00    +0.000 C 
ATOM      9  O   UNL     1      43.415   2.888  10.726  0.00  0.00    +0.000 OA
ATOM     10  H   UNL     1      43.144   4.894   9.219  0.00  0.00    +0.000 HD
ATOM     11  H   UNL     1      44.229   5.899  10.167  0.00  0.00    +0.000 HD
ENDBRANCH   1   8
BRANCH   4  12
ATOM     12  N   UNL     1      47.387   5.122  15.127  0.00  0.00    +0.000 N 
ATOM     13  H   UNL     1      47.231   6.098  15.370  0.00  0.00    +0.000 HD
BRANCH  12  14
ATOM     14  C   UNL     1      47.343   4.272  16.312  0.00  0.00    +0.000 C 
BRANCH  14  15
ATOM     15  C   UNL     1      48.742   3.845  16.711  0.00  0.00    +0.000 A 
ATOM     16  C   UNL     1      49.066   2.488  16.765  0.00  0.00    +0.000 A 
ATOM     17  C   UNL     1      50.343   2.116  17.170  0.00  0.00    +0.000 A 
ATOM     18  C   UNL     1      51.261   3.100  17.511  0.00  0.00    +0.000 A 
ATOM     19  C   UNL     1      50.862   4.424  17.428  0.00  0.00    +0.000 A 
ATOM     20  N   UNL     1      49.628   4.819  17.039  0.00  0.00    +0.000 NA
ENDBRANCH  14  15
ENDBRANCH  12  14
ENDBRANCH   4  12
TORSDOF 4
ENDMDL
MODEL 8
REMARK VINA RESULT:    -5.719      2.986      4.809
REMARK INTER + INTRA:          -7.432
REMARK INTER:                  -7.142
REMARK INTRA:                  -0.289
REMARK UNBOUND:                -0.375
REMARK  Name = 
REMARK  4 active torsions:
REMARK  status: ('A' for Active; 'I' for Inactive)
REMARK    1  A    between atoms: C_2  and  C_4
REMARK    2  A    between atoms: C_7  and  N_8
REMARK    3  A    between atoms: N_8  and  C_9
REMARK    4  A    between atoms: C_9  and  C_10
REMARK                            x       y       z     vdW  Elec       q    Type
REMARK                         _______ _______ _______ _____ _____    ______ ____
ROOT
ATOM      1  C   UNL     1      44.912   3.799  10.601  0.00  0.00    +0.000 A 
ATOM      2  C   UNL     1      44.830   2.918  11.662  0.00  0.00    +0.000 A 
ATOM      3  N   UNL     1      45.196   3.268  12.922  0.00  0.00    +0.000 NA
ATOM      4  C   UNL     1      45.612   4.538  13.112  0.00  0.00    +0.000 A 
ATOM      5  C   UNL     1      45.703   5.408  12.017  0.00  0.00    +0.000 A 
ATOM      6  N   UNL     1      45.359   5.077  10.745  0.00  0.00    +0.000 NA
ENDROOT
BRANCH   1   8
ATOM      7  N   UNL     1      44.148   4.353   8.378  0.00  0.00    +0.000 N 
ATOM      8  C   UNL     1      44.542   3.355   9.228  0.00  0.00    +0.000 C 
ATOM      9  O   UNL     1      44.600   2.185   8.878  0.00  0.00    +0.000 OA
ATOM     10  H   UNL     1      43.925   4.129   7.418  0.00  0.00    +0.000 HD
ATOM     11  H   UNL     1      44.139   5.315   8.697  0.00  0.00    +0.000 HD
ENDBRANCH   1   8
BRANCH   4  12
ATOM     12  N   UNL     1      46.004   4.850  14.402  0.00  0.00    +0.000 N 
ATOM     13  H   UNL     1      45.717   4.097  15.023  0.00  0.00    +0.000 HD
BRANCH  12  14
ATOM     14  C   UNL     1      47.395   5.225  14.638  0.00  0.00    +0.000 C 
BRANCH  14  15
ATOM     15  C   UNL     1      47.893   4.625  15.938  0.00  0.00    +0.000 A 
ATOM     16  C   UNL     1      47.164   3.609  16.559  0.00  0.00    +0.000 A 
ATOM     17  C   UNL     1      47.616   3.098  17.770  0.00  0.00    +0.000 A 
ATOM     18  C   UNL     1      48.779   3.611  18.331  0.00  0.00    +0.000 A 
ATOM     19  C   UNL     1      49.446   4.616  17.650  0.00  0.00    +0.000 A 
ATOM     20  N   UNL     1      49.031   5.135  16.472  0.00  0.00    +0.000 NA
ENDBRANCH  14  15
ENDBRANCH  12  14
ENDBRANCH   4  12
TORSDOF 4
ENDMDL
MODEL 9
REMARK VINA RESULT:    -5.479      5.230      8.386
REMARK INTER + INTRA:          -7.135
REMARK INTER:                  -6.867
REMARK INTRA:                  -0.268
REMARK UNBOUND:                -0.375
REMARK  Name = 
REMARK  4 active torsions:
REMARK  status: ('A' for Active; 'I' for Inactive)
REMARK    1  A    between atoms: C_2  and  C_4
REMARK    2  A    between atoms: C_7  and  N_8
REMARK    3  A    between atoms: N_8  and  C_9
REMARK    4  A    between atoms: C_9  and  C_10
REMARK                            x       y       z     vdW  Elec       q    Type
REMARK                         _______ _______ _______ _____ _____    ______ ____
ROOT
ATOM      1  C   UNL     1      49.091   4.422  18.294  0.00  0.00    +0.000 A 
ATOM      2  C   UNL     1      49.139   5.252  17.190  0.00  0.00    +0.000 A 
ATOM      3  N   UNL     1      48.383   5.028  16.083  0.00  0.00    +0.000 NA
ATOM      4  C   UNL     1      47.542   3.973  16.116  0.00  0.00    +0.000 A 
ATOM      5  C   UNL     1      47.523   3.136  17.240  0.00  0.00    +0.000 A 
ATOM      6  N   UNL     1      48.281   3.329  18.351  0.00  0.00    +0.000 NA
ENDROOT
BRANCH   1   8
ATOM      7  N   UNL     1      49.490   4.241  20.668  0.00  0.00    +0.000 N 
ATOM      8  C   UNL     1      49.973   4.681  19.465  0.00  0.00    +0.000 C 
ATOM      9  O   UNL     1      51.059   5.234  19.361  0.00  0.00    +0.000 OA
ATOM     10  H   UNL     1      50.056   4.345  21.499  0.00  0.00    +0.000 HD
ATOM     11  H   UNL     1      48.598   3.763  20.711  0.00  0.00    +0.000 HD
ENDBRANCH   1   8
BRANCH   4  12
ATOM     12  N   UNL     1      46.809   3.760  14.962  0.00  0.00    +0.000 N 
ATOM     13  H   UNL     1      45.937   3.298  15.207  0.00  0.00    +0.000 HD
BRANCH  12  14
ATOM     14  C   UNL     1      46.572   4.888  14.067  0.00  0.00    +0.000 C 
BRANCH  14  15
ATOM     15  C   UNL     1      45.328   4.653  13.234  0.00  0.00    +0.000 A 
ATOM     16  C   UNL     1      44.464   5.714  12.958  0.00  0.00    +0.000 A 
ATOM     17  C   UNL     1      43.309   5.471  12.224  0.00  0.00    +0.000 A 
ATOM     18  C   UNL     1      43.043   4.180  11.786  0.00  0.00    +0.000 A 
ATOM     19  C   UNL     1      43.952   3.182  12.099  0.00  0.00    +0.000 A 
ATOM     20  N   UNL     1      45.083   3.386  12.811  0.00  0.00    +0.000 NA
ENDBRANCH  14  15
ENDBRANCH  12  14
ENDBRANCH   4  12
TORSDOF 4
ENDMDL
