MODEL 1
REMARK VINA RESULT:    -8.228      0.000      0.000
REMARK INTER + INTRA:         -11.572
REMARK INTER:                 -10.633
REMARK INTRA:                  -0.939
REMARK UNBOUND:                -0.939
REMARK  Name = 
REMARK  5 active torsions:
REMARK  status: ('A' for Active; 'I' for Inactive)
REMARK    1  A    between atoms: C_2  and  C_3
REMARK    2  A    between atoms: C_6  and  N_7
REMARK    3  A    between atoms: N_7  and  C_8
REMARK    4  A    between atoms: C_8  and  C_9
REMARK    5  A    between atoms: C_13  and  C_14
REMARK                            x       y       z     vdW  Elec       q    Type
REMARK                         _______ _______ _______ _____ _____    ______ ____
ROOT
ATOM      1  C   UNL     1      43.864   5.036  11.237  0.00  0.00    +0.000 C 
ATOM      2  C   UNL     1      42.533   5.201  11.974  0.00  0.00    +0.000 C 
ATOM      3  C   UNL     1      42.977   6.248  11.011  0.00  0.00    +0.000 C 
ENDROOT
BRANCH   1   4
ATOM      4  C   UNL     1      45.128   5.275  12.062  0.00  0.00    +0.000 A 
ATOM      5  C   UNL     1      45.550   4.364  13.036  0.00  0.00    +0.000 A 
ATOM      6  C   UNL     1      46.802   4.487  13.636  0.00  0.00    +0.000 A 
ATOM      7  C   UNL     1      47.640   5.556  13.306  0.00  0.00    +0.000 A 
ATOM      8  C   UNL     1      47.230   6.550  12.405  0.00  0.00    +0.000 A 
ATOM      9  C   UNL     1      45.967   6.378  11.801  0.00  0.00    +0.000 A 
BRANCH   8  10
ATOM     10  C   UNL     1      48.067   7.731  12.083  0.00  0.00    +0.000 A 
ATOM     11  C   UNL     1      49.407   7.567  11.673  0.00  0.00    +0.000 A 
ATOM     12  C   UNL     1      50.229   8.662  11.379  0.00  0.00    +0.000 A 
ATOM     13  C   UNL     1      49.726   9.954  11.472  0.00  0.00    +0.000 A 
ATOM     14  C   UNL     1      48.404  10.149  11.863  0.00  0.00    +0.000 A 
ATOM     15  C   UNL     1      47.595   9.052  12.169  0.00  0.00    +0.000 A 
ATOM     16  F   UNL     1      46.337   9.306  12.567  0.00  0.00    +0.000 F 
ENDBRANCH   8  10
ENDBRANCH   1   4
BRANCH   1  17
ATOM     17  N   UNL     1      43.934   3.868  10.364  0.00  0.00    +0.000 N 
ATOM     18  H   UNL     1      43.405   3.037  10.612  0.00  0.00    +0.000 HD
BRANCH  17  22
ATOM     19  C   UNL     1      46.625   2.673   7.502  0.00  0.00    +0.000 A 
ATOM     20  C   UNL     1      46.029   1.792   8.387  0.00  0.00    +0.000 A 
ATOM     21  N   UNL     1      45.162   2.199   9.350  0.00  0.00    +0.000 NA
ATOM     22  C   UNL     1      44.896   3.525   9.423  0.00  0.00    +0.000 A 
ATOM     23  C   UNL     1      45.526   4.399   8.542  0.00  0.00    +0.000 A 
ATOM     24  N   UNL     1      46.395   4.005   7.567  0.00  0.00    +0.000 NA
BRANCH  19  26
ATOM     25  N   UNL     1      48.236   1.799   5.667  0.00  0.00    +0.000 NA
ATOM     26  C   UNL     1      47.499   2.199   6.469  0.00  0.00    +0.000 C 
ENDBRANCH  19  26
ENDBRANCH  17  22
ENDBRANCH   1  17
TORSDOF 5
ENDMDL
MODEL 2
REMARK VINA RESULT:    -7.906      2.070      3.832
REMARK INTER + INTRA:         -11.156
REMARK INTER:                 -11.097
REMARK INTRA:                  -0.059
REMARK UNBOUND:                -0.939
REMARK  Name = 
REMARK  5 active torsions:
REMARK  status: ('A' for Active; 'I' for Inactive)
REMARK    1  A    between atoms: C_2  and  C_3
REMARK    2  A    between atoms: C_6  and  N_7
REMARK    3  A    between atoms: N_7  and  C_8
REMARK    4  A    between atoms: C_8  and  C_9
REMARK    5  A    between atoms: C_13  and  C_14
REMARK                            x       y       z     vdW  Elec       q    Type
REMARK                         _______ _______ _______ _____ _____    ______ ____
ROOT
ATOM      1  C   UNL     1      44.069   4.825  11.692  0.00  0.00    +0.000 C 
ATOM      2  C   UNL     1      43.412   3.692  12.483  0.00  0.00    +0.000 C 
ATOM      3  C   UNL     1      42.901   5.084  12.626  0.00  0.00    +0.000 C 
ENDROOT
BRANCH   1   4
ATOM      4  C   UNL     1      45.439   5.289  12.185  0.00  0.00    +0.000 A 
ATOM      5  C   UNL     1      46.173   6.264  11.498  0.00  0.00    +0.000 A 
ATOM      6  C   UNL     1      47.319   6.824  12.061  0.00  0.00    +0.000 A 
ATOM      7  C   UNL     1      47.782   6.383  13.304  0.00  0.00    +0.000 A 
ATOM      8  C   UNL     1      47.138   5.344  13.993  0.00  0.00    +0.000 A 
ATOM      9  C   UNL     1      45.969   4.820  13.404  0.00  0.00    +0.000 A 
BRANCH   8  10
ATOM     10  C   UNL     1      47.641   4.809  15.281  0.00  0.00    +0.000 A 
ATOM     11  C   UNL     1      47.476   3.446  15.602  0.00  0.00    +0.000 A 
ATOM     12  C   UNL     1      47.925   2.913  16.817  0.00  0.00    +0.000 A 
ATOM     13  C   UNL     1      48.567   3.729  17.740  0.00  0.00    +0.000 A 
ATOM     14  C   UNL     1      48.755   5.077  17.449  0.00  0.00    +0.000 A 
ATOM     15  C   UNL     1      48.292   5.605  16.241  0.00  0.00    +0.000 A 
ATOM     16  F   UNL     1      48.479   6.918  16.029  0.00  0.00    +0.000 F 
ENDBRANCH   8  10
ENDBRANCH   1   4
BRANCH   1  17
ATOM     17  N   UNL     1      43.974   4.687  10.241  0.00  0.00    +0.000 N 
ATOM     18  H   UNL     1      43.100   4.923   9.781  0.00  0.00    +0.000 HD
BRANCH  17  22
ATOM     19  C   UNL     1      46.453   2.605   7.716  0.00  0.00    +0.000 A 
ATOM     20  C   UNL     1      46.273   3.974   7.631  0.00  0.00    +0.000 A 
ATOM     21  N   UNL     1      45.429   4.652   8.451  0.00  0.00    +0.000 NA
ATOM     22  C   UNL     1      44.749   3.929   9.373  0.00  0.00    +0.000 A 
ATOM     23  C   UNL     1      44.923   2.548   9.425  0.00  0.00    +0.000 A 
ATOM     24  N   UNL     1      45.770   1.855   8.612  0.00  0.00    +0.000 NA
BRANCH  19  26
ATOM     25  N   UNL     1      48.176   1.425   6.176  0.00  0.00    +0.000 NA
ATOM     26  C   UNL     1      47.389   1.932   6.863  0.00  0.00    +0.000 C 
ENDBRANCH  19  26
ENDBRANCH  17  22
ENDBRANCH   1  17
TORSDOF 5
ENDMDL
MODEL 3
REMARK VINA RESULT:    -7.568      3.598      7.076
REMARK INTER + INTRA:         -10.719
REMARK INTER:                  -9.806
REMARK INTRA:                  -0.913
REMARK UNBOUND:                -0.939
REMARK  Name = 
REMARK  5 active torsions:
REMARK  status: ('A' for Active; 'I' for Inactive)
REMARK    1  A    between atoms: C_2  and  C_3
REMARK    2  A    between atoms: C_6  and  N_7
REMARK    3  A    between atoms: N_7  and  C_8
REMARK    4  A    between atoms: C_8  and  C_9
REMARK    5  A    between atoms: C_13  and  C_14
REMARK                            x       y       z     vdW  Elec       q    Type
REMARK                         _______ _______ _______ _____ _____    ______ ____
ROOT
ATOM      1  C   UNL     1      46.183   7.290  12.407  0.00  0.00    +0.000 C 
ATOM      2  C   UNL     1      46.361   8.662  11.755  0.00  0.00    +0.000 C 
ATOM      3  C   UNL     1      45.492   8.525  12.958  0.00  0.00    +0.000 C 
ENDROOT
BRANCH   1   4
ATOM      4  C   UNL     1      45.289   6.298  11.663  0.00  0.00    +0.000 A 
ATOM      5  C   UNL     1      43.906   6.259  11.871  0.00  0.00    +0.000 A 
ATOM      6  C   UNL     1      43.080   5.497  11.046  0.00  0.00    +0.000 A 
ATOM      7  C   UNL     1      43.630   4.718  10.024  0.00  0.00    +0.000 A 
ATOM      8  C   UNL     1      45.017   4.647   9.830  0.00  0.00    +0.000 A 
ATOM      9  C   UNL     1      45.818   5.450  10.668  0.00  0.00    +0.000 A 
BRANCH   8  10
ATOM     10  C   UNL     1      45.635   3.779   8.798  0.00  0.00    +0.000 A 
ATOM     11  C   UNL     1      46.330   4.347   7.710  0.00  0.00    +0.000 A 
ATOM     12  C   UNL     1      46.911   3.557   6.711  0.00  0.00    +0.000 A 
ATOM     13  C   UNL     1      46.825   2.172   6.782  0.00  0.00    +0.000 A 
ATOM     14  C   UNL     1      46.156   1.580   7.849  0.00  0.00    +0.000 A 
ATOM     15  C   UNL     1      45.567   2.376   8.835  0.00  0.00    +0.000 A 
ATOM     16  F   UNL     1      44.912   1.747   9.825  0.00  0.00    +0.000 F 
ENDBRANCH   8  10
ENDBRANCH   1   4
BRANCH   1  17
ATOM     17  N   UNL     1      47.411   6.703  12.936  0.00  0.00    +0.000 N 
ATOM     18  H   UNL     1      48.212   6.600  12.319  0.00  0.00    +0.000 HD
BRANCH  17  22
ATOM     19  C   UNL     1      47.942   4.531  16.379  0.00  0.00    +0.000 A 
ATOM     20  C   UNL     1      48.669   5.673  16.093  0.00  0.00    +0.000 A 
ATOM     21  N   UNL     1      48.508   6.370  14.938  0.00  0.00    +0.000 NA
ATOM     22  C   UNL     1      47.597   5.899  14.052  0.00  0.00    +0.000 A 
ATOM     23  C   UNL     1      46.895   4.733  14.347  0.00  0.00    +0.000 A 
ATOM     24  N   UNL     1      47.043   4.025  15.504  0.00  0.00    +0.000 NA
BRANCH  19  26
ATOM     25  N   UNL     1      48.279   3.325  18.651  0.00  0.00    +0.000 NA
ATOM     26  C   UNL     1      48.107   3.849  17.630  0.00  0.00    +0.000 C 
ENDBRANCH  19  26
ENDBRANCH  17  22
ENDBRANCH   1  17
TORSDOF 5
ENDMDL
MODEL 4
REMARK VINA RESULT:    -7.166      3.552      7.208
REMARK INTER + INTRA:         -10.200
REMARK INTER:                  -9.459
REMARK INTRA:                  -0.741
REMARK UNBOUND:                -0.939
REMARK  Name = 
REMARK  5 active torsions:
REMARK  status: ('A' for Active; 'I' for Inactive)
REMARK    1  A    between atoms: C_2  and  C_3
REMARK    2  A    between atoms: C_6  and  N_7
REMARK    3  A    between atoms: N_7  and  C_8
REMARK    4  A    between atoms: C_8  and  C_9
REMARK    5  A    between atoms: C_13  and  C_14
REMARK                            x       y       z     vdW  Elec       q    Type
REMARK                         _______ _______ _______ _____ _____    ______ ____
ROOT
ATOM      1  C   UNL     1      45.736   6.140  12.334  0.00  0.00    +0.000 C 
ATOM      2  C   UNL     1      45.559   7.446  11.556  0.00  0.00    +0.000 C 
ATOM      3  C   UNL     1      44.715   7.181  12.755  0.00  0.00    +0.000 C 
ENDROOT
BRANCH   1   4
ATOM      4  C   UNL     1      45.177   4.879  11.676  0.00  0.00    +0.000 A 
ATOM      5  C   UNL     1      44.002   4.273  12.136  0.00  0.00    +0.000 A 
ATOM      6  C   UNL     1      43.393   3.251  11.409  0.00  0.00    +0.000 A 
ATOM      7  C   UNL     1      43.978   2.780  10.230  0.00  0.00    +0.000 A 
ATOM      8  C   UNL     1      45.203   3.287   9.773  0.00  0.00    +0.000 A 
ATOM      9  C   UNL     1      45.776   4.336  10.521  0.00  0.00    +0.000 A 
BRANCH   8  10
ATOM     10  C   UNL     1      45.882   2.764   8.563  0.00  0.00    +0.000 A 
ATOM     11  C   UNL     1      46.106   1.379   8.411  0.00  0.00    +0.000 A 
ATOM     12  C   UNL     1      46.758   0.855   7.289  0.00  0.00    +0.000 A 
ATOM     13  C   UNL     1      47.192   1.703   6.277  0.00  0.00    +0.000 A 
ATOM     14  C   UNL     1      46.977   3.073   6.391  0.00  0.00    +0.000 A 
ATOM     15  C   UNL     1      46.338   3.590   7.520  0.00  0.00    +0.000 A 
ATOM     16  F   UNL     1      46.183   4.923   7.586  0.00  0.00    +0.000 F 
ENDBRANCH   8  10
ENDBRANCH   1   4
BRANCH   1  17
ATOM     17  N   UNL     1      47.057   5.963  12.932  0.00  0.00    +0.000 N 
ATOM     18  H   UNL     1      47.872   5.938  12.326  0.00  0.00    +0.000 HD
BRANCH  17  22
ATOM     19  C   UNL     1      48.047   4.653  16.695  0.00  0.00    +0.000 A 
ATOM     20  C   UNL     1      48.622   5.768  16.114  0.00  0.00    +0.000 A 
ATOM     21  N   UNL     1      48.311   6.179  14.857  0.00  0.00    +0.000 NA
ATOM     22  C   UNL     1      47.402   5.443  14.172  0.00  0.00    +0.000 A 
ATOM     23  C   UNL     1      46.855   4.308  14.764  0.00  0.00    +0.000 A 
ATOM     24  N   UNL     1      47.154   3.886  16.027  0.00  0.00    +0.000 NA
BRANCH  19  26
ATOM     25  N   UNL     1      48.583   3.954  19.135  0.00  0.00    +0.000 NA
ATOM     26  C   UNL     1      48.367   4.278  18.042  0.00  0.00    +0.000 C 
ENDBRANCH  19  26
ENDBRANCH  17  22
ENDBRANCH   1  17
TORSDOF 5
ENDMDL
MODEL 5
REMARK VINA RESULT:    -6.715      4.246      7.815
REMARK INTER + INTRA:          -9.617
REMARK INTER:                  -8.662
REMARK INTRA:                  -0.955
REMARK UNBOUND:                -0.939
REMARK  Name = 
REMARK  5 active torsions:
REMARK  status: ('A' for Active; 'I' for Inactive)
REMARK    1  A    between atoms: C_2  and  C_3
REMARK    2  A    between atoms: C_6  and  N_7
REMARK    3  A    between atoms: N_7  and  C_8
REMARK    4  A    between atoms: C_8  and  C_9
REMARK    5  A    between atoms: C_13  and  C_14
REMARK                            x       y       z     vdW  Elec       q    Type
REMARK                         _______ _______ _______ _____ _____    ______ ____
ROOT
ATOM      1  C   UNL     1      49.039   7.845  12.803  0.00  0.00    +0.000 C 
ATOM      2  C   UNL     1      49.945   7.951  11.575  0.00  0.00    +0.000 C 
ATOM      3  C   UNL     1      49.613   9.177  12.354  0.00  0.00    +0.000 C 
ENDROOT
BRANCH   1   4
ATOM      4  C   UNL     1      47.551   7.628  12.530  0.00  0.00    +0.000 A 
ATOM      5  C   UNL     1      46.590   8.563  12.930  0.00  0.00    +0.000 A 
ATOM      6  C   UNL     1      45.268   8.458  12.502  0.00  0.00    +0.000 A 
ATOM      7  C   UNL     1      44.870   7.383  11.700  0.00  0.00    +0.000 A 
ATOM      8  C   UNL     1      45.771   6.368  11.346  0.00  0.00    +0.000 A 
ATOM      9  C   UNL     1      47.104   6.522  11.778  0.00  0.00    +0.000 A 
BRANCH   8  10
ATOM     10  C   UNL     1      45.366   5.182  10.553  0.00  0.00    +0.000 A 
ATOM     11  C   UNL     1      45.664   5.107   9.177  0.00  0.00    +0.000 A 
ATOM     12  C   UNL     1      45.281   4.009   8.396  0.00  0.00    +0.000 A 
ATOM     13  C   UNL     1      44.601   2.946   8.978  0.00  0.00    +0.000 A 
ATOM     14  C   UNL     1      44.301   2.984  10.337  0.00  0.00    +0.000 A 
ATOM     15  C   UNL     1      44.675   4.089  11.105  0.00  0.00    +0.000 A 
ATOM     16  F   UNL     1      44.334   4.081  12.404  0.00  0.00    +0.000 F 
ENDBRANCH   8  10
ENDBRANCH   1   4
BRANCH   1  17
ATOM     17  N   UNL     1      49.572   7.018  13.883  0.00  0.00    +0.000 N 
ATOM     18  H   UNL     1      50.176   6.234  13.649  0.00  0.00    +0.000 HD
BRANCH  17  22
ATOM     19  C   UNL     1      48.366   6.352  17.750  0.00  0.00    +0.000 A 
ATOM     20  C   UNL     1      48.364   5.363  16.783  0.00  0.00    +0.000 A 
ATOM     21  N   UNL     1      48.737   5.598  15.498  0.00  0.00    +0.000 NA
ATOM     22  C   UNL     1      49.115   6.861  15.184  0.00  0.00    +0.000 A 
ATOM     23  C   UNL     1      49.083   7.849  16.165  0.00  0.00    +0.000 A 
ATOM     24  N   UNL     1      48.716   7.627  17.460  0.00  0.00    +0.000 NA
BRANCH  19  26
ATOM     25  N   UNL     1      47.679   5.796  20.189  0.00  0.00    +0.000 NA
ATOM     26  C   UNL     1      48.009   6.054  19.107  0.00  0.00    +0.000 C 
ENDBRANCH  19  26
ENDBRANCH  17  22
ENDBRANCH   1  17
TORSDOF 5
ENDMDL
MODEL 6
REMARK VINA RESULT:    -6.462      1.355      1.954
REMARK INTER + INTRA:          -9.290
REMARK INTER:                  -8.717
REMARK INTRA:                  -0.574
REMARK UNBOUND:                -0.939
REMARK  Name = 
REMARK  5 active torsions:
REMARK  status: ('A' for Active; 'I' for Inactive)
REMARK    1  A    between atoms: C_2  and  C_3
REMARK    2  A    between atoms: C_6  and  N_7
REMARK    3  A    between atoms: N_7  and  C_8
REMARK    4  A    between atoms: C_8  and  C_9
REMARK    5  A    between atoms: C_13  and  C_14
REMARK                            x       y       z     vdW  Elec       q    Type
REMARK                         _______ _______ _______ _____ _____    ______ ____
ROOT
ATOM      1  C   UNL     1      44.058   4.236  11.969  0.00  0.00    +0.000 C 
ATOM      2  C   UNL     1      42.991   3.887  13.010  0.00  0.00    +0.000 C 
ATOM      3  C   UNL     1      42.701   4.917  11.974  0.00  0.00    +0.000 C 
ENDROOT
BRANCH   1   4
ATOM      4  C   UNL     1      45.233   5.079  12.462  0.00  0.00    +0.000 A 
ATOM      5  C   UNL     1      46.353   4.493  13.063  0.00  0.00    +0.000 A 
ATOM      6  C   UNL     1      47.500   5.243  13.323  0.00  0.00    +0.000 A 
ATOM      7  C   UNL     1      47.530   6.609  13.028  0.00  0.00    +0.000 A 
ATOM      8  C   UNL     1      46.404   7.267  12.510  0.00  0.00    +0.000 A 
ATOM      9  C   UNL     1      45.272   6.471  12.239  0.00  0.00    +0.000 A 
BRANCH   8  10
ATOM     10  C   UNL     1      46.382   8.726  12.249  0.00  0.00    +0.000 A 
ATOM     11  C   UNL     1      45.223   9.343  11.735  0.00  0.00    +0.000 A 
ATOM     12  C   UNL     1      45.175  10.715  11.461  0.00  0.00    +0.000 A 
ATOM     13  C   UNL     1      46.284  11.513  11.712  0.00  0.00    +0.000 A 
ATOM     14  C   UNL     1      47.441  10.937  12.230  0.00  0.00    +0.000 A 
ATOM     15  C   UNL     1      47.485   9.565  12.486  0.00  0.00    +0.000 A 
ATOM     16  F   UNL     1      48.638   9.063  12.960  0.00  0.00    +0.000 F 
ENDBRANCH   8  10
ENDBRANCH   1   4
BRANCH   1  17
ATOM     17  N   UNL     1      44.443   3.129  11.098  0.00  0.00    +0.000 N 
ATOM     18  H   UNL     1      44.550   2.202  11.501  0.00  0.00    +0.000 HD
BRANCH  17  22
ATOM     19  C   UNL     1      46.151   3.008   7.367  0.00  0.00    +0.000 A 
ATOM     20  C   UNL     1      46.076   1.902   8.195  0.00  0.00    +0.000 A 
ATOM     21  N   UNL     1      45.535   1.956   9.440  0.00  0.00    +0.000 NA
ATOM     22  C   UNL     1      45.066   3.156   9.858  0.00  0.00    +0.000 A 
ATOM     23  C   UNL     1      45.174   4.264   9.021  0.00  0.00    +0.000 A 
ATOM     24  N   UNL     1      45.710   4.223   7.768  0.00  0.00    +0.000 NA
BRANCH  19  26
ATOM     25  N   UNL     1      47.160   2.794   4.987  0.00  0.00    +0.000 NA
ATOM     26  C   UNL     1      46.686   2.899   6.041  0.00  0.00    +0.000 C 
ENDBRANCH  19  26
ENDBRANCH  17  22
ENDBRANCH   1  17
TORSDOF 5
ENDMDL
MODEL 7
REMARK VINA RESULT:    -6.372      5.766      8.336
REMARK INTER + INTRA:          -9.174
REMARK INTER:                  -8.545
REMARK INTRA:                  -0.629
REMARK UNBOUND:                -0.939
REMARK  Name = 
REMARK  5 active torsions:
REMARK  status: ('A' for Active; 'I' for Inactive)
REMARK    1  A    between atoms: C_2  and  C_3
REMARK    2  A    between atoms: C_6  and  N_7
REMARK    3  A    between atoms: N_7  and  C_8
REMARK    4  A    between atoms: C_8  and  C_9
REMARK    5  A    between atoms: C_13  and  C_14
REMARK                            x       y       z     vdW  Elec       q    Type
REMARK                         _______ _______ _______ _____ _____    ______ ____
ROOT
ATOM      1  C   UNL     1      48.225   4.509  16.988  0.00  0.00    +0.000 C 
ATOM      2  C   UNL     1      47.281   4.741  18.169  0.00  0.00    +0.000 C 
ATOM      3  C   UNL     1      47.230   3.450  17.428  0.00  0.00    +0.000 C 
ENDROOT
BRANCH   1   4
ATOM      4  C   UNL     1      47.887   5.251  15.695  0.00  0.00    +0.000 A 
ATOM      5  C   UNL     1      48.701   6.280  15.207  0.00  0.00    +0.000 A 
ATOM      6  C   UNL     1      48.497   6.810  13.934  0.00  0.00    +0.000 A 
ATOM      7  C   UNL     1      47.441   6.351  13.141  0.00  0.00    +0.000 A 
ATOM      8  C   UNL     1      46.539   5.388  13.616  0.00  0.00    +0.000 A 
ATOM      9  C   UNL     1      46.791   4.859  14.899  0.00  0.00    +0.000 A 
BRANCH   8  10
ATOM     10  C   UNL     1      45.371   4.930  12.826  0.00  0.00    +0.000 A 
ATOM     11  C   UNL     1      44.350   5.835  12.468  0.00  0.00    +0.000 A 
ATOM     12  C   UNL     1      43.227   5.431  11.737  0.00  0.00    +0.000 A 
ATOM     13  C   UNL     1      43.101   4.108  11.329  0.00  0.00    +0.000 A 
ATOM     14  C   UNL     1      44.096   3.192  11.657  0.00  0.00    +0.000 A 
ATOM     15  C   UNL     1      45.208   3.600  12.399  0.00  0.00    +0.000 A 
ATOM     16  F   UNL     1      46.121   2.665  12.707  0.00  0.00    +0.000 F 
ENDBRANCH   8  10
ENDBRANCH   1   4
BRANCH   1  17
ATOM     17  N   UNL     1      49.645   4.528  17.330  0.00  0.00    +0.000 N 
ATOM     18  H   UNL     1      50.155   5.403  17.262  0.00  0.00    +0.000 HD
BRANCH  17  22
ATOM     19  C   UNL     1      52.377   1.490  17.734  0.00  0.00    +0.000 A 
ATOM     20  C   UNL     1      52.644   2.794  18.110  0.00  0.00    +0.000 A 
ATOM     21  N   UNL     1      51.745   3.800  17.947  0.00  0.00    +0.000 NA
ATOM     22  C   UNL     1      50.554   3.480  17.386  0.00  0.00    +0.000 A 
ATOM     23  C   UNL     1      50.314   2.167  16.989  0.00  0.00    +0.000 A 
ATOM     24  N   UNL     1      51.205   1.146  17.151  0.00  0.00    +0.000 NA
BRANCH  19  26
ATOM     25  N   UNL     1      54.111  -0.383  18.199  0.00  0.00    +0.000 NA
ATOM     26  C   UNL     1      53.334   0.447  17.966  0.00  0.00    +0.000 C 
ENDBRANCH  19  26
ENDBRANCH  17  22
ENDBRANCH   1  17
TORSDOF 5
ENDMDL
MODEL 8
REMARK VINA RESULT:    -6.339      3.367      6.008
REMARK INTER + INTRA:          -9.132
REMARK INTER:                  -8.264
REMARK INTRA:                  -0.867
REMARK UNBOUND:                -0.939
REMARK  Name = 
REMARK  5 active torsions:
REMARK  status: ('A' for Active; 'I' for Inactive)
REMARK    1  A    between atoms: C_2  and  C_3
REMARK    2  A    between atoms: C_6  and  N_7
REMARK    3  A    between atoms: N_7  and  C_8
REMARK    4  A    between atoms: C_8  and  C_9
REMARK    5  A    between atoms: C_13  and  C_14
REMARK                            x       y       z     vdW  Elec       q    Type
REMARK                         _______ _______ _______ _____ _____    ______ ____
ROOT
ATOM      1  C   UNL     1      48.043   8.096  12.550  0.00  0.00    +0.000 C 
ATOM      2  C   UNL     1      48.674   9.246  11.761  0.00  0.00    +0.000 C 
ATOM      3  C   UNL     1      49.195   7.861  11.589  0.00  0.00    +0.000 C 
ENDROOT
BRANCH   1   4
ATOM      4  C   UNL     1      48.386   8.028  14.037  0.00  0.00    +0.000 A 
ATOM      5  C   UNL     1      48.338   9.164  14.853  0.00  0.00    +0.000 A 
ATOM      6  C   UNL     1      48.453   9.055  16.238  0.00  0.00    +0.000 A 
ATOM      7  C   UNL     1      48.669   7.808  16.832  0.00  0.00    +0.000 A 
ATOM      8  C   UNL     1      48.818   6.649  16.055  0.00  0.00    +0.000 A 
ATOM      9  C   UNL     1      48.671   6.795  14.661  0.00  0.00    +0.000 A 
BRANCH   8  10
ATOM     10  C   UNL     1      49.113   5.323  16.650  0.00  0.00    +0.000 A 
ATOM     11  C   UNL     1      50.377   5.059  17.217  0.00  0.00    +0.000 A 
ATOM     12  C   UNL     1      50.693   3.813  17.771  0.00  0.00    +0.000 A 
ATOM     13  C   UNL     1      49.743   2.798  17.787  0.00  0.00    +0.000 A 
ATOM     14  C   UNL     1      48.482   3.030  17.245  0.00  0.00    +0.000 A 
ATOM     15  C   UNL     1      48.180   4.272  16.681  0.00  0.00    +0.000 A 
ATOM     16  F   UNL     1      46.956   4.426  16.149  0.00  0.00    +0.000 F 
ENDBRANCH   8  10
ENDBRANCH   1   4
BRANCH   1  17
ATOM     17  N   UNL     1      46.634   7.856  12.252  0.00  0.00    +0.000 N 
ATOM     18  H   UNL     1      45.954   8.577  12.478  0.00  0.00    +0.000 HD
BRANCH  17  22
ATOM     19  C   UNL     1      44.478   4.391  11.802  0.00  0.00    +0.000 A 
ATOM     20  C   UNL     1      44.763   4.942  13.038  0.00  0.00    +0.000 A 
ATOM     21  N   UNL     1      45.502   6.074  13.181  0.00  0.00    +0.000 NA
ATOM     22  C   UNL     1      45.966   6.656  12.049  0.00  0.00    +0.000 A 
ATOM     23  C   UNL     1      45.692   6.071  10.815  0.00  0.00    +0.000 A 
ATOM     24  N   UNL     1      44.948   4.938  10.657  0.00  0.00    +0.000 NA
BRANCH  19  26
ATOM     25  N   UNL     1      43.029   2.249  11.600  0.00  0.00    +0.000 NA
ATOM     26  C   UNL     1      43.655   3.222  11.690  0.00  0.00    +0.000 C 
ENDBRANCH  19  26
ENDBRANCH  17  22
ENDBRANCH   1  17
TORSDOF 5
ENDMDL
MODEL 9
REMARK VINA RESULT:    -6.221      3.260      6.619
REMARK INTER + INTRA:          -8.978
REMARK INTER:                  -8.938
REMARK INTRA:                  -0.041
REMARK UNBOUND:                -0.939
REMARK  Name = 
REMARK  5 active torsions:
REMARK  status: ('A' for Active; 'I' for Inactive)
REMARK    1  A    between atoms: C_2  and  C_3
REMARK    2  A    between atoms: C_6  and  N_7
REMARK    3  A    between atoms: N_7  and  C_8
REMARK    4  A    between atoms: C_8  and  C_9
REMARK    5  A    between atoms: C_13  and  C_14
REMARK                            x       y       z     vdW  Elec       q    Type
REMARK                         _______ _______ _______ _____ _____    ______ ____
ROOT
ATOM      1  C   UNL     1      44.286   6.265  11.920  0.00  0.00    +0.000 C 
ATOM      2  C   UNL     1      44.469   7.317  10.825  0.00  0.00    +0.000 C 
ATOM      3  C   UNL     1      43.124   7.112  11.432  0.00  0.00    +0.000 C 
ENDROOT
BRANCH   1   4
ATOM      4  C   UNL     1      44.289   4.806  11.464  0.00  0.00    +0.000 A 
ATOM      5  C   UNL     1      43.476   3.845  12.076  0.00  0.00    +0.000 A 
ATOM      6  C   UNL     1      43.336   2.572  11.526  0.00  0.00    +0.000 A 
ATOM      7  C   UNL     1      44.047   2.219  10.375  0.00  0.00    +0.000 A 
ATOM      8  C   UNL     1      44.946   3.112   9.774  0.00  0.00    +0.000 A 
ATOM      9  C   UNL     1      45.043   4.397  10.344  0.00  0.00    +0.000 A 
BRANCH   8  10
ATOM     10  C   UNL     1      45.764   2.746   8.592  0.00  0.00    +0.000 A 
ATOM     11  C   UNL     1      46.103   1.398   8.347  0.00  0.00    +0.000 A 
ATOM     12  C   UNL     1      46.887   1.021   7.250  0.00  0.00    +0.000 A 
ATOM     13  C   UNL     1      47.341   1.984   6.356  0.00  0.00    +0.000 A 
ATOM     14  C   UNL     1      47.015   3.321   6.564  0.00  0.00    +0.000 A 
ATOM     15  C   UNL     1      46.244   3.691   7.668  0.00  0.00    +0.000 A 
ATOM     16  F   UNL     1      45.985   4.999   7.830  0.00  0.00    +0.000 F 
ENDBRANCH   8  10
ENDBRANCH   1   4
BRANCH   1  17
ATOM     17  N   UNL     1      45.057   6.510  13.135  0.00  0.00    +0.000 N 
ATOM     18  H   UNL     1      44.569   6.804  13.977  0.00  0.00    +0.000 HD
BRANCH  17  22
ATOM     19  C   UNL     1      49.002   7.450  13.773  0.00  0.00    +0.000 A 
ATOM     20  C   UNL     1      47.999   8.402  13.749  0.00  0.00    +0.000 A 
ATOM     21  N   UNL     1      46.699   8.086  13.509  0.00  0.00    +0.000 NA
ATOM     22  C   UNL     1      46.411   6.782  13.282  0.00  0.00    +0.000 A 
ATOM     23  C   UNL     1      47.439   5.843  13.283  0.00  0.00    +0.000 A 
ATOM     24  N   UNL     1      48.747   6.144  13.527  0.00  0.00    +0.000 NA
BRANCH  19  26
ATOM     25  N   UNL     1      51.443   8.099  14.368  0.00  0.00    +0.000 NA
ATOM     26  C   UNL     1      50.355   7.816  14.077  0.00  0.00    +0.000 C 
ENDBRANCH  19  26
ENDBRANCH  17  22
ENDBRANCH   1  17
TORSDOF 5
ENDMDL
