MODEL 1
REMARK VINA RESULT:    -8.606      0.000      0.000
REMARK INTER + INTRA:         -10.427
REMARK INTER:                 -10.115
REMARK INTRA:                  -0.312
REMARK UNBOUND:                -0.312
REMARK  Name = 
REMARK  3 active torsions:
REMARK  status: ('A' for Active; 'I' for Inactive)
REMARK    1  A    between atoms: C_2  and  C_4
REMARK    2  A    between atoms: N_8  and  C_9
REMARK    3  A    between atoms: C_9  and  C_10
REMARK                            x       y       z     vdW  Elec       q    Type
REMARK                         _______ _______ _______ _____ _____    ______ ____
ROOT
ATOM      1  C   UNL     1      46.249   2.109   7.848  0.00  0.00    +0.000 A 
ATOM      2  C   UNL     1      46.335   3.413   7.370  0.00  0.00    +0.000 A 
ATOM      3  C   UNL     1      45.590   4.404   8.003  0.00  0.00    +0.000 A 
ATOM      4  C   UNL     1      44.833   4.070   9.125  0.00  0.00    +0.000 A 
ATOM      5  N   UNL     1      44.279   5.116   9.891  0.00  0.00    +0.000 N 
ATOM      6  N   UNL     1      44.645   2.785   9.496  0.00  0.00    +0.000 NA
ATOM      7  C   UNL     1      45.338   1.825   8.847  0.00  0.00    +0.000 A 
ATOM      8  H   UNL     1      44.803   5.972   9.738  0.00  0.00    +0.000 HD
ENDROOT
BRANCH   1  10
ATOM      9  N   UNL     1      46.802  -0.220   7.693  0.00  0.00    +0.000 N 
ATOM     10  C   UNL     1      47.191   1.059   7.422  0.00  0.00    +0.000 C 
ATOM     11  O   UNL     1      48.198   1.313   6.780  0.00  0.00    +0.000 OA
ATOM     12  H   UNL     1      47.322  -0.952   7.219  0.00  0.00    +0.000 HD
ATOM     13  H   UNL     1      45.848  -0.437   7.951  0.00  0.00    +0.000 HD
ENDBRANCH   1  10
BRANCH   5  14
ATOM     14  C   UNL     1      44.005   4.859  11.333  0.00  0.00    +0.000 C 
ATOM     15  C   UNL     1      43.068   3.744  11.754  0.00  0.00    +0.000 C 
ATOM     16  C   UNL     1      42.581   5.158  11.771  0.00  0.00    +0.000 C 
BRANCH  14  17
ATOM     17  C   UNL     1      45.099   5.253  12.331  0.00  0.00    +0.000 C 
ATOM     18  C   UNL     1      46.074   6.287  11.752  0.00  0.00    +0.000 C 
ATOM     19  C   UNL     1      46.899   6.883  12.889  0.00  0.00    +0.000 C 
ATOM     20  C   UNL     1      47.666   5.805  13.654  0.00  0.00    +0.000 C 
ATOM     21  C   UNL     1      46.798   4.609  14.059  0.00  0.00    +0.000 C 
ATOM     22  C   UNL     1      45.916   4.092  12.914  0.00  0.00    +0.000 C 
ENDBRANCH  14  17
ENDBRANCH   5  14
TORSDOF 3
ENDMDL
MODEL 2
REMARK VINA RESULT:    -6.673      3.111      6.138
REMARK INTER + INTRA:          -8.155
REMARK INTER:                  -8.608
REMARK INTRA:                   0.453
REMARK UNBOUND:                -0.312
REMARK  Name = 
REMARK  3 active torsions:
REMARK  status: ('A' for Active; 'I' for Inactive)
REMARK    1  A    between atoms: C_2  and  C_4
REMARK    2  A    between atoms: N_8  and  C_9
REMARK    3  A    between atoms: C_9  and  C_10
REMARK                            x       y       z     vdW  Elec       q    Type
REMARK                         _______ _______ _______ _____ _____    ______ ____
ROOT
ATOM      1  C   UNL     1      46.817   7.787  12.688  0.00  0.00    +0.000 A 
ATOM      2  C   UNL     1      45.508   8.229  12.518  0.00  0.00    +0.000 A 
ATOM      3  C   UNL     1      44.638   7.454  11.757  0.00  0.00    +0.000 A 
ATOM      4  C   UNL     1      45.087   6.238  11.242  0.00  0.00    +0.000 A 
ATOM      5  N   UNL     1      44.137   5.359  10.682  0.00  0.00    +0.000 N 
ATOM      6  N   UNL     1      46.390   5.885  11.294  0.00  0.00    +0.000 NA
ATOM      7  C   UNL     1      47.236   6.668  11.997  0.00  0.00    +0.000 A 
ATOM      8  H   UNL     1      43.215   5.564  11.054  0.00  0.00    +0.000 HD
ENDROOT
BRANCH   1  10
ATOM      9  N   UNL     1      47.106   8.949  14.766  0.00  0.00    +0.000 N 
ATOM     10  C   UNL     1      47.720   8.392  13.683  0.00  0.00    +0.000 C 
ATOM     11  O   UNL     1      48.935   8.306  13.593  0.00  0.00    +0.000 OA
ATOM     12  H   UNL     1      47.709   9.169  15.554  0.00  0.00    +0.000 HD
ATOM     13  H   UNL     1      46.135   8.757  14.979  0.00  0.00    +0.000 HD
ENDBRANCH   1  10
BRANCH   5  14
ATOM     14  C   UNL     1      44.447   3.902  10.681  0.00  0.00    +0.000 C 
ATOM     15  C   UNL     1      43.480   2.906  11.292  0.00  0.00    +0.000 C 
ATOM     16  C   UNL     1      44.702   3.307  12.056  0.00  0.00    +0.000 C 
BRANCH  14  17
ATOM     17  C   UNL     1      45.353   3.383   9.559  0.00  0.00    +0.000 C 
ATOM     18  C   UNL     1      45.355   4.307   8.334  0.00  0.00    +0.000 C 
ATOM     19  C   UNL     1      46.521   3.927   7.427  0.00  0.00    +0.000 C 
ATOM     20  C   UNL     1      46.438   2.466   6.985  0.00  0.00    +0.000 C 
ATOM     21  C   UNL     1      46.189   1.492   8.141  0.00  0.00    +0.000 C 
ATOM     22  C   UNL     1      45.068   1.951   9.084  0.00  0.00    +0.000 C 
ENDBRANCH  14  17
ENDBRANCH   5  14
TORSDOF 3
ENDMDL
MODEL 3
REMARK VINA RESULT:    -6.491      3.287      6.015
REMARK INTER + INTRA:          -7.941
REMARK INTER:                  -7.609
REMARK INTRA:                  -0.332
REMARK UNBOUND:                -0.312
REMARK  Name = 
REMARK  3 active torsions:
REMARK  status: ('A' for Active; 'I' for Inactive)
REMARK    1  A    between atoms: C_2  and  C_4
REMARK    2  A    between atoms: N_8  and  C_9
REMARK    3  A    between atoms: C_9  and  C_10
REMARK                            x       y       z     vdW  Elec       q    Type
REMARK                         _______ _______ _______ _____ _____    ______ ____
ROOT
ATOM      1  C   UNL     1      47.952   6.512  13.788  0.00  0.00    +0.000 A 
ATOM      2  C   UNL     1      47.643   5.285  14.365  0.00  0.00    +0.000 A 
ATOM      3  C   UNL     1      46.385   4.736  14.127  0.00  0.00    +0.000 A 
ATOM      4  C   UNL     1      45.505   5.403  13.276  0.00  0.00    +0.000 A 
ATOM      5  N   UNL     1      44.340   4.726  12.858  0.00  0.00    +0.000 N 
ATOM      6  N   UNL     1      45.757   6.654  12.834  0.00  0.00    +0.000 NA
ATOM      7  C   UNL     1      46.963   7.196  13.108  0.00  0.00    +0.000 A 
ATOM      8  H   UNL     1      44.476   3.724  12.936  0.00  0.00    +0.000 HD
ENDROOT
BRANCH   1  10
ATOM      9  N   UNL     1      49.809   7.351  12.524  0.00  0.00    +0.000 N 
ATOM     10  C   UNL     1      49.329   7.035  13.760  0.00  0.00    +0.000 C 
ATOM     11  O   UNL     1      49.955   7.267  14.783  0.00  0.00    +0.000 OA
ATOM     12  H   UNL     1      50.658   7.909  12.506  0.00  0.00    +0.000 HD
ATOM     13  H   UNL     1      49.194   7.438  11.725  0.00  0.00    +0.000 HD
ENDBRANCH   1  10
BRANCH   5  14
ATOM     14  C   UNL     1      43.725   5.125  11.561  0.00  0.00    +0.000 C 
ATOM     15  C   UNL     1      43.206   6.534  11.353  0.00  0.00    +0.000 C 
ATOM     16  C   UNL     1      42.238   5.427  11.630  0.00  0.00    +0.000 C 
BRANCH  14  17
ATOM     17  C   UNL     1      44.188   4.370  10.310  0.00  0.00    +0.000 C 
ATOM     18  C   UNL     1      44.483   2.891  10.594  0.00  0.00    +0.000 C 
ATOM     19  C   UNL     1      44.589   2.142   9.270  0.00  0.00    +0.000 C 
ATOM     20  C   UNL     1      45.677   2.733   8.373  0.00  0.00    +0.000 C 
ATOM     21  C   UNL     1      45.592   4.257   8.236  0.00  0.00    +0.000 C 
ATOM     22  C   UNL     1      45.396   4.972   9.580  0.00  0.00    +0.000 C 
ENDBRANCH  14  17
ENDBRANCH   5  14
TORSDOF 3
ENDMDL
