MODEL 1
REMARK VINA RESULT:    -8.899      0.000      0.000
REMARK INTER + INTRA:         -13.375
REMARK INTER:                 -12.541
REMARK INTRA:                  -0.834
REMARK UNBOUND:                -0.834
REMARK  Name = 
REMARK  7 active torsions:
REMARK  status: ('A' for Active; 'I' for Inactive)
REMARK    1  A    between atoms: C_2  and  C_4
REMARK    2  A    between atoms: C_7  and  O_8
REMARK    3  A    between atoms: O_8  and  C_9
REMARK    4  A    between atoms: C_9  and  C_10
REMARK    5  A    between atoms: C_10  and  C_13
REMARK    6  A    between atoms: C_17  and  N_18
REMARK    7  A    between atoms: N_18  and  C_19
REMARK                            x       y       z     vdW  Elec       q    Type
REMARK                         _______ _______ _______ _____ _____    ______ ____
ROOT
ATOM      1  C   UNL     1      43.459   5.431  12.029  0.00  0.00    +0.000 C 
ATOM      2  F   UNL     1      43.042   6.600  11.453  0.00  0.00    +0.000 F 
ATOM      3  F   UNL     1      42.581   5.204  13.055  0.00  0.00    +0.000 F 
ENDROOT
BRANCH   1   4
ATOM      4  C   UNL     1      44.888   5.541  12.532  0.00  0.00    +0.000 A 
ATOM      5  C   UNL     1      45.737   6.548  12.052  0.00  0.00    +0.000 A 
ATOM      6  C   UNL     1      47.048   6.647  12.519  0.00  0.00    +0.000 A 
ATOM      7  C   UNL     1      47.532   5.733  13.460  0.00  0.00    +0.000 A 
ATOM      8  C   UNL     1      46.713   4.715  13.947  0.00  0.00    +0.000 A 
ATOM      9  C   UNL     1      45.389   4.637  13.486  0.00  0.00    +0.000 A 
BRANCH   8  10
ATOM     10  N   UNL     1      47.138   3.787  14.925  0.00  0.00    +0.000 N 
ATOM     11  H   UNL     1      46.836   2.849  14.656  0.00  0.00    +0.000 HD
BRANCH  10  12
ATOM     12  C   UNL     1      47.101   4.006  16.351  0.00  0.00    +0.000 C 
ATOM     13  C   UNL     1      48.273   4.863  16.855  0.00  0.00    +0.000 C 
ATOM     14  O   UNL     1      48.677   3.838  17.795  0.00  0.00    +0.000 OA
ATOM     15  C   UNL     1      47.718   2.912  17.228  0.00  0.00    +0.000 C 
ENDBRANCH  10  12
ENDBRANCH   8  10
ENDBRANCH   1   4
BRANCH   1  16
ATOM     16  C   UNL     1      43.311   4.302  10.998  0.00  0.00    +0.000 C 
BRANCH  16  17
ATOM     17  O   UNL     1      43.651   4.771   9.676  0.00  0.00    +0.000 OA
BRANCH  17  21
ATOM     18  C   UNL     1      46.310   2.247   7.799  0.00  0.00    +0.000 A 
ATOM     19  C   UNL     1      45.456   1.738   8.779  0.00  0.00    +0.000 A 
ATOM     20  C   UNL     1      44.557   2.603   9.416  0.00  0.00    +0.000 A 
ATOM     21  C   UNL     1      44.546   3.939   9.037  0.00  0.00    +0.000 A 
ATOM     22  N   UNL     1      45.362   4.456   8.093  0.00  0.00    +0.000 NA
ATOM     23  C   UNL     1      46.235   3.600   7.505  0.00  0.00    +0.000 A 
BRANCH  18  25
ATOM     24  N   UNL     1      48.428   2.060   6.620  0.00  0.00    +0.000 N 
ATOM     25  C   UNL     1      47.303   1.432   7.072  0.00  0.00    +0.000 C 
ATOM     26  O   UNL     1      47.147   0.227   6.918  0.00  0.00    +0.000 OA
ATOM     27  H   UNL     1      49.146   1.459   6.234  0.00  0.00    +0.000 HD
ATOM     28  H   UNL     1      48.714   2.970   6.952  0.00  0.00    +0.000 HD
ENDBRANCH  18  25
ENDBRANCH  17  21
ENDBRANCH  16  17
ENDBRANCH   1  16
TORSDOF 7
ENDMDL
MODEL 2
REMARK VINA RESULT:    -8.326      2.663      4.002
REMARK INTER + INTRA:         -12.568
REMARK INTER:                 -11.637
REMARK INTRA:                  -0.931
REMARK UNBOUND:                -0.834
REMARK  Name = 
REMARK  7 active torsions:
REMARK  status: ('A' for Active; 'I' for Inactive)
REMARK    1  A    between atoms: C_2  and  C_4
REMARK    2  A    between atoms: C_7  and  O_8
REMARK    3  A    between atoms: O_8  and  C_9
REMARK    4  A    between atoms: C_9  and  C_10
REMARK    5  A    between atoms: C_10  and  C_13
REMARK    6  A    between atoms: C_17  and  N_18
REMARK    7  A    between atoms: N_18  and  C_19
REMARK                            x       y       z     vdW  Elec       q    Type
REMARK                         _______ _______ _______ _____ _____    ______ ____
ROOT
ATOM      1  C   UNL     1      43.360   4.435  12.660  0.00  0.00    +0.000 C 
ATOM      2  F   UNL     1      42.336   5.330  12.510  0.00  0.00    +0.000 F 
ATOM      3  F   UNL     1      43.023   3.685  13.755  0.00  0.00    +0.000 F 
ENDROOT
BRANCH   1   4
ATOM      4  C   UNL     1      44.689   5.144  12.857  0.00  0.00    +0.000 A 
ATOM      5  C   UNL     1      45.867   4.409  13.055  0.00  0.00    +0.000 A 
ATOM      6  C   UNL     1      47.085   5.065  13.231  0.00  0.00    +0.000 A 
ATOM      7  C   UNL     1      47.142   6.461  13.228  0.00  0.00    +0.000 A 
ATOM      8  C   UNL     1      45.985   7.218  13.043  0.00  0.00    +0.000 A 
ATOM      9  C   UNL     1      44.766   6.548  12.846  0.00  0.00    +0.000 A 
BRANCH   8  10
ATOM     10  N   UNL     1      45.989   8.630  12.994  0.00  0.00    +0.000 N 
ATOM     11  H   UNL     1      45.631   9.001  13.875  0.00  0.00    +0.000 HD
BRANCH  10  12
ATOM     12  C   UNL     1      45.607   9.424  11.850  0.00  0.00    +0.000 C 
ATOM     13  C   UNL     1      46.195  10.844  11.885  0.00  0.00    +0.000 C 
ATOM     14  O   UNL     1      44.880  11.439  11.773  0.00  0.00    +0.000 OA
ATOM     15  C   UNL     1      44.257  10.141  11.933  0.00  0.00    +0.000 C 
ENDBRANCH  10  12
ENDBRANCH   8  10
ENDBRANCH   1   4
BRANCH   1  16
ATOM     16  C   UNL     1      43.389   3.518  11.428  0.00  0.00    +0.000 C 
BRANCH  16  17
ATOM     17  O   UNL     1      43.649   4.281  10.231  0.00  0.00    +0.000 OA
BRANCH  17  21
ATOM     18  C   UNL     1      46.429   2.512   7.759  0.00  0.00    +0.000 A 
ATOM     19  C   UNL     1      46.255   3.896   7.715  0.00  0.00    +0.000 A 
ATOM     20  C   UNL     1      45.305   4.490   8.557  0.00  0.00    +0.000 A 
ATOM     21  C   UNL     1      44.577   3.673   9.411  0.00  0.00    +0.000 A 
ATOM     22  N   UNL     1      44.726   2.332   9.471  0.00  0.00    +0.000 NA
ATOM     23  C   UNL     1      45.639   1.781   8.634  0.00  0.00    +0.000 A 
BRANCH  18  25
ATOM     24  N   UNL     1      48.511   2.444   6.505  0.00  0.00    +0.000 N 
ATOM     25  C   UNL     1      47.390   1.778   6.912  0.00  0.00    +0.000 C 
ATOM     26  O   UNL     1      47.211   0.603   6.620  0.00  0.00    +0.000 OA
ATOM     27  H   UNL     1      49.209   1.885   6.030  0.00  0.00    +0.000 HD
ATOM     28  H   UNL     1      48.819   3.304   6.935  0.00  0.00    +0.000 HD
ENDBRANCH  18  25
ENDBRANCH  17  21
ENDBRANCH  16  17
ENDBRANCH   1  16
TORSDOF 7
ENDMDL
MODEL 3
REMARK VINA RESULT:    -7.755      2.662      3.128
REMARK INTER + INTRA:         -11.763
REMARK INTER:                 -10.837
REMARK INTRA:                  -0.927
REMARK UNBOUND:                -0.834
REMARK  Name = 
REMARK  7 active torsions:
REMARK  status: ('A' for Active; 'I' for Inactive)
REMARK    1  A    between atoms: C_2  and  C_4
REMARK    2  A    between atoms: C_7  and  O_8
REMARK    3  A    between atoms: O_8  and  C_9
REMARK    4  A    between atoms: C_9  and  C_10
REMARK    5  A    between atoms: C_10  and  C_13
REMARK    6  A    between atoms: C_17  and  N_18
REMARK    7  A    between atoms: N_18  and  C_19
REMARK                            x       y       z     vdW  Elec       q    Type
REMARK                         _______ _______ _______ _____ _____    ______ ____
ROOT
ATOM      1  C   UNL     1      43.823   5.035  12.206  0.00  0.00    +0.000 C 
ATOM      2  F   UNL     1      42.688   5.096  12.967  0.00  0.00    +0.000 F 
ATOM      3  F   UNL     1      44.522   3.963  12.692  0.00  0.00    +0.000 F 
ENDROOT
BRANCH   1   4
ATOM      4  C   UNL     1      44.628   6.320  12.310  0.00  0.00    +0.000 A 
ATOM      5  C   UNL     1      44.275   7.445  11.551  0.00  0.00    +0.000 A 
ATOM      6  C   UNL     1      45.015   8.623  11.653  0.00  0.00    +0.000 A 
ATOM      7  C   UNL     1      46.125   8.688  12.500  0.00  0.00    +0.000 A 
ATOM      8  C   UNL     1      46.505   7.581  13.259  0.00  0.00    +0.000 A 
ATOM      9  C   UNL     1      45.741   6.406  13.165  0.00  0.00    +0.000 A 
BRANCH   8  10
ATOM     10  N   UNL     1      47.594   7.602  14.159  0.00  0.00    +0.000 N 
ATOM     11  H   UNL     1      47.445   8.334  14.855  0.00  0.00    +0.000 HD
BRANCH  10  12
ATOM     12  C   UNL     1      48.982   7.447  13.789  0.00  0.00    +0.000 C 
ATOM     13  C   UNL     1      49.639   8.771  13.367  0.00  0.00    +0.000 C 
ATOM     14  O   UNL     1      50.031   8.219  12.087  0.00  0.00    +0.000 OA
ATOM     15  C   UNL     1      49.263   7.019  12.346  0.00  0.00    +0.000 C 
ENDBRANCH  10  12
ENDBRANCH   8  10
ENDBRANCH   1   4
BRANCH   1  16
ATOM     16  C   UNL     1      43.420   4.740  10.754  0.00  0.00    +0.000 C 
BRANCH  16  17
ATOM     17  O   UNL     1      43.587   3.339  10.453  0.00  0.00    +0.000 OA
BRANCH  17  21
ATOM     18  C   UNL     1      46.478   2.733   7.581  0.00  0.00    +0.000 A 
ATOM     19  C   UNL     1      46.038   4.030   7.849  0.00  0.00    +0.000 A 
ATOM     20  C   UNL     1      45.052   4.228   8.824  0.00  0.00    +0.000 A 
ATOM     21  C   UNL     1      44.556   3.118   9.495  0.00  0.00    +0.000 A 
ATOM     22  N   UNL     1      44.963   1.854   9.254  0.00  0.00    +0.000 NA
ATOM     23  C   UNL     1      45.905   1.689   8.293  0.00  0.00    +0.000 A 
BRANCH  18  25
ATOM     24  N   UNL     1      47.477   3.103   5.395  0.00  0.00    +0.000 N 
ATOM     25  C   UNL     1      47.501   2.405   6.569  0.00  0.00    +0.000 C 
ATOM     26  O   UNL     1      48.368   1.570   6.789  0.00  0.00    +0.000 OA
ATOM     27  H   UNL     1      48.258   2.947   4.771  0.00  0.00    +0.000 HD
ATOM     28  H   UNL     1      46.959   3.964   5.285  0.00  0.00    +0.000 HD
ENDBRANCH  18  25
ENDBRANCH  17  21
ENDBRANCH  16  17
ENDBRANCH   1  16
TORSDOF 7
ENDMDL
MODEL 4
REMARK VINA RESULT:    -7.734      1.547      1.999
REMARK INTER + INTRA:         -11.733
REMARK INTER:                 -11.276
REMARK INTRA:                  -0.457
REMARK UNBOUND:                -0.834
REMARK  Name = 
REMARK  7 active torsions:
REMARK  status: ('A' for Active; 'I' for Inactive)
REMARK    1  A    between atoms: C_2  and  C_4
REMARK    2  A    between atoms: C_7  and  O_8
REMARK    3  A    between atoms: O_8  and  C_9
REMARK    4  A    between atoms: C_9  and  C_10
REMARK    5  A    between atoms: C_10  and  C_13
REMARK    6  A    between atoms: C_17  and  N_18
REMARK    7  A    between atoms: N_18  and  C_19
REMARK                            x       y       z     vdW  Elec       q    Type
REMARK                         _______ _______ _______ _____ _____    ______ ____
ROOT
ATOM      1  C   UNL     1      43.580   5.479  11.979  0.00  0.00    +0.000 C 
ATOM      2  F   UNL     1      43.464   6.735  11.449  0.00  0.00    +0.000 F 
ATOM      3  F   UNL     1      42.601   5.401  12.933  0.00  0.00    +0.000 F 
ENDROOT
BRANCH   1   4
ATOM      4  C   UNL     1      44.960   5.257  12.577  0.00  0.00    +0.000 A 
ATOM      5  C   UNL     1      45.411   3.961  12.864  0.00  0.00    +0.000 A 
ATOM      6  C   UNL     1      46.680   3.762  13.409  0.00  0.00    +0.000 A 
ATOM      7  C   UNL     1      47.507   4.853  13.688  0.00  0.00    +0.000 A 
ATOM      8  C   UNL     1      47.080   6.154  13.422  0.00  0.00    +0.000 A 
ATOM      9  C   UNL     1      45.810   6.343  12.854  0.00  0.00    +0.000 A 
BRANCH   8  10
ATOM     10  N   UNL     1      47.888   7.291  13.649  0.00  0.00    +0.000 N 
ATOM     11  H   UNL     1      48.444   7.484  12.815  0.00  0.00    +0.000 HD
BRANCH  10  12
ATOM     12  C   UNL     1      48.591   7.580  14.877  0.00  0.00    +0.000 C 
ATOM     13  C   UNL     1      50.117   7.474  14.731  0.00  0.00    +0.000 C 
ATOM     14  O   UNL     1      50.197   6.511  15.810  0.00  0.00    +0.000 OA
ATOM     15  C   UNL     1      48.752   6.421  15.863  0.00  0.00    +0.000 C 
ENDBRANCH  10  12
ENDBRANCH   8  10
ENDBRANCH   1   4
BRANCH   1  16
ATOM     16  C   UNL     1      43.274   4.456  10.877  0.00  0.00    +0.000 C 
BRANCH  16  17
ATOM     17  O   UNL     1      43.693   4.954   9.588  0.00  0.00    +0.000 OA
BRANCH  17  21
ATOM     18  C   UNL     1      46.433   2.448   7.802  0.00  0.00    +0.000 A 
ATOM     19  C   UNL     1      45.469   1.912   8.658  0.00  0.00    +0.000 A 
ATOM     20  C   UNL     1      44.543   2.771   9.264  0.00  0.00    +0.000 A 
ATOM     21  C   UNL     1      44.617   4.128   8.981  0.00  0.00    +0.000 A 
ATOM     22  N   UNL     1      45.540   4.672   8.158  0.00  0.00    +0.000 NA
ATOM     23  C   UNL     1      46.435   3.821   7.598  0.00  0.00    +0.000 A 
BRANCH  18  25
ATOM     24  N   UNL     1      48.341   2.297   6.302  0.00  0.00    +0.000 N 
ATOM     25  C   UNL     1      47.463   1.642   7.119  0.00  0.00    +0.000 C 
ATOM     26  O   UNL     1      47.557   0.437   7.310  0.00  0.00    +0.000 OA
ATOM     27  H   UNL     1      49.108   1.744   5.943  0.00  0.00    +0.000 HD
ATOM     28  H   UNL     1      48.463   3.300   6.328  0.00  0.00    +0.000 HD
ENDBRANCH  18  25
ENDBRANCH  17  21
ENDBRANCH  16  17
ENDBRANCH   1  16
TORSDOF 7
ENDMDL
MODEL 5
REMARK VINA RESULT:    -7.668      2.395      3.490
REMARK INTER + INTRA:         -11.640
REMARK INTER:                 -10.845
REMARK INTRA:                  -0.795
REMARK UNBOUND:                -0.834
REMARK  Name = 
REMARK  7 active torsions:
REMARK  status: ('A' for Active; 'I' for Inactive)
REMARK    1  A    between atoms: C_2  and  C_4
REMARK    2  A    between atoms: C_7  and  O_8
REMARK    3  A    between atoms: O_8  and  C_9
REMARK    4  A    between atoms: C_9  and  C_10
REMARK    5  A    between atoms: C_10  and  C_13
REMARK    6  A    between atoms: C_17  and  N_18
REMARK    7  A    between atoms: N_18  and  C_19
REMARK                            x       y       z     vdW  Elec       q    Type
REMARK                         _______ _______ _______ _____ _____    ______ ____
ROOT
ATOM      1  C   UNL     1      44.387   4.974  12.405  0.00  0.00    +0.000 C 
ATOM      2  F   UNL     1      43.262   5.395  13.061  0.00  0.00    +0.000 F 
ATOM      3  F   UNL     1      44.319   3.607  12.417  0.00  0.00    +0.000 F 
ENDROOT
BRANCH   1   4
ATOM      4  C   UNL     1      45.647   5.477  13.090  0.00  0.00    +0.000 A 
ATOM      5  C   UNL     1      46.314   4.680  14.030  0.00  0.00    +0.000 A 
ATOM      6  C   UNL     1      47.472   5.145  14.653  0.00  0.00    +0.000 A 
ATOM      7  C   UNL     1      47.970   6.416  14.357  0.00  0.00    +0.000 A 
ATOM      8  C   UNL     1      47.321   7.236  13.433  0.00  0.00    +0.000 A 
ATOM      9  C   UNL     1      46.168   6.750  12.796  0.00  0.00    +0.000 A 
BRANCH   8  10
ATOM     10  N   UNL     1      47.800   8.515  13.069  0.00  0.00    +0.000 N 
ATOM     11  H   UNL     1      47.114   9.222  13.335  0.00  0.00    +0.000 HD
BRANCH  10  12
ATOM     12  C   UNL     1      48.485   8.826  11.837  0.00  0.00    +0.000 C 
ATOM     13  C   UNL     1      49.563   7.793  11.474  0.00  0.00    +0.000 C 
ATOM     14  O   UNL     1      50.585   8.817  11.407  0.00  0.00    +0.000 OA
ATOM     15  C   UNL     1      49.662   9.800  11.935  0.00  0.00    +0.000 C 
ENDBRANCH  10  12
ENDBRANCH   8  10
ENDBRANCH   1   4
BRANCH   1  16
ATOM     16  C   UNL     1      44.309   5.456  10.949  0.00  0.00    +0.000 C 
BRANCH  16  17
ATOM     17  O   UNL     1      43.683   4.458  10.115  0.00  0.00    +0.000 OA
BRANCH  17  21
ATOM     18  C   UNL     1      46.380   2.475   7.714  0.00  0.00    +0.000 A 
ATOM     19  C   UNL     1      45.656   1.759   8.669  0.00  0.00    +0.000 A 
ATOM     20  C   UNL     1      44.743   2.441   9.484  0.00  0.00    +0.000 A 
ATOM     21  C   UNL     1      44.589   3.809   9.301  0.00  0.00    +0.000 A 
ATOM     22  N   UNL     1      45.278   4.524   8.386  0.00  0.00    +0.000 NA
ATOM     23  C   UNL     1      46.167   3.843   7.622  0.00  0.00    +0.000 A 
BRANCH  18  25
ATOM     24  N   UNL     1      48.462   2.615   6.466  0.00  0.00    +0.000 N 
ATOM     25  C   UNL     1      47.374   1.864   6.810  0.00  0.00    +0.000 C 
ATOM     26  O   UNL     1      47.252   0.711   6.417  0.00  0.00    +0.000 OA
ATOM     27  H   UNL     1      49.186   2.134   5.946  0.00  0.00    +0.000 HD
ATOM     28  H   UNL     1      48.729   3.449   6.970  0.00  0.00    +0.000 HD
ENDBRANCH  18  25
ENDBRANCH  17  21
ENDBRANCH  16  17
ENDBRANCH   1  16
TORSDOF 7
ENDMDL
MODEL 6
REMARK VINA RESULT:    -7.188      1.700      7.896
REMARK INTER + INTRA:         -10.964
REMARK INTER:                 -10.432
REMARK INTRA:                  -0.532
REMARK UNBOUND:                -0.834
REMARK  Name = 
REMARK  7 active torsions:
REMARK  status: ('A' for Active; 'I' for Inactive)
REMARK    1  A    between atoms: C_2  and  C_4
REMARK    2  A    between atoms: C_7  and  O_8
REMARK    3  A    between atoms: O_8  and  C_9
REMARK    4  A    between atoms: C_9  and  C_10
REMARK    5  A    between atoms: C_10  and  C_13
REMARK    6  A    between atoms: C_17  and  N_18
REMARK    7  A    between atoms: N_18  and  C_19
REMARK                            x       y       z     vdW  Elec       q    Type
REMARK                         _______ _______ _______ _____ _____    ______ ____
ROOT
ATOM      1  C   UNL     1      44.584   5.772  11.394  0.00  0.00    +0.000 C 
ATOM      2  F   UNL     1      43.296   6.220  11.505  0.00  0.00    +0.000 F 
ATOM      3  F   UNL     1      45.283   6.817  10.854  0.00  0.00    +0.000 F 
ENDROOT
BRANCH   1   4
ATOM      4  C   UNL     1      44.665   4.534  10.516  0.00  0.00    +0.000 A 
ATOM      5  C   UNL     1      44.032   3.344  10.902  0.00  0.00    +0.000 A 
ATOM      6  C   UNL     1      44.106   2.212  10.091  0.00  0.00    +0.000 A 
ATOM      7  C   UNL     1      44.825   2.248   8.893  0.00  0.00    +0.000 A 
ATOM      8  C   UNL     1      45.473   3.415   8.489  0.00  0.00    +0.000 A 
ATOM      9  C   UNL     1      45.375   4.555   9.302  0.00  0.00    +0.000 A 
BRANCH   8  10
ATOM     10  N   UNL     1      46.183   3.520   7.271  0.00  0.00    +0.000 N 
ATOM     11  H   UNL     1      45.866   4.347   6.764  0.00  0.00    +0.000 HD
BRANCH  10  12
ATOM     12  C   UNL     1      46.510   2.415   6.401  0.00  0.00    +0.000 C 
ATOM     13  C   UNL     1      47.591   1.493   6.987  0.00  0.00    +0.000 C 
ATOM     14  O   UNL     1      48.431   1.663   5.819  0.00  0.00    +0.000 OA
ATOM     15  C   UNL     1      47.545   2.688   5.307  0.00  0.00    +0.000 C 
ENDBRANCH  10  12
ENDBRANCH   8  10
ENDBRANCH   1   4
BRANCH   1  16
ATOM     16  C   UNL     1      45.126   5.496  12.804  0.00  0.00    +0.000 C 
BRANCH  16  17
ATOM     17  O   UNL     1      46.569   5.502  12.806  0.00  0.00    +0.000 OA
BRANCH  17  21
ATOM     18  C   UNL     1      48.170   4.949  16.562  0.00  0.00    +0.000 A 
ATOM     19  C   UNL     1      48.589   6.035  15.790  0.00  0.00    +0.000 A 
ATOM     20  C   UNL     1      48.042   6.214  14.513  0.00  0.00    +0.000 A 
ATOM     21  C   UNL     1      47.094   5.303  14.067  0.00  0.00    +0.000 A 
ATOM     22  N   UNL     1      46.673   4.245  14.793  0.00  0.00    +0.000 NA
ATOM     23  C   UNL     1      47.231   4.085  16.018  0.00  0.00    +0.000 A 
BRANCH  18  25
ATOM     24  N   UNL     1      47.906   3.892  18.735  0.00  0.00    +0.000 N 
ATOM     25  C   UNL     1      48.685   4.656  17.914  0.00  0.00    +0.000 C 
ATOM     26  O   UNL     1      49.788   5.047  18.272  0.00  0.00    +0.000 OA
ATOM     27  H   UNL     1      48.332   3.604  19.608  0.00  0.00    +0.000 HD
ATOM     28  H   UNL     1      47.132   3.340  18.392  0.00  0.00    +0.000 HD
ENDBRANCH  18  25
ENDBRANCH  17  21
ENDBRANCH  16  17
ENDBRANCH   1  16
TORSDOF 7
ENDMDL
MODEL 7
REMARK VINA RESULT:    -7.023      2.285      8.080
REMARK INTER + INTRA:         -10.732
REMARK INTER:                 -10.088
REMARK INTRA:                  -0.643
REMARK UNBOUND:                -0.834
REMARK  Name = 
REMARK  7 active torsions:
REMARK  status: ('A' for Active; 'I' for Inactive)
REMARK    1  A    between atoms: C_2  and  C_4
REMARK    2  A    between atoms: C_7  and  O_8
REMARK    3  A    between atoms: O_8  and  C_9
REMARK    4  A    between atoms: C_9  and  C_10
REMARK    5  A    between atoms: C_10  and  C_13
REMARK    6  A    between atoms: C_17  and  N_18
REMARK    7  A    between atoms: N_18  and  C_19
REMARK                            x       y       z     vdW  Elec       q    Type
REMARK                         _______ _______ _______ _____ _____    ______ ____
ROOT
ATOM      1  C   UNL     1      46.483   6.256  12.606  0.00  0.00    +0.000 C 
ATOM      2  F   UNL     1      46.127   7.371  13.314  0.00  0.00    +0.000 F 
ATOM      3  F   UNL     1      47.167   6.725  11.517  0.00  0.00    +0.000 F 
ENDROOT
BRANCH   1   4
ATOM      4  C   UNL     1      45.263   5.449  12.194  0.00  0.00    +0.000 A 
ATOM      5  C   UNL     1      43.974   5.879  12.539  0.00  0.00    +0.000 A 
ATOM      6  C   UNL     1      42.858   5.137  12.155  0.00  0.00    +0.000 A 
ATOM      7  C   UNL     1      43.013   3.949  11.436  0.00  0.00    +0.000 A 
ATOM      8  C   UNL     1      44.284   3.491  11.088  0.00  0.00    +0.000 A 
ATOM      9  C   UNL     1      45.401   4.256  11.461  0.00  0.00    +0.000 A 
BRANCH   8  10
ATOM     10  N   UNL     1      44.499   2.317  10.331  0.00  0.00    +0.000 N 
ATOM     11  H   UNL     1      45.204   1.740  10.792  0.00  0.00    +0.000 HD
BRANCH  10  12
ATOM     12  C   UNL     1      44.576   2.259   8.890  0.00  0.00    +0.000 C 
ATOM     13  C   UNL     1      45.958   1.820   8.382  0.00  0.00    +0.000 C 
ATOM     14  O   UNL     1      46.090   3.016   7.576  0.00  0.00    +0.000 OA
ATOM     15  C   UNL     1      44.890   3.571   8.167  0.00  0.00    +0.000 C 
ENDBRANCH  10  12
ENDBRANCH   8  10
ENDBRANCH   1   4
BRANCH   1  16
ATOM     16  C   UNL     1      47.444   5.421  13.466  0.00  0.00    +0.000 C 
BRANCH  16  17
ATOM     17  O   UNL     1      46.710   4.579  14.379  0.00  0.00    +0.000 OA
BRANCH  17  21
ATOM     18  C   UNL     1      48.348   4.640  18.158  0.00  0.00    +0.000 A 
ATOM     19  C   UNL     1      48.785   5.563  17.206  0.00  0.00    +0.000 A 
ATOM     20  C   UNL     1      48.225   5.534  15.922  0.00  0.00    +0.000 A 
ATOM     21  C   UNL     1      47.247   4.587  15.650  0.00  0.00    +0.000 A 
ATOM     22  N   UNL     1      46.809   3.683  16.553  0.00  0.00    +0.000 NA
ATOM     23  C   UNL     1      47.379   3.722  17.782  0.00  0.00    +0.000 A 
BRANCH  18  25
ATOM     24  N   UNL     1      48.510   3.499  20.300  0.00  0.00    +0.000 N 
ATOM     25  C   UNL     1      48.874   4.571  19.536  0.00  0.00    +0.000 C 
ATOM     26  O   UNL     1      49.644   5.420  19.965  0.00  0.00    +0.000 OA
ATOM     27  H   UNL     1      48.978   3.412  21.193  0.00  0.00    +0.000 HD
ATOM     28  H   UNL     1      48.106   2.662  19.904  0.00  0.00    +0.000 HD
ENDBRANCH  18  25
ENDBRANCH  17  21
ENDBRANCH  16  17
ENDBRANCH   1  16
TORSDOF 7
ENDMDL
MODEL 8
REMARK VINA RESULT:    -6.898      2.845      7.969
REMARK INTER + INTRA:         -10.555
REMARK INTER:                  -9.865
REMARK INTRA:                  -0.690
REMARK UNBOUND:                -0.834
REMARK  Name = 
REMARK  7 active torsions:
REMARK  status: ('A' for Active; 'I' for Inactive)
REMARK    1  A    between atoms: C_2  and  C_4
REMARK    2  A    between atoms: C_7  and  O_8
REMARK    3  A    between atoms: O_8  and  C_9
REMARK    4  A    between atoms: C_9  and  C_10
REMARK    5  A    between atoms: C_10  and  C_13
REMARK    6  A    between atoms: C_17  and  N_18
REMARK    7  A    between atoms: N_18  and  C_19
REMARK                            x       y       z     vdW  Elec       q    Type
REMARK                         _______ _______ _______ _____ _____    ______ ____
ROOT
ATOM      1  C   UNL     1      46.754   4.818  13.912  0.00  0.00    +0.000 C 
ATOM      2  F   UNL     1      46.942   6.148  14.170  0.00  0.00    +0.000 F 
ATOM      3  F   UNL     1      47.877   4.421  13.238  0.00  0.00    +0.000 F 
ENDROOT
BRANCH   1   4
ATOM      4  C   UNL     1      45.498   4.586  13.090  0.00  0.00    +0.000 A 
ATOM      5  C   UNL     1      44.376   5.412  13.253  0.00  0.00    +0.000 A 
ATOM      6  C   UNL     1      43.227   5.196  12.493  0.00  0.00    +0.000 A 
ATOM      7  C   UNL     1      43.176   4.147  11.572  0.00  0.00    +0.000 A 
ATOM      8  C   UNL     1      44.273   3.303  11.396  0.00  0.00    +0.000 A 
ATOM      9  C   UNL     1      45.433   3.541  12.151  0.00  0.00    +0.000 A 
BRANCH   8  10
ATOM     10  N   UNL     1      44.291   2.250  10.454  0.00  0.00    +0.000 N 
ATOM     11  H   UNL     1      44.865   1.485  10.811  0.00  0.00    +0.000 HD
BRANCH  10  12
ATOM     12  C   UNL     1      44.396   2.415   9.023  0.00  0.00    +0.000 C 
ATOM     13  C   UNL     1      45.752   1.954   8.466  0.00  0.00    +0.000 C 
ATOM     14  O   UNL     1      45.994   3.249   7.863  0.00  0.00    +0.000 OA
ATOM     15  C   UNL     1      44.826   3.796   8.523  0.00  0.00    +0.000 C 
ENDBRANCH  10  12
ENDBRANCH   8  10
ENDBRANCH   1   4
BRANCH   1  16
ATOM     16  C   UNL     1      46.695   4.068  15.251  0.00  0.00    +0.000 C 
BRANCH  16  17
ATOM     17  O   UNL     1      47.518   4.723  16.239  0.00  0.00    +0.000 OA
BRANCH  17  21
ATOM     18  C   UNL     1      50.804   2.497  17.342  0.00  0.00    +0.000 A 
ATOM     19  C   UNL     1      50.742   3.847  17.689  0.00  0.00    +0.000 A 
ATOM     20  C   UNL     1      49.623   4.599  17.308  0.00  0.00    +0.000 A 
ATOM     21  C   UNL     1      48.610   3.963  16.602  0.00  0.00    +0.000 A 
ATOM     22  N   UNL     1      48.646   2.659  16.254  0.00  0.00    +0.000 NA
ATOM     23  C   UNL     1      49.748   1.959  16.620  0.00  0.00    +0.000 A 
BRANCH  18  25
ATOM     24  N   UNL     1      51.647   0.346  18.101  0.00  0.00    +0.000 N 
ATOM     25  C   UNL     1      51.936   1.613  17.681  0.00  0.00    +0.000 C 
ATOM     26  O   UNL     1      53.095   1.986  17.548  0.00  0.00    +0.000 OA
ATOM     27  H   UNL     1      52.438  -0.276  18.210  0.00  0.00    +0.000 HD
ATOM     28  H   UNL     1      50.739  -0.076  17.969  0.00  0.00    +0.000 HD
ENDBRANCH  18  25
ENDBRANCH  17  21
ENDBRANCH  16  17
ENDBRANCH   1  16
TORSDOF 7
ENDMDL
MODEL 9
REMARK VINA RESULT:    -6.579      3.886      6.573
REMARK INTER + INTRA:         -10.106
REMARK INTER:                  -9.686
REMARK INTRA:                  -0.420
REMARK UNBOUND:                -0.834
REMARK  Name = 
REMARK  7 active torsions:
REMARK  status: ('A' for Active; 'I' for Inactive)
REMARK    1  A    between atoms: C_2  and  C_4
REMARK    2  A    between atoms: C_7  and  O_8
REMARK    3  A    between atoms: O_8  and  C_9
REMARK    4  A    between atoms: C_9  and  C_10
REMARK    5  A    between atoms: C_10  and  C_13
REMARK    6  A    between atoms: C_17  and  N_18
REMARK    7  A    between atoms: N_18  and  C_19
REMARK                            x       y       z     vdW  Elec       q    Type
REMARK                         _______ _______ _______ _____ _____    ______ ____
ROOT
ATOM      1  C   UNL     1      48.053   2.936  16.891  0.00  0.00    +0.000 C 
ATOM      2  F   UNL     1      46.997   2.427  17.595  0.00  0.00    +0.000 F 
ATOM      3  F   UNL     1      48.624   1.858  16.270  0.00  0.00    +0.000 F 
ENDROOT
BRANCH   1   4
ATOM      4  C   UNL     1      49.041   3.639  17.808  0.00  0.00    +0.000 A 
ATOM      5  C   UNL     1      48.628   4.140  19.050  0.00  0.00    +0.000 A 
ATOM      6  C   UNL     1      49.540   4.782  19.889  0.00  0.00    +0.000 A 
ATOM      7  C   UNL     1      50.870   4.945  19.492  0.00  0.00    +0.000 A 
ATOM      8  C   UNL     1      51.306   4.465  18.257  0.00  0.00    +0.000 A 
ATOM      9  C   UNL     1      50.386   3.803  17.429  0.00  0.00    +0.000 A 
BRANCH   8  10
ATOM     10  N   UNL     1      52.646   4.569  17.820  0.00  0.00    +0.000 N 
ATOM     11  H   UNL     1      52.663   4.881  16.848  0.00  0.00    +0.000 HD
BRANCH  10  12
ATOM     12  C   UNL     1      53.698   3.630  18.131  0.00  0.00    +0.000 C 
ATOM     13  C   UNL     1      53.315   2.177  17.811  0.00  0.00    +0.000 C 
ATOM     14  O   UNL     1      53.588   1.759  19.170  0.00  0.00    +0.000 OA
ATOM     15  C   UNL     1      53.770   3.137  19.579  0.00  0.00    +0.000 C 
ENDBRANCH  10  12
ENDBRANCH   8  10
ENDBRANCH   1   4
BRANCH   1  16
ATOM     16  C   UNL     1      47.507   3.889  15.818  0.00  0.00    +0.000 C 
BRANCH  16  17
ATOM     17  O   UNL     1      47.514   3.254  14.522  0.00  0.00    +0.000 OA
BRANCH  17  21
ATOM     18  C   UNL     1      44.757   4.945  11.971  0.00  0.00    +0.000 A 
ATOM     19  C   UNL     1      45.572   5.772  12.746  0.00  0.00    +0.000 A 
ATOM     20  C   UNL     1      46.505   5.189  13.613  0.00  0.00    +0.000 A 
ATOM     21  C   UNL     1      46.587   3.804  13.661  0.00  0.00    +0.000 A 
ATOM     22  N   UNL     1      45.809   2.983  12.923  0.00  0.00    +0.000 NA
ATOM     23  C   UNL     1      44.903   3.572  12.105  0.00  0.00    +0.000 A 
BRANCH  18  25
ATOM     24  N   UNL     1      43.157   6.654  11.312  0.00  0.00    +0.000 N 
ATOM     25  C   UNL     1      43.733   5.447  11.034  0.00  0.00    +0.000 C 
ATOM     26  O   UNL     1      43.442   4.826  10.020  0.00  0.00    +0.000 OA
ATOM     27  H   UNL     1      42.551   7.031  10.594  0.00  0.00    +0.000 HD
ATOM     28  H   UNL     1      43.553   7.305  11.975  0.00  0.00    +0.000 HD
ENDBRANCH  18  25
ENDBRANCH  17  21
ENDBRANCH  16  17
ENDBRANCH   1  16
TORSDOF 7
ENDMDL
