MODEL 1
REMARK VINA RESULT:    -7.963      0.000      0.000
REMARK INTER + INTRA:         -12.339
REMARK INTER:                 -11.221
REMARK INTRA:                  -1.118
REMARK UNBOUND:                -1.118
REMARK  Name = 
REMARK  8 active torsions:
REMARK  status: ('A' for Active; 'I' for Inactive)
REMARK    1  A    between atoms: C_1  and  O_2
REMARK    2  A    between atoms: O_2  and  C_3
REMARK    3  A    between atoms: C_7  and  N_8
REMARK    4  A    between atoms: N_8  and  C_9
REMARK    5  A    between atoms: C_9  and  C_10
REMARK    6  A    between atoms: C_13  and  C_14
REMARK    7  A    between atoms: C_14  and  N_15
REMARK    8  A    between atoms: C_16  and  C_18
REMARK                            x       y       z     vdW  Elec       q    Type
REMARK                         _______ _______ _______ _____ _____    ______ ____
ROOT
ATOM      1  C   UNL     1      44.755   5.198  11.886  0.00  0.00    +0.000 A 
ATOM      2  C   UNL     1      45.367   4.404  12.856  0.00  0.00    +0.000 A 
ATOM      3  C   UNL     1      46.509   4.865  13.513  0.00  0.00    +0.000 A 
ATOM      4  C   UNL     1      47.015   6.118  13.176  0.00  0.00    +0.000 A 
ATOM      5  N   UNL     1      46.417   6.922  12.260  0.00  0.00    +0.000 NA
ATOM      6  C   UNL     1      45.306   6.451  11.648  0.00  0.00    +0.000 A 
ENDROOT
BRANCH   1   7
ATOM      7  C   UNL     1      43.535   4.730  11.138  0.00  0.00    +0.000 C 
BRANCH   7   8
ATOM      8  N   UNL     1      43.774   4.811   9.714  0.00  0.00    +0.000 N 
ATOM      9  H   UNL     1      44.057   5.730   9.378  0.00  0.00    +0.000 HD
BRANCH   8  14
ATOM     10  C   UNL     1      46.083   3.501   7.369  0.00  0.00    +0.000 A 
ATOM     11  C   UNL     1      46.210   2.159   7.681  0.00  0.00    +0.000 A 
ATOM     12  C   UNL     1      45.502   1.679   8.773  0.00  0.00    +0.000 A 
ATOM     13  C   UNL     1      44.690   2.554   9.493  0.00  0.00    +0.000 A 
ATOM     14  C   UNL     1      44.614   3.891   9.112  0.00  0.00    +0.000 A 
ATOM     15  N   UNL     1      45.309   4.366   8.062  0.00  0.00    +0.000 NA
BRANCH  10  17
ATOM     16  C   UNL     1      47.174   2.891   5.398  0.00  0.00    +0.000 C 
ATOM     17  O   UNL     1      46.804   3.946   6.278  0.00  0.00    +0.000 OA
ENDBRANCH  10  17
ENDBRANCH   8  14
ENDBRANCH   7   8
ENDBRANCH   1   7
BRANCH   4  18
ATOM     18  C   UNL     1      48.266   6.636  13.843  0.00  0.00    +0.000 C 
BRANCH  18  19
ATOM     19  N   UNL     1      48.189   6.572  15.283  0.00  0.00    +0.000 N 
ATOM     20  C   UNL     1      48.866   7.443  16.100  0.00  0.00    +0.000 C 
ATOM     21  O   UNL     1      49.573   8.336  15.648  0.00  0.00    +0.000 OA
ATOM     22  H   UNL     1      47.785   5.723  15.666  0.00  0.00    +0.000 HD
BRANCH  20  23
ATOM     23  C   UNL     1      48.626   7.303  17.544  0.00  0.00    +0.000 A 
ATOM     24  C   UNL     1      48.177   8.400  18.268  0.00  0.00    +0.000 A 
ATOM     25  S   UNL     1      47.906   8.071  19.919  0.00  0.00    +0.000 S 
ATOM     26  C   UNL     1      48.419   6.459  19.736  0.00  0.00    +0.000 A 
ATOM     27  N   UNL     1      48.455   5.614  20.801  0.00  0.00    +0.000 NA
ATOM     28  C   UNL     1      48.894   4.430  20.530  0.00  0.00    +0.000 A 
ATOM     29  N   UNL     1      49.292   4.014  19.285  0.00  0.00    +0.000 N 
ATOM     30  C   UNL     1      49.222   4.815  18.172  0.00  0.00    +0.000 A 
ATOM     31  O   UNL     1      49.502   4.383  17.060  0.00  0.00    +0.000 OA
ATOM     32  C   UNL     1      48.770   6.170  18.428  0.00  0.00    +0.000 A 
ATOM     33  H   UNL     1      49.606   3.067  19.132  0.00  0.00    +0.000 HD
ENDBRANCH  20  23
ENDBRANCH  18  19
ENDBRANCH   4  18
TORSDOF 7
ENDMDL
MODEL 2
REMARK VINA RESULT:    -7.708      1.899      2.138
REMARK INTER + INTRA:         -11.980
REMARK INTER:                 -10.807
REMARK INTRA:                  -1.174
REMARK UNBOUND:                -1.118
REMARK  Name = 
REMARK  8 active torsions:
REMARK  status: ('A' for Active; 'I' for Inactive)
REMARK    1  A    between atoms: C_1  and  O_2
REMARK    2  A    between atoms: O_2  and  C_3
REMARK    3  A    between atoms: C_7  and  N_8
REMARK    4  A    between atoms: N_8  and  C_9
REMARK    5  A    between atoms: C_9  and  C_10
REMARK    6  A    between atoms: C_13  and  C_14
REMARK    7  A    between atoms: C_14  and  N_15
REMARK    8  A    between atoms: C_16  and  C_18
REMARK                            x       y       z     vdW  Elec       q    Type
REMARK                         _______ _______ _______ _____ _____    ______ ____
ROOT
ATOM      1  C   UNL     1      44.479   5.597  11.664  0.00  0.00    +0.000 A 
ATOM      2  C   UNL     1      44.400   6.989  11.593  0.00  0.00    +0.000 A 
ATOM      3  C   UNL     1      45.364   7.773  12.227  0.00  0.00    +0.000 A 
ATOM      4  C   UNL     1      46.389   7.139  12.926  0.00  0.00    +0.000 A 
ATOM      5  N   UNL     1      46.504   5.788  12.981  0.00  0.00    +0.000 NA
ATOM      6  C   UNL     1      45.560   5.055  12.347  0.00  0.00    +0.000 A 
ENDROOT
BRANCH   1   7
ATOM      7  C   UNL     1      43.447   4.714  11.013  0.00  0.00    +0.000 C 
BRANCH   7   8
ATOM      8  N   UNL     1      43.647   4.705   9.580  0.00  0.00    +0.000 N 
ATOM      9  H   UNL     1      43.837   5.616   9.168  0.00  0.00    +0.000 HD
BRANCH   8  14
ATOM     10  C   UNL     1      46.092   3.470   7.336  0.00  0.00    +0.000 A 
ATOM     11  C   UNL     1      46.288   2.147   7.688  0.00  0.00    +0.000 A 
ATOM     12  C   UNL     1      45.578   1.655   8.774  0.00  0.00    +0.000 A 
ATOM     13  C   UNL     1      44.696   2.500   9.447  0.00  0.00    +0.000 A 
ATOM     14  C   UNL     1      44.555   3.819   9.027  0.00  0.00    +0.000 A 
ATOM     15  N   UNL     1      45.251   4.306   7.984  0.00  0.00    +0.000 NA
BRANCH  10  17
ATOM     16  C   UNL     1      47.099   2.901   5.308  0.00  0.00    +0.000 C 
ATOM     17  O   UNL     1      46.818   3.928   6.252  0.00  0.00    +0.000 OA
ENDBRANCH  10  17
ENDBRANCH   8  14
ENDBRANCH   7   8
ENDBRANCH   1   7
BRANCH   4  18
ATOM     18  C   UNL     1      47.431   7.955  13.651  0.00  0.00    +0.000 C 
BRANCH  18  19
ATOM     19  N   UNL     1      48.334   7.134  14.423  0.00  0.00    +0.000 N 
ATOM     20  C   UNL     1      48.894   7.557  15.603  0.00  0.00    +0.000 C 
ATOM     21  O   UNL     1      48.648   8.661  16.075  0.00  0.00    +0.000 OA
ATOM     22  H   UNL     1      48.705   6.318  13.946  0.00  0.00    +0.000 HD
BRANCH  20  23
ATOM     23  C   UNL     1      49.731   6.580  16.315  0.00  0.00    +0.000 A 
ATOM     24  C   UNL     1      51.027   6.928  16.673  0.00  0.00    +0.000 A 
ATOM     25  S   UNL     1      51.856   5.707  17.527  0.00  0.00    +0.000 S 
ATOM     26  C   UNL     1      50.526   4.652  17.413  0.00  0.00    +0.000 A 
ATOM     27  N   UNL     1      50.587   3.396  17.933  0.00  0.00    +0.000 NA
ATOM     28  C   UNL     1      49.522   2.689  17.749  0.00  0.00    +0.000 A 
ATOM     29  N   UNL     1      48.397   3.130  17.098  0.00  0.00    +0.000 N 
ATOM     30  C   UNL     1      48.272   4.406  16.605  0.00  0.00    +0.000 A 
ATOM     31  O   UNL     1      47.221   4.794  16.109  0.00  0.00    +0.000 OA
ATOM     32  C   UNL     1      49.456   5.232  16.753  0.00  0.00    +0.000 A 
ATOM     33  H   UNL     1      47.587   2.536  17.006  0.00  0.00    +0.000 HD
ENDBRANCH  20  23
ENDBRANCH  18  19
ENDBRANCH   4  18
TORSDOF 7
ENDMDL
MODEL 3
REMARK VINA RESULT:    -7.372      1.751      2.078
REMARK INTER + INTRA:         -11.506
REMARK INTER:                 -10.535
REMARK INTRA:                  -0.971
REMARK UNBOUND:                -1.118
REMARK  Name = 
REMARK  8 active torsions:
REMARK  status: ('A' for Active; 'I' for Inactive)
REMARK    1  A    between atoms: C_1  and  O_2
REMARK    2  A    between atoms: O_2  and  C_3
REMARK    3  A    between atoms: C_7  and  N_8
REMARK    4  A    between atoms: N_8  and  C_9
REMARK    5  A    between atoms: C_9  and  C_10
REMARK    6  A    between atoms: C_13  and  C_14
REMARK    7  A    between atoms: C_14  and  N_15
REMARK    8  A    between atoms: C_16  and  C_18
REMARK                            x       y       z     vdW  Elec       q    Type
REMARK                         _______ _______ _______ _____ _____    ______ ____
ROOT
ATOM      1  C   UNL     1      44.571   5.489  11.909  0.00  0.00    +0.000 A 
ATOM      2  C   UNL     1      45.361   4.736  12.778  0.00  0.00    +0.000 A 
ATOM      3  C   UNL     1      46.423   5.340  13.452  0.00  0.00    +0.000 A 
ATOM      4  C   UNL     1      46.672   6.694  13.234  0.00  0.00    +0.000 A 
ATOM      5  N   UNL     1      45.895   7.453  12.420  0.00  0.00    +0.000 NA
ATOM      6  C   UNL     1      44.867   6.841  11.788  0.00  0.00    +0.000 A 
ENDROOT
BRANCH   1   7
ATOM      7  C   UNL     1      43.429   4.871  11.145  0.00  0.00    +0.000 C 
BRANCH   7   8
ATOM      8  N   UNL     1      43.709   4.918   9.727  0.00  0.00    +0.000 N 
ATOM      9  H   UNL     1      44.021   5.824   9.382  0.00  0.00    +0.000 HD
BRANCH   8  14
ATOM     10  C   UNL     1      46.045   3.509   7.468  0.00  0.00    +0.000 A 
ATOM     11  C   UNL     1      46.137   2.173   7.814  0.00  0.00    +0.000 A 
ATOM     12  C   UNL     1      45.395   1.732   8.899  0.00  0.00    +0.000 A 
ATOM     13  C   UNL     1      44.583   2.639   9.580  0.00  0.00    +0.000 A 
ATOM     14  C   UNL     1      44.543   3.968   9.166  0.00  0.00    +0.000 A 
ATOM     15  N   UNL     1      45.272   4.405   8.123  0.00  0.00    +0.000 NA
BRANCH  10  17
ATOM     16  C   UNL     1      47.014   2.869   5.443  0.00  0.00    +0.000 C 
ATOM     17  O   UNL     1      46.800   3.914   6.385  0.00  0.00    +0.000 OA
ENDBRANCH  10  17
ENDBRANCH   8  14
ENDBRANCH   7   8
ENDBRANCH   1   7
BRANCH   4  18
ATOM     18  C   UNL     1      47.830   7.373  13.921  0.00  0.00    +0.000 C 
BRANCH  18  19
ATOM     19  N   UNL     1      48.389   6.569  14.982  0.00  0.00    +0.000 N 
ATOM     20  C   UNL     1      49.088   7.111  16.032  0.00  0.00    +0.000 C 
ATOM     21  O   UNL     1      49.268   8.319  16.133  0.00  0.00    +0.000 OA
ATOM     22  H   UNL     1      48.431   5.571  14.804  0.00  0.00    +0.000 HD
BRANCH  20  23
ATOM     23  C   UNL     1      49.528   6.174  17.076  0.00  0.00    +0.000 A 
ATOM     24  C   UNL     1      48.585   5.604  17.920  0.00  0.00    +0.000 A 
ATOM     25  S   UNL     1      49.243   4.508  19.049  0.00  0.00    +0.000 S 
ATOM     26  C   UNL     1      50.821   4.787  18.478  0.00  0.00    +0.000 A 
ATOM     27  N   UNL     1      51.888   4.163  19.046  0.00  0.00    +0.000 NA
ATOM     28  C   UNL     1      53.030   4.488  18.538  0.00  0.00    +0.000 A 
ATOM     29  N   UNL     1      53.199   5.377  17.506  0.00  0.00    +0.000 N 
ATOM     30  C   UNL     1      52.148   5.989  16.869  0.00  0.00    +0.000 A 
ATOM     31  O   UNL     1      52.330   6.708  15.893  0.00  0.00    +0.000 OA
ATOM     32  C   UNL     1      50.842   5.686  17.424  0.00  0.00    +0.000 A 
ATOM     33  H   UNL     1      54.118   5.574  17.138  0.00  0.00    +0.000 HD
ENDBRANCH  20  23
ENDBRANCH  18  19
ENDBRANCH   4  18
TORSDOF 7
ENDMDL
MODEL 4
REMARK VINA RESULT:    -7.322      4.808      9.950
REMARK INTER + INTRA:         -11.436
REMARK INTER:                 -10.600
REMARK INTRA:                  -0.836
REMARK UNBOUND:                -1.118
REMARK  Name = 
REMARK  8 active torsions:
REMARK  status: ('A' for Active; 'I' for Inactive)
REMARK    1  A    between atoms: C_1  and  O_2
REMARK    2  A    between atoms: O_2  and  C_3
REMARK    3  A    between atoms: C_7  and  N_8
REMARK    4  A    between atoms: N_8  and  C_9
REMARK    5  A    between atoms: C_9  and  C_10
REMARK    6  A    between atoms: C_13  and  C_14
REMARK    7  A    between atoms: C_14  and  N_15
REMARK    8  A    between atoms: C_16  and  C_18
REMARK                            x       y       z     vdW  Elec       q    Type
REMARK                         _______ _______ _______ _____ _____    ______ ____
ROOT
ATOM      1  C   UNL     1      51.323   3.181  17.698  0.00  0.00    +0.000 A 
ATOM      2  C   UNL     1      50.675   2.078  17.140  0.00  0.00    +0.000 A 
ATOM      3  C   UNL     1      49.310   2.141  16.862  0.00  0.00    +0.000 A 
ATOM      4  C   UNL     1      48.620   3.315  17.157  0.00  0.00    +0.000 A 
ATOM      5  N   UNL     1      49.236   4.411  17.668  0.00  0.00    +0.000 NA
ATOM      6  C   UNL     1      50.563   4.322  17.917  0.00  0.00    +0.000 A 
ENDROOT
BRANCH   1   7
ATOM      7  C   UNL     1      52.791   3.146  18.034  0.00  0.00    +0.000 C 
BRANCH   7   8
ATOM      8  N   UNL     1      53.095   1.940  18.772  0.00  0.00    +0.000 N 
ATOM      9  H   UNL     1      52.297   1.507  19.233  0.00  0.00    +0.000 HD
BRANCH   8  14
ATOM     10  C   UNL     1      54.471  -1.286  18.278  0.00  0.00    +0.000 A 
ATOM     11  C   UNL     1      55.273  -1.181  17.156  0.00  0.00    +0.000 A 
ATOM     12  C   UNL     1      55.321   0.044  16.507  0.00  0.00    +0.000 A 
ATOM     13  C   UNL     1      54.579   1.110  17.014  0.00  0.00    +0.000 A 
ATOM     14  C   UNL     1      53.798   0.923  18.152  0.00  0.00    +0.000 A 
ATOM     15  N   UNL     1      53.737  -0.267  18.777  0.00  0.00    +0.000 NA
BRANCH  10  17
ATOM     16  C   UNL     1      53.248  -2.735  19.639  0.00  0.00    +0.000 C 
ATOM     17  O   UNL     1      54.444  -2.521  18.898  0.00  0.00    +0.000 OA
ENDBRANCH  10  17
ENDBRANCH   8  14
ENDBRANCH   7   8
ENDBRANCH   1   7
BRANCH   4  18
ATOM     18  C   UNL     1      47.136   3.409  16.899  0.00  0.00    +0.000 C 
BRANCH  18  19
ATOM     19  N   UNL     1      46.814   4.389  15.890  0.00  0.00    +0.000 N 
ATOM     20  C   UNL     1      46.849   4.108  14.546  0.00  0.00    +0.000 C 
ATOM     21  O   UNL     1      47.150   2.997  14.127  0.00  0.00    +0.000 OA
ATOM     22  H   UNL     1      46.770   5.352  16.208  0.00  0.00    +0.000 HD
BRANCH  20  23
ATOM     23  C   UNL     1      46.418   5.185  13.643  0.00  0.00    +0.000 A 
ATOM     24  C   UNL     1      47.284   6.238  13.378  0.00  0.00    +0.000 A 
ATOM     25  S   UNL     1      46.658   7.385  12.282  0.00  0.00    +0.000 S 
ATOM     26  C   UNL     1      45.189   6.537  12.153  0.00  0.00    +0.000 A 
ATOM     27  N   UNL     1      44.179   7.007  11.371  0.00  0.00    +0.000 NA
ATOM     28  C   UNL     1      43.109   6.286  11.389  0.00  0.00    +0.000 A 
ATOM     29  N   UNL     1      42.960   5.130  12.113  0.00  0.00    +0.000 N 
ATOM     30  C   UNL     1      43.970   4.590  12.873  0.00  0.00    +0.000 A 
ATOM     31  O   UNL     1      43.832   3.511  13.436  0.00  0.00    +0.000 OA
ATOM     32  C   UNL     1      45.185   5.383  12.918  0.00  0.00    +0.000 A 
ATOM     33  H   UNL     1      42.105   4.597  12.068  0.00  0.00    +0.000 HD
ENDBRANCH  20  23
ENDBRANCH  18  19
ENDBRANCH   4  18
TORSDOF 7
ENDMDL
MODEL 5
REMARK VINA RESULT:    -7.205      1.908      3.118
REMARK INTER + INTRA:         -11.271
REMARK INTER:                 -10.187
REMARK INTRA:                  -1.085
REMARK UNBOUND:                -1.118
REMARK  Name = 
REMARK  8 active torsions:
REMARK  status: ('A' for Active; 'I' for Inactive)
REMARK    1  A    between atoms: C_1  and  O_2
REMARK    2  A    between atoms: O_2  and  C_3
REMARK    3  A    between atoms: C_7  and  N_8
REMARK    4  A    between atoms: N_8  and  C_9
REMARK    5  A    between atoms: C_9  and  C_10
REMARK    6  A    between atoms: C_13  and  C_14
REMARK    7  A    between atoms: C_14  and  N_15
REMARK    8  A    between atoms: C_16  and  C_18
REMARK                            x       y       z     vdW  Elec       q    Type
REMARK                         _______ _______ _______ _____ _____    ______ ____
ROOT
ATOM      1  C   UNL     1      45.874   5.532  11.927  0.00  0.00    +0.000 A 
ATOM      2  C   UNL     1      45.215   4.523  12.630  0.00  0.00    +0.000 A 
ATOM      3  C   UNL     1      45.714   4.090  13.859  0.00  0.00    +0.000 A 
ATOM      4  C   UNL     1      46.874   4.681  14.356  0.00  0.00    +0.000 A 
ATOM      5  N   UNL     1      47.513   5.688  13.706  0.00  0.00    +0.000 NA
ATOM      6  C   UNL     1      46.998   6.092  12.522  0.00  0.00    +0.000 A 
ENDROOT
BRANCH   1   7
ATOM      7  C   UNL     1      45.381   6.013  10.588  0.00  0.00    +0.000 C 
BRANCH   7   8
ATOM      8  N   UNL     1      44.677   4.944   9.914  0.00  0.00    +0.000 N 
ATOM      9  H   UNL     1      43.789   5.212   9.495  0.00  0.00    +0.000 HD
BRANCH   8  14
ATOM     10  C   UNL     1      45.873   2.030   8.294  0.00  0.00    +0.000 A 
ATOM     11  C   UNL     1      46.733   2.479   7.308  0.00  0.00    +0.000 A 
ATOM     12  C   UNL     1      46.888   3.849   7.158  0.00  0.00    +0.000 A 
ATOM     13  C   UNL     1      46.190   4.707   8.008  0.00  0.00    +0.000 A 
ATOM     14  C   UNL     1      45.345   4.175   8.977  0.00  0.00    +0.000 A 
ATOM     15  N   UNL     1      45.179   2.847   9.118  0.00  0.00    +0.000 NA
BRANCH  10  17
ATOM     16  C   UNL     1      46.700  -0.053   7.641  0.00  0.00    +0.000 C 
ATOM     17  O   UNL     1      45.739   0.660   8.413  0.00  0.00    +0.000 OA
ENDBRANCH  10  17
ENDBRANCH   8  14
ENDBRANCH   7   8
ENDBRANCH   1   7
BRANCH   4  18
ATOM     18  C   UNL     1      47.461   4.217  15.666  0.00  0.00    +0.000 C 
BRANCH  18  19
ATOM     19  N   UNL     1      47.597   5.292  16.619  0.00  0.00    +0.000 N 
ATOM     20  C   UNL     1      48.814   5.705  17.102  0.00  0.00    +0.000 C 
ATOM     21  O   UNL     1      49.862   5.185  16.740  0.00  0.00    +0.000 OA
ATOM     22  H   UNL     1      46.740   5.584  17.080  0.00  0.00    +0.000 HD
BRANCH  20  23
ATOM     23  C   UNL     1      48.798   6.864  18.008  0.00  0.00    +0.000 A 
ATOM     24  C   UNL     1      49.023   6.670  19.364  0.00  0.00    +0.000 A 
ATOM     25  S   UNL     1      49.014   8.111  20.276  0.00  0.00    +0.000 S 
ATOM     26  C   UNL     1      48.667   9.043  18.896  0.00  0.00    +0.000 A 
ATOM     27  N   UNL     1      48.501  10.391  18.989  0.00  0.00    +0.000 NA
ATOM     28  C   UNL     1      48.210  10.972  17.874  0.00  0.00    +0.000 A 
ATOM     29  N   UNL     1      48.077  10.326  16.670  0.00  0.00    +0.000 N 
ATOM     30  C   UNL     1      48.287   8.977  16.520  0.00  0.00    +0.000 A 
ATOM     31  O   UNL     1      48.248   8.448  15.415  0.00  0.00    +0.000 OA
ATOM     32  C   UNL     1      48.582   8.268  17.752  0.00  0.00    +0.000 A 
ATOM     33  H   UNL     1      47.869  10.840  15.827  0.00  0.00    +0.000 HD
ENDBRANCH  20  23
ENDBRANCH  18  19
ENDBRANCH   4  18
TORSDOF 7
ENDMDL
MODEL 6
REMARK VINA RESULT:    -7.118      3.250      4.371
REMARK INTER + INTRA:         -11.149
REMARK INTER:                 -10.232
REMARK INTRA:                  -0.917
REMARK UNBOUND:                -1.118
REMARK  Name = 
REMARK  8 active torsions:
REMARK  status: ('A' for Active; 'I' for Inactive)
REMARK    1  A    between atoms: C_1  and  O_2
REMARK    2  A    between atoms: O_2  and  C_3
REMARK    3  A    between atoms: C_7  and  N_8
REMARK    4  A    between atoms: N_8  and  C_9
REMARK    5  A    between atoms: C_9  and  C_10
REMARK    6  A    between atoms: C_13  and  C_14
REMARK    7  A    between atoms: C_14  and  N_15
REMARK    8  A    between atoms: C_16  and  C_18
REMARK                            x       y       z     vdW  Elec       q    Type
REMARK                         _______ _______ _______ _____ _____    ______ ____
ROOT
ATOM      1  C   UNL     1      47.236   5.868  13.470  0.00  0.00    +0.000 A 
ATOM      2  C   UNL     1      46.652   4.742  14.051  0.00  0.00    +0.000 A 
ATOM      3  C   UNL     1      47.045   4.333  15.325  0.00  0.00    +0.000 A 
ATOM      4  C   UNL     1      48.025   5.066  15.991  0.00  0.00    +0.000 A 
ATOM      5  N   UNL     1      48.583   6.183  15.459  0.00  0.00    +0.000 NA
ATOM      6  C   UNL     1      48.174   6.560  14.226  0.00  0.00    +0.000 A 
ENDROOT
BRANCH   1   7
ATOM      7  C   UNL     1      46.857   6.329  12.087  0.00  0.00    +0.000 C 
BRANCH   7   8
ATOM      8  N   UNL     1      45.480   5.979  11.816  0.00  0.00    +0.000 N 
ATOM      9  H   UNL     1      44.879   6.762  11.566  0.00  0.00    +0.000 HD
BRANCH   8  14
ATOM     10  C   UNL     1      45.384   4.242   8.731  0.00  0.00    +0.000 A 
ATOM     11  C   UNL     1      44.604   3.122   8.958  0.00  0.00    +0.000 A 
ATOM     12  C   UNL     1      44.114   2.924  10.240  0.00  0.00    +0.000 A 
ATOM     13  C   UNL     1      44.412   3.858  11.232  0.00  0.00    +0.000 A 
ATOM     14  C   UNL     1      45.202   4.961  10.921  0.00  0.00    +0.000 A 
ATOM     15  N   UNL     1      45.691   5.152   9.683  0.00  0.00    +0.000 NA
BRANCH  10  17
ATOM     16  C   UNL     1      46.836   3.434   7.091  0.00  0.00    +0.000 C 
ATOM     17  O   UNL     1      45.858   4.407   7.444  0.00  0.00    +0.000 OA
ENDBRANCH  10  17
ENDBRANCH   8  14
ENDBRANCH   7   8
ENDBRANCH   1   7
BRANCH   4  18
ATOM     18  C   UNL     1      48.498   4.635  17.357  0.00  0.00    +0.000 C 
BRANCH  18  19
ATOM     19  N   UNL     1      49.877   4.210  17.354  0.00  0.00    +0.000 N 
ATOM     20  C   UNL     1      50.711   4.392  18.429  0.00  0.00    +0.000 C 
ATOM     21  O   UNL     1      50.324   4.922  19.464  0.00  0.00    +0.000 OA
ATOM     22  H   UNL     1      50.262   3.967  16.446  0.00  0.00    +0.000 HD
BRANCH  20  23
ATOM     23  C   UNL     1      52.067   3.835  18.305  0.00  0.00    +0.000 A 
ATOM     24  C   UNL     1      53.160   4.626  18.636  0.00  0.00    +0.000 A 
ATOM     25  S   UNL     1      54.658   3.828  18.480  0.00  0.00    +0.000 S 
ATOM     26  C   UNL     1      53.904   2.408  17.925  0.00  0.00    +0.000 A 
ATOM     27  N   UNL     1      54.640   1.317  17.579  0.00  0.00    +0.000 NA
ATOM     28  C   UNL     1      53.945   0.320  17.143  0.00  0.00    +0.000 A 
ATOM     29  N   UNL     1      52.578   0.313  17.030  0.00  0.00    +0.000 N 
ATOM     30  C   UNL     1      51.792   1.370  17.418  0.00  0.00    +0.000 A 
ATOM     31  O   UNL     1      50.569   1.297  17.387  0.00  0.00    +0.000 OA
ATOM     32  C   UNL     1      52.525   2.533  17.881  0.00  0.00    +0.000 A 
ATOM     33  H   UNL     1      52.090  -0.507  16.703  0.00  0.00    +0.000 HD
ENDBRANCH  20  23
ENDBRANCH  18  19
ENDBRANCH   4  18
TORSDOF 7
ENDMDL
MODEL 7
REMARK VINA RESULT:    -7.115      4.856      9.778
REMARK INTER + INTRA:         -11.144
REMARK INTER:                 -10.142
REMARK INTRA:                  -1.003
REMARK UNBOUND:                -1.118
REMARK  Name = 
REMARK  8 active torsions:
REMARK  status: ('A' for Active; 'I' for Inactive)
REMARK    1  A    between atoms: C_1  and  O_2
REMARK    2  A    between atoms: O_2  and  C_3
REMARK    3  A    between atoms: C_7  and  N_8
REMARK    4  A    between atoms: N_8  and  C_9
REMARK    5  A    between atoms: C_9  and  C_10
REMARK    6  A    between atoms: C_13  and  C_14
REMARK    7  A    between atoms: C_14  and  N_15
REMARK    8  A    between atoms: C_16  and  C_18
REMARK                            x       y       z     vdW  Elec       q    Type
REMARK                         _______ _______ _______ _____ _____    ______ ____
ROOT
ATOM      1  C   UNL     1      50.633   2.335  17.471  0.00  0.00    +0.000 A 
ATOM      2  C   UNL     1      49.257   2.428  17.260  0.00  0.00    +0.000 A 
ATOM      3  C   UNL     1      48.673   3.673  17.020  0.00  0.00    +0.000 A 
ATOM      4  C   UNL     1      49.488   4.802  17.003  0.00  0.00    +0.000 A 
ATOM      5  N   UNL     1      50.833   4.731  17.173  0.00  0.00    +0.000 NA
ATOM      6  C   UNL     1      51.370   3.509  17.393  0.00  0.00    +0.000 A 
ENDROOT
BRANCH   1   7
ATOM      7  C   UNL     1      51.300   1.014  17.755  0.00  0.00    +0.000 C 
BRANCH   7   8
ATOM      8  N   UNL     1      52.606   1.241  18.334  0.00  0.00    +0.000 N 
ATOM      9  H   UNL     1      52.612   1.350  19.347  0.00  0.00    +0.000 HD
BRANCH   8  14
ATOM     10  C   UNL     1      54.840  -1.488  18.658  0.00  0.00    +0.000 A 
ATOM     11  C   UNL     1      55.771  -1.329  17.647  0.00  0.00    +0.000 A 
ATOM     12  C   UNL     1      55.610  -0.257  16.782  0.00  0.00    +0.000 A 
ATOM     13  C   UNL     1      54.539   0.615  16.974  0.00  0.00    +0.000 A 
ATOM     14  C   UNL     1      53.647   0.387  18.018  0.00  0.00    +0.000 A 
ATOM     15  N   UNL     1      53.789  -0.659  18.852  0.00  0.00    +0.000 NA
BRANCH  10  17
ATOM     16  C   UNL     1      54.415  -2.385  20.770  0.00  0.00    +0.000 C 
ATOM     17  O   UNL     1      55.028  -2.568  19.499  0.00  0.00    +0.000 OA
ENDBRANCH  10  17
ENDBRANCH   8  14
ENDBRANCH   7   8
ENDBRANCH   1   7
BRANCH   4  18
ATOM     18  C   UNL     1      48.887   6.168  16.779  0.00  0.00    +0.000 C 
BRANCH  18  19
ATOM     19  N   UNL     1      47.890   6.166  15.736  0.00  0.00    +0.000 N 
ATOM     20  C   UNL     1      48.193   6.423  14.421  0.00  0.00    +0.000 C 
ATOM     21  O   UNL     1      49.338   6.660  14.057  0.00  0.00    +0.000 OA
ATOM     22  H   UNL     1      46.924   6.182  16.048  0.00  0.00    +0.000 HD
BRANCH  20  23
ATOM     23  C   UNL     1      47.084   6.307  13.462  0.00  0.00    +0.000 A 
ATOM     24  C   UNL     1      46.580   7.454  12.864  0.00  0.00    +0.000 A 
ATOM     25  S   UNL     1      45.327   7.155  11.747  0.00  0.00    +0.000 S 
ATOM     26  C   UNL     1      45.384   5.482  12.052  0.00  0.00    +0.000 A 
ATOM     27  N   UNL     1      44.531   4.629  11.423  0.00  0.00    +0.000 NA
ATOM     28  C   UNL     1      44.659   3.392  11.770  0.00  0.00    +0.000 A 
ATOM     29  N   UNL     1      45.571   2.930  12.685  0.00  0.00    +0.000 N 
ATOM     30  C   UNL     1      46.486   3.746  13.304  0.00  0.00    +0.000 A 
ATOM     31  O   UNL     1      47.345   3.287  14.048  0.00  0.00    +0.000 OA
ATOM     32  C   UNL     1      46.362   5.155  12.977  0.00  0.00    +0.000 A 
ATOM     33  H   UNL     1      45.637   1.946  12.898  0.00  0.00    +0.000 HD
ENDBRANCH  20  23
ENDBRANCH  18  19
ENDBRANCH   4  18
TORSDOF 7
ENDMDL
MODEL 8
REMARK VINA RESULT:    -7.012      1.867      2.238
REMARK INTER + INTRA:         -11.000
REMARK INTER:                 -10.071
REMARK INTRA:                  -0.929
REMARK UNBOUND:                -1.118
REMARK  Name = 
REMARK  8 active torsions:
REMARK  status: ('A' for Active; 'I' for Inactive)
REMARK    1  A    between atoms: C_1  and  O_2
REMARK    2  A    between atoms: O_2  and  C_3
REMARK    3  A    between atoms: C_7  and  N_8
REMARK    4  A    between atoms: N_8  and  C_9
REMARK    5  A    between atoms: C_9  and  C_10
REMARK    6  A    between atoms: C_13  and  C_14
REMARK    7  A    between atoms: C_14  and  N_15
REMARK    8  A    between atoms: C_16  and  C_18
REMARK                            x       y       z     vdW  Elec       q    Type
REMARK                         _______ _______ _______ _____ _____    ______ ____
ROOT
ATOM      1  C   UNL     1      46.316   5.754  12.196  0.00  0.00    +0.000 A 
ATOM      2  C   UNL     1      45.397   4.946  12.866  0.00  0.00    +0.000 A 
ATOM      3  C   UNL     1      45.735   4.378  14.094  0.00  0.00    +0.000 A 
ATOM      4  C   UNL     1      46.999   4.630  14.623  0.00  0.00    +0.000 A 
ATOM      5  N   UNL     1      47.897   5.439  14.006  0.00  0.00    +0.000 NA
ATOM      6  C   UNL     1      47.535   5.984  12.822  0.00  0.00    +0.000 A 
ENDROOT
BRANCH   1   7
ATOM      7  C   UNL     1      45.999   6.369  10.858  0.00  0.00    +0.000 C 
BRANCH   7   8
ATOM      8  N   UNL     1      44.920   5.640  10.229  0.00  0.00    +0.000 N 
ATOM      9  H   UNL     1      44.299   6.206   9.653  0.00  0.00    +0.000 HD
BRANCH   8  14
ATOM     10  C   UNL     1      46.030   3.650   7.518  0.00  0.00    +0.000 A 
ATOM     11  C   UNL     1      45.692   2.350   7.847  0.00  0.00    +0.000 A 
ATOM     12  C   UNL     1      45.087   2.130   9.076  0.00  0.00    +0.000 A 
ATOM     13  C   UNL     1      44.834   3.217   9.912  0.00  0.00    +0.000 A 
ATOM     14  C   UNL     1      45.203   4.496   9.505  0.00  0.00    +0.000 A 
ATOM     15  N   UNL     1      45.803   4.714   8.321  0.00  0.00    +0.000 NA
BRANCH  10  17
ATOM     16  C   UNL     1      47.224   2.639   5.785  0.00  0.00    +0.000 C 
ATOM     17  O   UNL     1      46.635   3.833   6.289  0.00  0.00    +0.000 OA
ENDBRANCH  10  17
ENDBRANCH   8  14
ENDBRANCH   7   8
ENDBRANCH   1   7
BRANCH   4  18
ATOM     18  C   UNL     1      47.411   4.006  15.933  0.00  0.00    +0.000 C 
BRANCH  18  19
ATOM     19  N   UNL     1      48.186   4.907  16.752  0.00  0.00    +0.000 N 
ATOM     20  C   UNL     1      47.739   5.379  17.962  0.00  0.00    +0.000 C 
ATOM     21  O   UNL     1      46.652   5.050  18.422  0.00  0.00    +0.000 OA
ATOM     22  H   UNL     1      48.979   5.347  16.296  0.00  0.00    +0.000 HD
BRANCH  20  23
ATOM     23  C   UNL     1      48.674   6.226  18.718  0.00  0.00    +0.000 A 
ATOM     24  C   UNL     1      48.258   7.478  19.152  0.00  0.00    +0.000 A 
ATOM     25  S   UNL     1      49.437   8.323  20.047  0.00  0.00    +0.000 S 
ATOM     26  C   UNL     1      50.563   7.063  19.853  0.00  0.00    +0.000 A 
ATOM     27  N   UNL     1      51.817   7.163  20.371  0.00  0.00    +0.000 NA
ATOM     28  C   UNL     1      52.580   6.151  20.123  0.00  0.00    +0.000 A 
ATOM     29  N   UNL     1      52.197   5.043  19.410  0.00  0.00    +0.000 N 
ATOM     30  C   UNL     1      50.927   4.876  18.915  0.00  0.00    +0.000 A 
ATOM     31  O   UNL     1      50.594   3.835  18.360  0.00  0.00    +0.000 OA
ATOM     32  C   UNL     1      50.038   6.002  19.134  0.00  0.00    +0.000 A 
ATOM     33  H   UNL     1      52.834   4.273  19.269  0.00  0.00    +0.000 HD
ENDBRANCH  20  23
ENDBRANCH  18  19
ENDBRANCH   4  18
TORSDOF 7
ENDMDL
MODEL 9
REMARK VINA RESULT:    -6.900      2.853      8.841
REMARK INTER + INTRA:         -10.842
REMARK INTER:                  -9.465
REMARK INTRA:                  -1.377
REMARK UNBOUND:                -1.118
REMARK  Name = 
REMARK  8 active torsions:
REMARK  status: ('A' for Active; 'I' for Inactive)
REMARK    1  A    between atoms: C_1  and  O_2
REMARK    2  A    between atoms: O_2  and  C_3
REMARK    3  A    between atoms: C_7  and  N_8
REMARK    4  A    between atoms: N_8  and  C_9
REMARK    5  A    between atoms: C_9  and  C_10
REMARK    6  A    between atoms: C_13  and  C_14
REMARK    7  A    between atoms: C_14  and  N_15
REMARK    8  A    between atoms: C_16  and  C_18
REMARK                            x       y       z     vdW  Elec       q    Type
REMARK                         _______ _______ _______ _____ _____    ______ ____
ROOT
ATOM      1  C   UNL     1      49.731   8.286  15.514  0.00  0.00    +0.000 A 
ATOM      2  C   UNL     1      50.415   7.778  14.409  0.00  0.00    +0.000 A 
ATOM      3  C   UNL     1      49.766   7.672  13.178  0.00  0.00    +0.000 A 
ATOM      4  C   UNL     1      48.436   8.076  13.086  0.00  0.00    +0.000 A 
ATOM      5  N   UNL     1      47.762   8.604  14.139  0.00  0.00    +0.000 NA
ATOM      6  C   UNL     1      48.422   8.704  15.316  0.00  0.00    +0.000 A 
ENDROOT
BRANCH   1   7
ATOM      7  C   UNL     1      50.388   8.397  16.865  0.00  0.00    +0.000 C 
BRANCH   7   8
ATOM      8  N   UNL     1      50.661   7.075  17.385  0.00  0.00    +0.000 N 
ATOM      9  H   UNL     1      51.258   7.053  18.210  0.00  0.00    +0.000 HD
BRANCH   8  14
ATOM     10  C   UNL     1      48.576   4.236  17.013  0.00  0.00    +0.000 A 
ATOM     11  C   UNL     1      47.503   4.448  17.860  0.00  0.00    +0.000 A 
ATOM     12  C   UNL     1      47.505   5.602  18.630  0.00  0.00    +0.000 A 
ATOM     13  C   UNL     1      48.568   6.497  18.509  0.00  0.00    +0.000 A 
ATOM     14  C   UNL     1      49.609   6.210  17.631  0.00  0.00    +0.000 A 
ATOM     15  N   UNL     1      49.620   5.086  16.892  0.00  0.00    +0.000 NA
BRANCH  10  17
ATOM     16  C   UNL     1      49.543   2.141  16.658  0.00  0.00    +0.000 C 
ATOM     17  O   UNL     1      48.544   3.075  16.264  0.00  0.00    +0.000 OA
ENDBRANCH  10  17
ENDBRANCH   8  14
ENDBRANCH   7   8
ENDBRANCH   1   7
BRANCH   4  18
ATOM     18  C   UNL     1      47.692   7.946  11.780  0.00  0.00    +0.000 C 
BRANCH  18  19
ATOM     19  N   UNL     1      46.959   6.706  11.685  0.00  0.00    +0.000 N 
ATOM     20  C   UNL     1      45.589   6.649  11.755  0.00  0.00    +0.000 C 
ATOM     21  O   UNL     1      44.906   7.657  11.893  0.00  0.00    +0.000 OA
ATOM     22  H   UNL     1      47.510   5.859  11.781  0.00  0.00    +0.000 HD
BRANCH  20  23
ATOM     23  C   UNL     1      44.981   5.324  11.563  0.00  0.00    +0.000 A 
ATOM     24  C   UNL     1      44.238   4.760  12.592  0.00  0.00    +0.000 A 
ATOM     25  S   UNL     1      43.564   3.243  12.204  0.00  0.00    +0.000 S 
ATOM     26  C   UNL     1      44.275   3.263  10.659  0.00  0.00    +0.000 A 
ATOM     27  N   UNL     1      44.110   2.220   9.802  0.00  0.00    +0.000 NA
ATOM     28  C   UNL     1      44.730   2.349   8.676  0.00  0.00    +0.000 A 
ATOM     29  N   UNL     1      45.494   3.435   8.328  0.00  0.00    +0.000 N 
ATOM     30  C   UNL     1      45.644   4.533   9.139  0.00  0.00    +0.000 A 
ATOM     31  O   UNL     1      46.260   5.522   8.760  0.00  0.00    +0.000 OA
ATOM     32  C   UNL     1      44.998   4.423  10.434  0.00  0.00    +0.000 A 
ATOM     33  H   UNL     1      45.936   3.487   7.422  0.00  0.00    +0.000 HD
ENDBRANCH  20  23
ENDBRANCH  18  19
ENDBRANCH   4  18
TORSDOF 7
ENDMDL
