MODEL 1
REMARK VINA RESULT:    -8.013      0.000      0.000
REMARK INTER + INTRA:         -13.121
REMARK INTER:                 -11.761
REMARK INTRA:                  -1.360
REMARK UNBOUND:                -1.360
REMARK  Name = 
REMARK  10 active torsions:
REMARK  status: ('A' for Active; 'I' for Inactive)
REMARK    1  A    between atoms: C_1  and  O_2
REMARK    2  A    between atoms: O_2  and  C_3
REMARK    3  A    between atoms: C_10  and  C_11
REMARK    4  A    between atoms: N_13  and  C_14
REMARK    5  A    between atoms: C_14  and  C_15
REMARK    6  A    between atoms: C_18  and  C_19
REMARK    7  A    between atoms: C_19  and  O_20
REMARK    8  A    between atoms: O_20  and  C_21
REMARK    9  A    between atoms: C_21  and  C_22
REMARK   10  A    between atoms: C_26  and  C_27
REMARK                            x       y       z     vdW  Elec       q    Type
REMARK                         _______ _______ _______ _____ _____    ______ ____
ROOT
ATOM      1  C   UNL     1      47.544   7.485  13.567  0.00  0.00    +0.000 C 
ENDROOT
BRANCH   1   2
ATOM      2  C   UNL     1      46.519   6.433  13.234  0.00  0.00    +0.000 A 
ATOM      3  C   UNL     1      46.834   5.071  13.321  0.00  0.00    +0.000 A 
ATOM      4  C   UNL     1      45.871   4.097  13.031  0.00  0.00    +0.000 A 
ATOM      5  C   UNL     1      44.571   4.462  12.663  0.00  0.00    +0.000 A 
ATOM      6  C   UNL     1      44.275   5.827  12.523  0.00  0.00    +0.000 A 
ATOM      7  C   UNL     1      45.239   6.802  12.803  0.00  0.00    +0.000 A 
BRANCH   5   8
ATOM      8  C   UNL     1      43.506   3.424  12.367  0.00  0.00    +0.000 C 
BRANCH   8   9
ATOM      9  O   UNL     1      43.198   3.261  10.973  0.00  0.00    +0.000 OA
BRANCH   9  10
ATOM     10  C   UNL     1      44.024   2.279  10.349  0.00  0.00    +0.000 C 
BRANCH  10  11
ATOM     11  C   UNL     1      44.953   2.832   9.303  0.00  0.00    +0.000 A 
ATOM     12  C   UNL     1      45.037   4.173   8.951  0.00  0.00    +0.000 A 
ATOM     13  N   UNL     1      45.856   4.653   7.986  0.00  0.00    +0.000 NA
ATOM     14  C   UNL     1      46.629   3.759   7.329  0.00  0.00    +0.000 A 
ATOM     15  C   UNL     1      46.628   2.395   7.590  0.00  0.00    +0.000 A 
ATOM     16  C   UNL     1      47.464   1.431   6.813  0.00  0.00    +0.000 C 
ATOM     17  C   UNL     1      45.775   1.939   8.597  0.00  0.00    +0.000 A 
ENDBRANCH  10  11
ENDBRANCH   9  10
ENDBRANCH   8   9
ENDBRANCH   5   8
ENDBRANCH   1   2
BRANCH   1  20
ATOM     18  C   UNL     1      49.152   7.207  15.392  0.00  0.00    +0.000 C 
ATOM     19  O   UNL     1      50.048   6.951  14.588  0.00  0.00    +0.000 OA
ATOM     20  N   UNL     1      47.880   7.473  14.969  0.00  0.00    +0.000 N 
ATOM     21  H   UNL     1      47.137   7.628  15.637  0.00  0.00    +0.000 HD
BRANCH  18  29
ATOM     22  C   UNL     1      49.094   4.844  17.904  0.00  0.00    +0.000 A 
ATOM     23  N   UNL     1      49.070   4.166  19.069  0.00  0.00    +0.000 NA
ATOM     24  C   UNL     1      49.326   4.837  20.196  0.00  0.00    +0.000 A 
ATOM     25  N   UNL     1      49.624   6.128  20.306  0.00  0.00    +0.000 NA
ATOM     26  C   UNL     1      49.628   6.769  19.126  0.00  0.00    +0.000 A 
ATOM     27  S   UNL     1      50.001   8.425  19.080  0.00  0.00    +0.000 S 
ATOM     28  C   UNL     1      49.782   8.476  17.398  0.00  0.00    +0.000 A 
ATOM     29  C   UNL     1      49.419   7.256  16.839  0.00  0.00    +0.000 A 
ATOM     30  C   UNL     1      49.359   6.225  17.873  0.00  0.00    +0.000 A 
BRANCH  22  32
ATOM     31  C   UNL     1      47.530   3.682  16.587  0.00  0.00    +0.000 C 
ATOM     32  O   UNL     1      48.872   4.144  16.733  0.00  0.00    +0.000 OA
ENDBRANCH  22  32
ENDBRANCH  18  29
ENDBRANCH   1  20
TORSDOF 8
ENDMDL
MODEL 2
REMARK VINA RESULT:    -7.481      1.776      3.142
REMARK INTER + INTRA:         -12.340
REMARK INTER:                 -10.970
REMARK INTRA:                  -1.369
REMARK UNBOUND:                -1.360
REMARK  Name = 
REMARK  10 active torsions:
REMARK  status: ('A' for Active; 'I' for Inactive)
REMARK    1  A    between atoms: C_1  and  O_2
REMARK    2  A    between atoms: O_2  and  C_3
REMARK    3  A    between atoms: C_10  and  C_11
REMARK    4  A    between atoms: N_13  and  C_14
REMARK    5  A    between atoms: C_14  and  C_15
REMARK    6  A    between atoms: C_18  and  C_19
REMARK    7  A    between atoms: C_19  and  O_20
REMARK    8  A    between atoms: O_20  and  C_21
REMARK    9  A    between atoms: C_21  and  C_22
REMARK   10  A    between atoms: C_26  and  C_27
REMARK                            x       y       z     vdW  Elec       q    Type
REMARK                         _______ _______ _______ _____ _____    ______ ____
ROOT
ATOM      1  C   UNL     1      47.583   3.984  15.044  0.00  0.00    +0.000 C 
ENDROOT
BRANCH   1   2
ATOM      2  C   UNL     1      46.610   4.260  13.929  0.00  0.00    +0.000 A 
ATOM      3  C   UNL     1      46.212   5.570  13.630  0.00  0.00    +0.000 A 
ATOM      4  C   UNL     1      45.325   5.823  12.578  0.00  0.00    +0.000 A 
ATOM      5  C   UNL     1      44.827   4.776  11.792  0.00  0.00    +0.000 A 
ATOM      6  C   UNL     1      45.183   3.462  12.130  0.00  0.00    +0.000 A 
ATOM      7  C   UNL     1      46.063   3.206  13.187  0.00  0.00    +0.000 A 
BRANCH   5   8
ATOM      8  C   UNL     1      43.883   5.030  10.634  0.00  0.00    +0.000 C 
BRANCH   8   9
ATOM      9  O   UNL     1      43.790   3.952   9.688  0.00  0.00    +0.000 OA
BRANCH   9  10
ATOM     10  C   UNL     1      44.530   4.216   8.496  0.00  0.00    +0.000 C 
BRANCH  10  11
ATOM     11  C   UNL     1      45.392   3.069   8.043  0.00  0.00    +0.000 A 
ATOM     12  C   UNL     1      45.487   1.847   8.695  0.00  0.00    +0.000 A 
ATOM     13  N   UNL     1      46.291   0.834   8.293  0.00  0.00    +0.000 NA
ATOM     14  C   UNL     1      47.046   1.043   7.191  0.00  0.00    +0.000 A 
ATOM     15  C   UNL     1      47.038   2.223   6.460  0.00  0.00    +0.000 A 
ATOM     16  C   UNL     1      47.919   2.434   5.271  0.00  0.00    +0.000 C 
ATOM     17  C   UNL     1      46.192   3.242   6.901  0.00  0.00    +0.000 A 
ENDBRANCH  10  11
ENDBRANCH   9  10
ENDBRANCH   8   9
ENDBRANCH   5   8
ENDBRANCH   1   2
BRANCH   1  20
ATOM     18  C   UNL     1      48.676   5.192  16.872  0.00  0.00    +0.000 C 
ATOM     19  O   UNL     1      49.563   4.340  16.929  0.00  0.00    +0.000 OA
ATOM     20  N   UNL     1      47.652   5.084  15.972  0.00  0.00    +0.000 N 
ATOM     21  H   UNL     1      46.898   5.758  15.969  0.00  0.00    +0.000 HD
BRANCH  18  29
ATOM     22  C   UNL     1      48.614   8.594  16.308  0.00  0.00    +0.000 A 
ATOM     23  N   UNL     1      48.682   9.939  16.380  0.00  0.00    +0.000 NA
ATOM     24  C   UNL     1      48.803  10.502  17.586  0.00  0.00    +0.000 A 
ATOM     25  N   UNL     1      48.848   9.877  18.758  0.00  0.00    +0.000 NA
ATOM     26  C   UNL     1      48.787   8.540  18.643  0.00  0.00    +0.000 A 
ATOM     27  S   UNL     1      48.822   7.582  20.045  0.00  0.00    +0.000 S 
ATOM     28  C   UNL     1      48.741   6.156  19.129  0.00  0.00    +0.000 A 
ATOM     29  C   UNL     1      48.693   6.369  17.756  0.00  0.00    +0.000 A 
ATOM     30  C   UNL     1      48.688   7.801  17.468  0.00  0.00    +0.000 A 
BRANCH  22  32
ATOM     31  C   UNL     1      49.672   7.776  14.374  0.00  0.00    +0.000 C 
ATOM     32  O   UNL     1      48.447   8.011  15.067  0.00  0.00    +0.000 OA
ENDBRANCH  22  32
ENDBRANCH  18  29
ENDBRANCH   1  20
TORSDOF 8
ENDMDL
MODEL 3
REMARK VINA RESULT:    -7.253      2.356      2.994
REMARK INTER + INTRA:         -12.005
REMARK INTER:                 -10.906
REMARK INTRA:                  -1.099
REMARK UNBOUND:                -1.360
REMARK  Name = 
REMARK  10 active torsions:
REMARK  status: ('A' for Active; 'I' for Inactive)
REMARK    1  A    between atoms: C_1  and  O_2
REMARK    2  A    between atoms: O_2  and  C_3
REMARK    3  A    between atoms: C_10  and  C_11
REMARK    4  A    between atoms: N_13  and  C_14
REMARK    5  A    between atoms: C_14  and  C_15
REMARK    6  A    between atoms: C_18  and  C_19
REMARK    7  A    between atoms: C_19  and  O_20
REMARK    8  A    between atoms: O_20  and  C_21
REMARK    9  A    between atoms: C_21  and  C_22
REMARK   10  A    between atoms: C_26  and  C_27
REMARK                            x       y       z     vdW  Elec       q    Type
REMARK                         _______ _______ _______ _____ _____    ______ ____
ROOT
ATOM      1  C   UNL     1      48.829   7.555  15.439  0.00  0.00    +0.000 C 
ENDROOT
BRANCH   1   2
ATOM      2  C   UNL     1      48.031   7.167  14.223  0.00  0.00    +0.000 A 
ATOM      3  C   UNL     1      47.518   5.870  14.084  0.00  0.00    +0.000 A 
ATOM      4  C   UNL     1      46.757   5.521  12.962  0.00  0.00    +0.000 A 
ATOM      5  C   UNL     1      46.481   6.462  11.963  0.00  0.00    +0.000 A 
ATOM      6  C   UNL     1      47.043   7.742  12.078  0.00  0.00    +0.000 A 
ATOM      7  C   UNL     1      47.811   8.090  13.194  0.00  0.00    +0.000 A 
BRANCH   5   8
ATOM      8  C   UNL     1      45.641   6.111  10.751  0.00  0.00    +0.000 C 
BRANCH   8   9
ATOM      9  O   UNL     1      45.418   4.705  10.561  0.00  0.00    +0.000 OA
BRANCH   9  10
ATOM     10  C   UNL     1      44.814   4.419   9.300  0.00  0.00    +0.000 C 
BRANCH  10  11
ATOM     11  C   UNL     1      45.459   3.284   8.553  0.00  0.00    +0.000 A 
ATOM     12  C   UNL     1      45.506   1.970   9.000  0.00  0.00    +0.000 A 
ATOM     13  N   UNL     1      46.118   0.963   8.331  0.00  0.00    +0.000 NA
ATOM     14  C   UNL     1      46.720   1.274   7.161  0.00  0.00    +0.000 A 
ATOM     15  C   UNL     1      46.743   2.551   6.617  0.00  0.00    +0.000 A 
ATOM     16  C   UNL     1      47.456   2.866   5.343  0.00  0.00    +0.000 C 
ATOM     17  C   UNL     1      46.096   3.561   7.332  0.00  0.00    +0.000 A 
ENDBRANCH  10  11
ENDBRANCH   9  10
ENDBRANCH   8   9
ENDBRANCH   5   8
ENDBRANCH   1   2
BRANCH   1  20
ATOM     18  C   UNL     1      50.340   6.501  17.054  0.00  0.00    +0.000 C 
ATOM     19  O   UNL     1      50.097   7.379  17.881  0.00  0.00    +0.000 OA
ATOM     20  N   UNL     1      49.760   6.521  15.815  0.00  0.00    +0.000 N 
ATOM     21  H   UNL     1      50.007   5.828  15.121  0.00  0.00    +0.000 HD
BRANCH  18  29
ATOM     22  C   UNL     1      50.017   3.068  16.965  0.00  0.00    +0.000 A 
ATOM     23  N   UNL     1      50.144   1.733  17.104  0.00  0.00    +0.000 NA
ATOM     24  C   UNL     1      51.294   1.255  17.588  0.00  0.00    +0.000 A 
ATOM     25  N   UNL     1      52.364   1.958  17.944  0.00  0.00    +0.000 NA
ATOM     26  C   UNL     1      52.194   3.282  17.800  0.00  0.00    +0.000 A 
ATOM     27  S   UNL     1      53.468   4.332  18.198  0.00  0.00    +0.000 S 
ATOM     28  C   UNL     1      52.534   5.692  17.802  0.00  0.00    +0.000 A 
ATOM     29  C   UNL     1      51.248   5.387  17.370  0.00  0.00    +0.000 A 
ATOM     30  C   UNL     1      51.057   3.939  17.338  0.00  0.00    +0.000 A 
BRANCH  22  32
ATOM     31  C   UNL     1      47.678   3.204  17.162  0.00  0.00    +0.000 C 
ATOM     32  O   UNL     1      48.845   3.564  16.426  0.00  0.00    +0.000 OA
ENDBRANCH  22  32
ENDBRANCH  18  29
ENDBRANCH   1  20
TORSDOF 8
ENDMDL
MODEL 4
REMARK VINA RESULT:    -7.064      3.184      4.561
REMARK INTER + INTRA:         -11.728
REMARK INTER:                 -10.547
REMARK INTRA:                  -1.181
REMARK UNBOUND:                -1.360
REMARK  Name = 
REMARK  10 active torsions:
REMARK  status: ('A' for Active; 'I' for Inactive)
REMARK    1  A    between atoms: C_1  and  O_2
REMARK    2  A    between atoms: O_2  and  C_3
REMARK    3  A    between atoms: C_10  and  C_11
REMARK    4  A    between atoms: N_13  and  C_14
REMARK    5  A    between atoms: C_14  and  C_15
REMARK    6  A    between atoms: C_18  and  C_19
REMARK    7  A    between atoms: C_19  and  O_20
REMARK    8  A    between atoms: O_20  and  C_21
REMARK    9  A    between atoms: C_21  and  C_22
REMARK   10  A    between atoms: C_26  and  C_27
REMARK                            x       y       z     vdW  Elec       q    Type
REMARK                         _______ _______ _______ _____ _____    ______ ____
ROOT
ATOM      1  C   UNL     1      47.720   3.445  17.286  0.00  0.00    +0.000 C 
ENDROOT
BRANCH   1   2
ATOM      2  C   UNL     1      47.609   4.342  16.081  0.00  0.00    +0.000 A 
ATOM      3  C   UNL     1      46.814   3.978  14.986  0.00  0.00    +0.000 A 
ATOM      4  C   UNL     1      46.695   4.825  13.878  0.00  0.00    +0.000 A 
ATOM      5  C   UNL     1      47.356   6.059  13.846  0.00  0.00    +0.000 A 
ATOM      6  C   UNL     1      48.196   6.394  14.919  0.00  0.00    +0.000 A 
ATOM      7  C   UNL     1      48.322   5.545  16.023  0.00  0.00    +0.000 A 
BRANCH   5   8
ATOM      8  C   UNL     1      47.224   7.002  12.666  0.00  0.00    +0.000 C 
BRANCH   8   9
ATOM      9  O   UNL     1      47.029   6.353  11.399  0.00  0.00    +0.000 OA
BRANCH   9  10
ATOM     10  C   UNL     1      45.664   6.378  10.985  0.00  0.00    +0.000 C 
BRANCH  10  11
ATOM     11  C   UNL     1      45.205   5.118  10.304  0.00  0.00    +0.000 A 
ATOM     12  C   UNL     1      44.334   4.191  10.862  0.00  0.00    +0.000 A 
ATOM     13  N   UNL     1      43.953   3.044  10.250  0.00  0.00    +0.000 NA
ATOM     14  C   UNL     1      44.466   2.797   9.024  0.00  0.00    +0.000 A 
ATOM     15  C   UNL     1      45.348   3.646   8.369  0.00  0.00    +0.000 A 
ATOM     16  C   UNL     1      45.928   3.319   7.031  0.00  0.00    +0.000 C 
ATOM     17  C   UNL     1      45.711   4.822   9.028  0.00  0.00    +0.000 A 
ENDBRANCH  10  11
ENDBRANCH   9  10
ENDBRANCH   8   9
ENDBRANCH   5   8
ENDBRANCH   1   2
BRANCH   1  20
ATOM     18  C   UNL     1      49.897   2.358  17.009  0.00  0.00    +0.000 C 
ATOM     19  O   UNL     1      49.464   1.690  16.070  0.00  0.00    +0.000 OA
ATOM     20  N   UNL     1      49.094   3.244  17.672  0.00  0.00    +0.000 N 
ATOM     21  H   UNL     1      49.440   3.748  18.478  0.00  0.00    +0.000 HD
BRANCH  18  29
ATOM     22  C   UNL     1      52.284   4.651  17.979  0.00  0.00    +0.000 A 
ATOM     23  N   UNL     1      53.410   5.314  18.310  0.00  0.00    +0.000 NA
ATOM     24  C   UNL     1      54.525   4.605  18.509  0.00  0.00    +0.000 A 
ATOM     25  N   UNL     1      54.656   3.284  18.432  0.00  0.00    +0.000 NA
ATOM     26  C   UNL     1      53.515   2.663  18.090  0.00  0.00    +0.000 A 
ATOM     27  S   UNL     1      53.499   0.970  17.957  0.00  0.00    +0.000 S 
ATOM     28  C   UNL     1      51.862   0.974  17.508  0.00  0.00    +0.000 A 
ATOM     29  C   UNL     1      51.298   2.243  17.442  0.00  0.00    +0.000 A 
ATOM     30  C   UNL     1      52.283   3.253  17.825  0.00  0.00    +0.000 A 
BRANCH  22  32
ATOM     31  C   UNL     1      50.814   6.229  18.916  0.00  0.00    +0.000 C 
ATOM     32  O   UNL     1      51.120   5.377  17.814  0.00  0.00    +0.000 OA
ENDBRANCH  22  32
ENDBRANCH  18  29
ENDBRANCH   1  20
TORSDOF 8
ENDMDL
MODEL 5
REMARK VINA RESULT:    -6.900      1.747      2.221
REMARK INTER + INTRA:         -11.487
REMARK INTER:                 -10.299
REMARK INTRA:                  -1.189
REMARK UNBOUND:                -1.360
REMARK  Name = 
REMARK  10 active torsions:
REMARK  status: ('A' for Active; 'I' for Inactive)
REMARK    1  A    between atoms: C_1  and  O_2
REMARK    2  A    between atoms: O_2  and  C_3
REMARK    3  A    between atoms: C_10  and  C_11
REMARK    4  A    between atoms: N_13  and  C_14
REMARK    5  A    between atoms: C_14  and  C_15
REMARK    6  A    between atoms: C_18  and  C_19
REMARK    7  A    between atoms: C_19  and  O_20
REMARK    8  A    between atoms: O_20  and  C_21
REMARK    9  A    between atoms: C_21  and  C_22
REMARK   10  A    between atoms: C_26  and  C_27
REMARK                            x       y       z     vdW  Elec       q    Type
REMARK                         _______ _______ _______ _____ _____    ______ ____
ROOT
ATOM      1  C   UNL     1      48.529   6.688  14.359  0.00  0.00    +0.000 C 
ENDROOT
BRANCH   1   2
ATOM      2  C   UNL     1      47.264   6.201  13.704  0.00  0.00    +0.000 A 
ATOM      3  C   UNL     1      46.523   7.040  12.862  0.00  0.00    +0.000 A 
ATOM      4  C   UNL     1      45.359   6.576  12.238  0.00  0.00    +0.000 A 
ATOM      5  C   UNL     1      44.919   5.261  12.429  0.00  0.00    +0.000 A 
ATOM      6  C   UNL     1      45.632   4.442  13.317  0.00  0.00    +0.000 A 
ATOM      7  C   UNL     1      46.790   4.907  13.949  0.00  0.00    +0.000 A 
BRANCH   5   8
ATOM      8  C   UNL     1      43.674   4.731  11.745  0.00  0.00    +0.000 C 
BRANCH   8   9
ATOM      9  O   UNL     1      43.769   4.638  10.315  0.00  0.00    +0.000 OA
BRANCH   9  10
ATOM     10  C   UNL     1      43.941   3.291   9.873  0.00  0.00    +0.000 C 
BRANCH  10  11
ATOM     11  C   UNL     1      45.044   3.112   8.866  0.00  0.00    +0.000 A 
ATOM     12  C   UNL     1      45.580   4.133   8.091  0.00  0.00    +0.000 A 
ATOM     13  N   UNL     1      46.552   3.952   7.166  0.00  0.00    +0.000 NA
ATOM     14  C   UNL     1      47.015   2.693   6.993  0.00  0.00    +0.000 A 
ATOM     15  C   UNL     1      46.554   1.594   7.705  0.00  0.00    +0.000 A 
ATOM     16  C   UNL     1      47.059   0.210   7.456  0.00  0.00    +0.000 C 
ATOM     17  C   UNL     1      45.557   1.821   8.655  0.00  0.00    +0.000 A 
ENDBRANCH  10  11
ENDBRANCH   9  10
ENDBRANCH   8   9
ENDBRANCH   5   8
ENDBRANCH   1   2
BRANCH   1  20
ATOM     18  C   UNL     1      48.812   8.503  15.978  0.00  0.00    +0.000 C 
ATOM     19  O   UNL     1      49.565   9.098  15.207  0.00  0.00    +0.000 OA
ATOM     20  N   UNL     1      48.265   7.297  15.638  0.00  0.00    +0.000 N 
ATOM     21  H   UNL     1      47.692   6.787  16.298  0.00  0.00    +0.000 HD
BRANCH  18  29
ATOM     22  C   UNL     1      48.213   7.135  19.088  0.00  0.00    +0.000 A 
ATOM     23  N   UNL     1      47.856   6.875  20.362  0.00  0.00    +0.000 NA
ATOM     24  C   UNL     1      47.498   7.902  21.139  0.00  0.00    +0.000 A 
ATOM     25  N   UNL     1      47.466   9.187  20.801  0.00  0.00    +0.000 NA
ATOM     26  C   UNL     1      47.819   9.402  19.523  0.00  0.00    +0.000 A 
ATOM     27  S   UNL     1      47.845  10.991  18.924  0.00  0.00    +0.000 S 
ATOM     28  C   UNL     1      48.317  10.453  17.385  0.00  0.00    +0.000 A 
ATOM     29  C   UNL     1      48.458   9.073  17.288  0.00  0.00    +0.000 A 
ATOM     30  C   UNL     1      48.191   8.447  18.581  0.00  0.00    +0.000 A 
BRANCH  22  32
ATOM     31  C   UNL     1      50.016   5.788  18.407  0.00  0.00    +0.000 C 
ATOM     32  O   UNL     1      48.625   6.082  18.294  0.00  0.00    +0.000 OA
ENDBRANCH  22  32
ENDBRANCH  18  29
ENDBRANCH   1  20
TORSDOF 8
ENDMDL
MODEL 6
REMARK VINA RESULT:    -6.635      3.455      8.773
REMARK INTER + INTRA:         -11.098
REMARK INTER:                  -9.642
REMARK INTRA:                  -1.456
REMARK UNBOUND:                -1.360
REMARK  Name = 
REMARK  10 active torsions:
REMARK  status: ('A' for Active; 'I' for Inactive)
REMARK    1  A    between atoms: C_1  and  O_2
REMARK    2  A    between atoms: O_2  and  C_3
REMARK    3  A    between atoms: C_10  and  C_11
REMARK    4  A    between atoms: N_13  and  C_14
REMARK    5  A    between atoms: C_14  and  C_15
REMARK    6  A    between atoms: C_18  and  C_19
REMARK    7  A    between atoms: C_19  and  O_20
REMARK    8  A    between atoms: O_20  and  C_21
REMARK    9  A    between atoms: C_21  and  C_22
REMARK   10  A    between atoms: C_26  and  C_27
REMARK                            x       y       z     vdW  Elec       q    Type
REMARK                         _______ _______ _______ _____ _____    ______ ____
ROOT
ATOM      1  C   UNL     1      47.315   3.230  16.961  0.00  0.00    +0.000 C 
ENDROOT
BRANCH   1   2
ATOM      2  C   UNL     1      48.774   3.207  17.332  0.00  0.00    +0.000 A 
ATOM      3  C   UNL     1      49.340   4.242  18.087  0.00  0.00    +0.000 A 
ATOM      4  C   UNL     1      50.692   4.204  18.448  0.00  0.00    +0.000 A 
ATOM      5  C   UNL     1      51.503   3.125  18.076  0.00  0.00    +0.000 A 
ATOM      6  C   UNL     1      50.947   2.119  17.273  0.00  0.00    +0.000 A 
ATOM      7  C   UNL     1      49.598   2.159  16.903  0.00  0.00    +0.000 A 
BRANCH   5   8
ATOM      8  C   UNL     1      52.964   3.053  18.476  0.00  0.00    +0.000 C 
BRANCH   8   9
ATOM      9  O   UNL     1      53.885   3.488  17.462  0.00  0.00    +0.000 OA
BRANCH   9  10
ATOM     10  C   UNL     1      54.382   4.802  17.713  0.00  0.00    +0.000 C 
BRANCH  10  11
ATOM     11  C   UNL     1      53.988   5.816  16.673  0.00  0.00    +0.000 A 
ATOM     12  C   UNL     1      54.870   6.423  15.788  0.00  0.00    +0.000 A 
ATOM     13  N   UNL     1      54.507   7.357  14.878  0.00  0.00    +0.000 NA
ATOM     14  C   UNL     1      53.204   7.716  14.844  0.00  0.00    +0.000 A 
ATOM     15  C   UNL     1      52.233   7.182  15.681  0.00  0.00    +0.000 A 
ATOM     16  C   UNL     1      50.809   7.634  15.645  0.00  0.00    +0.000 C 
ATOM     17  C   UNL     1      52.644   6.217  16.602  0.00  0.00    +0.000 A 
ENDBRANCH  10  11
ENDBRANCH   9  10
ENDBRANCH   8   9
ENDBRANCH   5   8
ENDBRANCH   1   2
BRANCH   1  20
ATOM     18  C   UNL     1      47.048   4.199  14.728  0.00  0.00    +0.000 C 
ATOM     19  O   UNL     1      47.369   3.132  14.207  0.00  0.00    +0.000 OA
ATOM     20  N   UNL     1      47.007   4.335  16.088  0.00  0.00    +0.000 N 
ATOM     21  H   UNL     1      46.797   5.230  16.510  0.00  0.00    +0.000 HD
BRANCH  18  29
ATOM     22  C   UNL     1      44.382   4.908  12.659  0.00  0.00    +0.000 A 
ATOM     23  N   UNL     1      43.523   5.410  11.749  0.00  0.00    +0.000 NA
ATOM     24  C   UNL     1      43.792   6.607  11.218  0.00  0.00    +0.000 A 
ATOM     25  N   UNL     1      44.828   7.390  11.500  0.00  0.00    +0.000 NA
ATOM     26  C   UNL     1      45.664   6.851  12.402  0.00  0.00    +0.000 A 
ATOM     27  S   UNL     1      47.038   7.723  12.888  0.00  0.00    +0.000 S 
ATOM     28  C   UNL     1      47.531   6.466  13.916  0.00  0.00    +0.000 A 
ATOM     29  C   UNL     1      46.680   5.366  13.910  0.00  0.00    +0.000 A 
ATOM     30  C   UNL     1      45.543   5.613  13.026  0.00  0.00    +0.000 A 
BRANCH  22  32
ATOM     31  C   UNL     1      43.522   2.744  12.333  0.00  0.00    +0.000 C 
ATOM     32  O   UNL     1      44.084   3.691  13.240  0.00  0.00    +0.000 OA
ENDBRANCH  22  32
ENDBRANCH  18  29
ENDBRANCH   1  20
TORSDOF 8
ENDMDL
MODEL 7
REMARK VINA RESULT:    -6.571      5.042      9.590
REMARK INTER + INTRA:         -11.004
REMARK INTER:                 -10.006
REMARK INTRA:                  -0.998
REMARK UNBOUND:                -1.360
REMARK  Name = 
REMARK  10 active torsions:
REMARK  status: ('A' for Active; 'I' for Inactive)
REMARK    1  A    between atoms: C_1  and  O_2
REMARK    2  A    between atoms: O_2  and  C_3
REMARK    3  A    between atoms: C_10  and  C_11
REMARK    4  A    between atoms: N_13  and  C_14
REMARK    5  A    between atoms: C_14  and  C_15
REMARK    6  A    between atoms: C_18  and  C_19
REMARK    7  A    between atoms: C_19  and  O_20
REMARK    8  A    between atoms: O_20  and  C_21
REMARK    9  A    between atoms: C_21  and  C_22
REMARK   10  A    between atoms: C_26  and  C_27
REMARK                            x       y       z     vdW  Elec       q    Type
REMARK                         _______ _______ _______ _____ _____    ______ ____
ROOT
ATOM      1  C   UNL     1      47.460   3.358  16.763  0.00  0.00    +0.000 C 
ENDROOT
BRANCH   1   2
ATOM      2  C   UNL     1      48.924   3.297  17.110  0.00  0.00    +0.000 A 
ATOM      3  C   UNL     1      49.613   4.446  17.518  0.00  0.00    +0.000 A 
ATOM      4  C   UNL     1      50.969   4.381  17.861  0.00  0.00    +0.000 A 
ATOM      5  C   UNL     1      51.660   3.164  17.819  0.00  0.00    +0.000 A 
ATOM      6  C   UNL     1      50.981   2.026  17.357  0.00  0.00    +0.000 A 
ATOM      7  C   UNL     1      49.628   2.092  17.004  0.00  0.00    +0.000 A 
BRANCH   5   8
ATOM      8  C   UNL     1      53.122   3.065  18.207  0.00  0.00    +0.000 C 
BRANCH   8   9
ATOM      9  O   UNL     1      53.464   1.894  18.966  0.00  0.00    +0.000 OA
BRANCH   9  10
ATOM     10  C   UNL     1      54.806   1.470  18.729  0.00  0.00    +0.000 C 
BRANCH  10  11
ATOM     11  C   UNL     1      54.917   0.167  17.987  0.00  0.00    +0.000 A 
ATOM     12  C   UNL     1      55.190   0.052  16.630  0.00  0.00    +0.000 A 
ATOM     13  N   UNL     1      55.257  -1.128  15.967  0.00  0.00    +0.000 NA
ATOM     14  C   UNL     1      55.035  -2.253  16.683  0.00  0.00    +0.000 A 
ATOM     15  C   UNL     1      54.749  -2.262  18.042  0.00  0.00    +0.000 A 
ATOM     16  C   UNL     1      54.467  -3.523  18.792  0.00  0.00    +0.000 C 
ATOM     17  C   UNL     1      54.696  -1.028  18.692  0.00  0.00    +0.000 A 
ENDBRANCH  10  11
ENDBRANCH   9  10
ENDBRANCH   8   9
ENDBRANCH   5   8
ENDBRANCH   1   2
BRANCH   1  20
ATOM     18  C   UNL     1      47.070   4.276  14.527  0.00  0.00    +0.000 C 
ATOM     19  O   UNL     1      47.244   3.167  14.022  0.00  0.00    +0.000 OA
ATOM     20  N   UNL     1      47.169   4.458  15.878  0.00  0.00    +0.000 N 
ATOM     21  H   UNL     1      47.080   5.381  16.281  0.00  0.00    +0.000 HD
BRANCH  18  29
ATOM     22  C   UNL     1      44.282   5.172  12.705  0.00  0.00    +0.000 A 
ATOM     23  N   UNL     1      43.384   5.725  11.864  0.00  0.00    +0.000 NA
ATOM     24  C   UNL     1      43.708   6.870  11.258  0.00  0.00    +0.000 A 
ATOM     25  N   UNL     1      44.837   7.558  11.400  0.00  0.00    +0.000 NA
ATOM     26  C   UNL     1      45.708   6.970  12.237  0.00  0.00    +0.000 A 
ATOM     27  S   UNL     1      47.200   7.719  12.544  0.00  0.00    +0.000 S 
ATOM     28  C   UNL     1      47.676   6.455  13.572  0.00  0.00    +0.000 A 
ATOM     29  C   UNL     1      46.730   5.444  13.699  0.00  0.00    +0.000 A 
ATOM     30  C   UNL     1      45.536   5.771  12.924  0.00  0.00    +0.000 A 
BRANCH  22  32
ATOM     31  C   UNL     1      43.724   2.897  12.499  0.00  0.00    +0.000 C 
ATOM     32  O   UNL     1      43.933   4.010  13.366  0.00  0.00    +0.000 OA
ENDBRANCH  22  32
ENDBRANCH  18  29
ENDBRANCH   1  20
TORSDOF 8
ENDMDL
MODEL 8
REMARK VINA RESULT:    -6.569      3.309      8.216
REMARK INTER + INTRA:         -11.001
REMARK INTER:                  -9.441
REMARK INTRA:                  -1.559
REMARK UNBOUND:                -1.360
REMARK  Name = 
REMARK  10 active torsions:
REMARK  status: ('A' for Active; 'I' for Inactive)
REMARK    1  A    between atoms: C_1  and  O_2
REMARK    2  A    between atoms: O_2  and  C_3
REMARK    3  A    between atoms: C_10  and  C_11
REMARK    4  A    between atoms: N_13  and  C_14
REMARK    5  A    between atoms: C_14  and  C_15
REMARK    6  A    between atoms: C_18  and  C_19
REMARK    7  A    between atoms: C_19  and  O_20
REMARK    8  A    between atoms: O_20  and  C_21
REMARK    9  A    between atoms: C_21  and  C_22
REMARK   10  A    between atoms: C_26  and  C_27
REMARK                            x       y       z     vdW  Elec       q    Type
REMARK                         _______ _______ _______ _____ _____    ______ ____
ROOT
ATOM      1  C   UNL     1      48.424   7.954  11.788  0.00  0.00    +0.000 C 
ENDROOT
BRANCH   1   2
ATOM      2  C   UNL     1      48.473   7.973  13.293  0.00  0.00    +0.000 A 
ATOM      3  C   UNL     1      48.035   9.092  14.012  0.00  0.00    +0.000 A 
ATOM      4  C   UNL     1      48.061   9.096  15.412  0.00  0.00    +0.000 A 
ATOM      5  C   UNL     1      48.510   7.976  16.123  0.00  0.00    +0.000 A 
ATOM      6  C   UNL     1      49.000   6.879  15.399  0.00  0.00    +0.000 A 
ATOM      7  C   UNL     1      48.984   6.877  14.000  0.00  0.00    +0.000 A 
BRANCH   5   8
ATOM      8  C   UNL     1      48.526   7.950  17.639  0.00  0.00    +0.000 C 
BRANCH   8   9
ATOM      9  O   UNL     1      49.565   7.142  18.214  0.00  0.00    +0.000 OA
BRANCH   9  10
ATOM     10  C   UNL     1      49.044   6.091  19.027  0.00  0.00    +0.000 C 
BRANCH  10  11
ATOM     11  C   UNL     1      48.743   4.824  18.275  0.00  0.00    +0.000 A 
ATOM     12  C   UNL     1      47.479   4.440  17.848  0.00  0.00    +0.000 A 
ATOM     13  N   UNL     1      47.218   3.281  17.198  0.00  0.00    +0.000 NA
ATOM     14  C   UNL     1      48.262   2.454  16.963  0.00  0.00    +0.000 A 
ATOM     15  C   UNL     1      49.568   2.729  17.345  0.00  0.00    +0.000 A 
ATOM     16  C   UNL     1      50.690   1.772  17.107  0.00  0.00    +0.000 C 
ATOM     17  C   UNL     1      49.799   3.937  18.007  0.00  0.00    +0.000 A 
ENDBRANCH  10  11
ENDBRANCH   9  10
ENDBRANCH   8   9
ENDBRANCH   5   8
ENDBRANCH   1   2
BRANCH   1  20
ATOM     18  C   UNL     1      46.303   6.856  11.252  0.00  0.00    +0.000 C 
ATOM     19  O   UNL     1      45.674   7.835  11.652  0.00  0.00    +0.000 OA
ATOM     20  N   UNL     1      47.669   6.830  11.295  0.00  0.00    +0.000 N 
ATOM     21  H   UNL     1      48.177   6.001  11.017  0.00  0.00    +0.000 HD
BRANCH  18  29
ATOM     22  C   UNL     1      44.460   4.295  12.648  0.00  0.00    +0.000 A 
ATOM     23  N   UNL     1      43.787   3.160  12.922  0.00  0.00    +0.000 NA
ATOM     24  C   UNL     1      43.487   2.343  11.907  0.00  0.00    +0.000 A 
ATOM     25  N   UNL     1      43.768   2.530  10.622  0.00  0.00    +0.000 NA
ATOM     26  C   UNL     1      44.447   3.666  10.392  0.00  0.00    +0.000 A 
ATOM     27  S   UNL     1      44.879   4.069   8.800  0.00  0.00    +0.000 S 
ATOM     28  C   UNL     1      45.655   5.486   9.320  0.00  0.00    +0.000 A 
ATOM     29  C   UNL     1      45.611   5.681  10.696  0.00  0.00    +0.000 A 
ATOM     30  C   UNL     1      44.857   4.605  11.334  0.00  0.00    +0.000 A 
BRANCH  22  32
ATOM     31  C   UNL     1      46.025   4.972  14.267  0.00  0.00    +0.000 C 
ATOM     32  O   UNL     1      44.735   5.162  13.688  0.00  0.00    +0.000 OA
ENDBRANCH  22  32
ENDBRANCH  18  29
ENDBRANCH   1  20
TORSDOF 8
ENDMDL
MODEL 9
REMARK VINA RESULT:    -6.109      3.766      9.265
REMARK INTER + INTRA:         -10.325
REMARK INTER:                  -8.593
REMARK INTRA:                  -1.732
REMARK UNBOUND:                -1.360
REMARK  Name = 
REMARK  10 active torsions:
REMARK  status: ('A' for Active; 'I' for Inactive)
REMARK    1  A    between atoms: C_1  and  O_2
REMARK    2  A    between atoms: O_2  and  C_3
REMARK    3  A    between atoms: C_10  and  C_11
REMARK    4  A    between atoms: N_13  and  C_14
REMARK    5  A    between atoms: C_14  and  C_15
REMARK    6  A    between atoms: C_18  and  C_19
REMARK    7  A    between atoms: C_19  and  O_20
REMARK    8  A    between atoms: O_20  and  C_21
REMARK    9  A    between atoms: C_21  and  C_22
REMARK   10  A    between atoms: C_26  and  C_27
REMARK                            x       y       z     vdW  Elec       q    Type
REMARK                         _______ _______ _______ _____ _____    ______ ____
ROOT
ATOM      1  C   UNL     1      47.404   3.611  15.737  0.00  0.00    +0.000 C 
ENDROOT
BRANCH   1   2
ATOM      2  C   UNL     1      48.144   4.313  16.845  0.00  0.00    +0.000 A 
ATOM      3  C   UNL     1      48.768   5.547  16.622  0.00  0.00    +0.000 A 
ATOM      4  C   UNL     1      49.436   6.206  17.661  0.00  0.00    +0.000 A 
ATOM      5  C   UNL     1      49.482   5.654  18.947  0.00  0.00    +0.000 A 
ATOM      6  C   UNL     1      48.905   4.392  19.152  0.00  0.00    +0.000 A 
ATOM      7  C   UNL     1      48.245   3.728  18.113  0.00  0.00    +0.000 A 
BRANCH   5   8
ATOM      8  C   UNL     1      50.181   6.362  20.091  0.00  0.00    +0.000 C 
BRANCH   8   9
ATOM      9  O   UNL     1      51.350   5.690  20.587  0.00  0.00    +0.000 OA
BRANCH   9  10
ATOM     10  C   UNL     1      52.445   5.769  19.676  0.00  0.00    +0.000 C 
BRANCH  10  11
ATOM     11  C   UNL     1      53.042   4.436  19.314  0.00  0.00    +0.000 A 
ATOM     12  C   UNL     1      54.347   4.053  19.596  0.00  0.00    +0.000 A 
ATOM     13  N   UNL     1      54.881   2.861  19.238  0.00  0.00    +0.000 NA
ATOM     14  C   UNL     1      54.084   2.005  18.559  0.00  0.00    +0.000 A 
ATOM     15  C   UNL     1      52.767   2.280  18.217  0.00  0.00    +0.000 A 
ATOM     16  C   UNL     1      51.930   1.327  17.428  0.00  0.00    +0.000 C 
ATOM     17  C   UNL     1      52.249   3.515  18.610  0.00  0.00    +0.000 A 
ENDBRANCH  10  11
ENDBRANCH   9  10
ENDBRANCH   8   9
ENDBRANCH   5   8
ENDBRANCH   1   2
BRANCH   1  20
ATOM     18  C   UNL     1      46.216   4.166  13.669  0.00  0.00    +0.000 C 
ATOM     19  O   UNL     1      46.360   3.016  13.256  0.00  0.00    +0.000 OA
ATOM     20  N   UNL     1      46.713   4.546  14.885  0.00  0.00    +0.000 N 
ATOM     21  H   UNL     1      46.641   5.507  15.193  0.00  0.00    +0.000 HD
BRANCH  18  29
ATOM     22  C   UNL     1      46.713   7.524  13.055  0.00  0.00    +0.000 A 
ATOM     23  N   UNL     1      46.616   8.826  12.720  0.00  0.00    +0.000 NA
ATOM     24  C   UNL     1      45.566   9.214  11.989  0.00  0.00    +0.000 A 
ATOM     25  N   UNL     1      44.587   8.443  11.527  0.00  0.00    +0.000 NA
ATOM     26  C   UNL     1      44.715   7.156  11.890  0.00  0.00    +0.000 A 
ATOM     27  S   UNL     1      43.556   6.028  11.376  0.00  0.00    +0.000 S 
ATOM     28  C   UNL     1      44.346   4.771  12.198  0.00  0.00    +0.000 A 
ATOM     29  C   UNL     1      45.489   5.173  12.879  0.00  0.00    +0.000 A 
ATOM     30  C   UNL     1      45.727   6.599  12.666  0.00  0.00    +0.000 A 
BRANCH  22  32
ATOM     31  C   UNL     1      48.988   6.934  12.977  0.00  0.00    +0.000 C 
ATOM     32  O   UNL     1      47.818   7.112  13.775  0.00  0.00    +0.000 OA
ENDBRANCH  22  32
ENDBRANCH  18  29
ENDBRANCH   1  20
TORSDOF 8
ENDMDL
