MODEL 1
REMARK VINA RESULT:    -8.378      0.000      0.000
REMARK INTER + INTRA:         -13.330
REMARK INTER:                 -12.296
REMARK INTRA:                  -1.034
REMARK UNBOUND:                -1.034
REMARK  Name = 
REMARK  8 active torsions:
REMARK  status: ('A' for Active; 'I' for Inactive)
REMARK    1  A    between atoms: C_2  and  C_3
REMARK    2  A    between atoms: C_7  and  C_8
REMARK    3  A    between atoms: C_8  and  N_9
REMARK    4  A    between atoms: N_9  and  C_10
REMARK    5  A    between atoms: C_10  and  C_11
REMARK    6  A    between atoms: C_14  and  C_15
REMARK    7  A    between atoms: C_15  and  N_16
REMARK    8  A    between atoms: C_17  and  C_19
REMARK                            x       y       z     vdW  Elec       q    Type
REMARK                         _______ _______ _______ _____ _____    ______ ____
ROOT
ATOM      1  C   UNL     1      44.606   6.072  11.884  0.00  0.00    +0.000 A 
ATOM      2  C   UNL     1      45.558   6.897  11.291  0.00  0.00    +0.000 A 
ATOM      3  C   UNL     1      46.782   7.087  11.928  0.00  0.00    +0.000 A 
ATOM      4  C   UNL     1      47.022   6.471  13.158  0.00  0.00    +0.000 A 
ATOM      5  C   UNL     1      46.022   5.653  13.667  0.00  0.00    +0.000 A 
ATOM      6  N   UNL     1      44.827   5.438  13.062  0.00  0.00    +0.000 NA
ENDROOT
BRANCH   1   7
ATOM      7  C   UNL     1      43.282   5.812  11.190  0.00  0.00    +0.000 C 
BRANCH   7   8
ATOM      8  N   UNL     1      43.396   5.055   9.933  0.00  0.00    +0.000 NA
ATOM      9  H   UNL     1      42.471   4.981   9.518  0.00  0.00    +0.000 HD
BRANCH   8  10
ATOM     10  C   UNL     1      43.900   3.699  10.175  0.00  0.00    +0.000 C 
BRANCH  10  15
ATOM     11  C   UNL     1      46.252   1.658   7.966  0.00  0.00    +0.000 A 
ATOM     12  C   UNL     1      46.927   2.666   7.272  0.00  0.00    +0.000 A 
ATOM     13  C   UNL     1      46.629   4.007   7.523  0.00  0.00    +0.000 A 
ATOM     14  C   UNL     1      45.659   4.345   8.468  0.00  0.00    +0.000 A 
ATOM     15  C   UNL     1      44.972   3.345   9.170  0.00  0.00    +0.000 A 
ATOM     16  C   UNL     1      45.274   1.998   8.907  0.00  0.00    +0.000 A 
BRANCH  11  18
ATOM     17  N   UNL     1      46.808  -0.836   7.520  0.00  0.00    +0.000 NA
ATOM     18  C   UNL     1      46.557   0.280   7.716  0.00  0.00    +0.000 C 
ENDBRANCH  11  18
ENDBRANCH  10  15
ENDBRANCH   8  10
ENDBRANCH   7   8
ENDBRANCH   1   7
BRANCH   4  19
ATOM     19  C   UNL     1      48.322   6.654  13.883  0.00  0.00    +0.000 C 
BRANCH  19  20
ATOM     20  N   UNL     1      48.112   6.859  15.292  0.00  0.00    +0.000 N 
ATOM     21  C   UNL     1      49.115   6.624  16.199  0.00  0.00    +0.000 C 
ATOM     22  O   UNL     1      50.239   6.277  15.848  0.00  0.00    +0.000 OA
ATOM     23  H   UNL     1      47.152   6.901  15.617  0.00  0.00    +0.000 HD
BRANCH  21  24
ATOM     24  C   UNL     1      48.794   6.874  17.609  0.00  0.00    +0.000 A 
ATOM     25  C   UNL     1      48.560   8.172  18.043  0.00  0.00    +0.000 A 
ATOM     26  S   UNL     1      48.151   8.278  19.695  0.00  0.00    +0.000 S 
ATOM     27  C   UNL     1      48.319   6.599  19.902  0.00  0.00    +0.000 A 
ATOM     28  N   UNL     1      48.129   6.021  21.118  0.00  0.00    +0.000 NA
ATOM     29  C   UNL     1      48.320   4.744  21.139  0.00  0.00    +0.000 A 
ATOM     30  N   UNL     1      48.677   3.990  20.050  0.00  0.00    +0.000 N 
ATOM     31  C   UNL     1      48.851   4.523  18.797  0.00  0.00    +0.000 A 
ATOM     32  O   UNL     1      49.124   3.816  17.833  0.00  0.00    +0.000 OA
ATOM     33  C   UNL     1      48.663   5.962  18.722  0.00  0.00    +0.000 A 
ATOM     34  H   UNL     1      48.803   2.992  20.132  0.00  0.00    +0.000 HD
ENDBRANCH  21  24
ENDBRANCH  19  20
ENDBRANCH   4  19
TORSDOF 8
ENDMDL
MODEL 2
REMARK VINA RESULT:    -8.126      1.389      2.074
REMARK INTER + INTRA:         -12.961
REMARK INTER:                 -12.032
REMARK INTRA:                  -0.929
REMARK UNBOUND:                -1.034
REMARK  Name = 
REMARK  8 active torsions:
REMARK  status: ('A' for Active; 'I' for Inactive)
REMARK    1  A    between atoms: C_2  and  C_3
REMARK    2  A    between atoms: C_7  and  C_8
REMARK    3  A    between atoms: C_8  and  N_9
REMARK    4  A    between atoms: N_9  and  C_10
REMARK    5  A    between atoms: C_10  and  C_11
REMARK    6  A    between atoms: C_14  and  C_15
REMARK    7  A    between atoms: C_15  and  N_16
REMARK    8  A    between atoms: C_17  and  C_19
REMARK                            x       y       z     vdW  Elec       q    Type
REMARK                         _______ _______ _______ _____ _____    ______ ____
ROOT
ATOM      1  C   UNL     1      44.555   6.005  12.117  0.00  0.00    +0.000 A 
ATOM      2  C   UNL     1      45.371   7.107  11.878  0.00  0.00    +0.000 A 
ATOM      3  C   UNL     1      46.575   7.222  12.568  0.00  0.00    +0.000 A 
ATOM      4  C   UNL     1      46.929   6.248  13.503  0.00  0.00    +0.000 A 
ATOM      5  C   UNL     1      46.062   5.174  13.665  0.00  0.00    +0.000 A 
ATOM      6  N   UNL     1      44.891   5.030  12.997  0.00  0.00    +0.000 NA
ENDROOT
BRANCH   1   7
ATOM      7  C   UNL     1      43.259   5.832  11.346  0.00  0.00    +0.000 C 
BRANCH   7   8
ATOM      8  N   UNL     1      43.412   5.151  10.050  0.00  0.00    +0.000 NA
ATOM      9  H   UNL     1      42.503   5.121   9.594  0.00  0.00    +0.000 HD
BRANCH   8  10
ATOM     10  C   UNL     1      43.882   3.774  10.227  0.00  0.00    +0.000 C 
BRANCH  10  15
ATOM     11  C   UNL     1      46.243   1.777   7.988  0.00  0.00    +0.000 A 
ATOM     12  C   UNL     1      46.874   2.797   7.269  0.00  0.00    +0.000 A 
ATOM     13  C   UNL     1      46.544   4.131   7.514  0.00  0.00    +0.000 A 
ATOM     14  C   UNL     1      45.585   4.451   8.476  0.00  0.00    +0.000 A 
ATOM     15  C   UNL     1      44.942   3.440   9.203  0.00  0.00    +0.000 A 
ATOM     16  C   UNL     1      45.277   2.100   8.946  0.00  0.00    +0.000 A 
BRANCH  11  18
ATOM     17  N   UNL     1      46.863  -0.703   7.549  0.00  0.00    +0.000 NA
ATOM     18  C   UNL     1      46.582   0.406   7.745  0.00  0.00    +0.000 C 
ENDBRANCH  11  18
ENDBRANCH  10  15
ENDBRANCH   8  10
ENDBRANCH   7   8
ENDBRANCH   1   7
BRANCH   4  19
ATOM     19  C   UNL     1      48.212   6.334  14.274  0.00  0.00    +0.000 C 
BRANCH  19  20
ATOM     20  N   UNL     1      47.968   6.418  15.691  0.00  0.00    +0.000 N 
ATOM     21  C   UNL     1      48.967   6.168  16.598  0.00  0.00    +0.000 C 
ATOM     22  O   UNL     1      50.114   5.910  16.245  0.00  0.00    +0.000 OA
ATOM     23  H   UNL     1      47.001   6.382  15.998  0.00  0.00    +0.000 HD
BRANCH  21  24
ATOM     24  C   UNL     1      48.609   6.289  18.016  0.00  0.00    +0.000 A 
ATOM     25  C   UNL     1      48.721   5.186  18.851  0.00  0.00    +0.000 A 
ATOM     26  S   UNL     1      48.316   5.514  20.475  0.00  0.00    +0.000 S 
ATOM     27  C   UNL     1      47.928   7.129  20.110  0.00  0.00    +0.000 A 
ATOM     28  N   UNL     1      47.476   7.975  21.074  0.00  0.00    +0.000 NA
ATOM     29  C   UNL     1      47.190   9.161  20.653  0.00  0.00    +0.000 A 
ATOM     30  N   UNL     1      47.323   9.582  19.354  0.00  0.00    +0.000 N 
ATOM     31  C   UNL     1      47.803   8.775  18.353  0.00  0.00    +0.000 A 
ATOM     32  O   UNL     1      47.955   9.194  17.211  0.00  0.00    +0.000 OA
ATOM     33  C   UNL     1      48.125   7.421  18.772  0.00  0.00    +0.000 A 
ATOM     34  H   UNL     1      47.089  10.528  19.091  0.00  0.00    +0.000 HD
ENDBRANCH  21  24
ENDBRANCH  19  20
ENDBRANCH   4  19
TORSDOF 8
ENDMDL
MODEL 3
REMARK VINA RESULT:    -7.498      3.344      9.039
REMARK INTER + INTRA:         -12.038
REMARK INTER:                 -10.426
REMARK INTRA:                  -1.612
REMARK UNBOUND:                -1.034
REMARK  Name = 
REMARK  8 active torsions:
REMARK  status: ('A' for Active; 'I' for Inactive)
REMARK    1  A    between atoms: C_2  and  C_3
REMARK    2  A    between atoms: C_7  and  C_8
REMARK    3  A    between atoms: C_8  and  N_9
REMARK    4  A    between atoms: N_9  and  C_10
REMARK    5  A    between atoms: C_10  and  C_11
REMARK    6  A    between atoms: C_14  and  C_15
REMARK    7  A    between atoms: C_15  and  N_16
REMARK    8  A    between atoms: C_17  and  C_19
REMARK                            x       y       z     vdW  Elec       q    Type
REMARK                         _______ _______ _______ _____ _____    ______ ____
ROOT
ATOM      1  C   UNL     1      49.022   7.846  16.010  0.00  0.00    +0.000 A 
ATOM      2  C   UNL     1      49.041   6.649  15.299  0.00  0.00    +0.000 A 
ATOM      3  C   UNL     1      48.497   6.613  14.018  0.00  0.00    +0.000 A 
ATOM      4  C   UNL     1      47.921   7.766  13.481  0.00  0.00    +0.000 A 
ATOM      5  C   UNL     1      47.962   8.919  14.255  0.00  0.00    +0.000 A 
ATOM      6  N   UNL     1      48.497   8.987  15.499  0.00  0.00    +0.000 NA
ENDROOT
BRANCH   1   7
ATOM      7  C   UNL     1      49.649   7.924  17.391  0.00  0.00    +0.000 C 
BRANCH   7   8
ATOM      8  N   UNL     1      48.721   7.623  18.493  0.00  0.00    +0.000 NA
ATOM      9  H   UNL     1      48.716   8.414  19.133  0.00  0.00    +0.000 HD
BRANCH   8  10
ATOM     10  C   UNL     1      49.149   6.435  19.237  0.00  0.00    +0.000 C 
BRANCH  10  15
ATOM     11  C   UNL     1      49.420   3.031  17.530  0.00  0.00    +0.000 A 
ATOM     12  C   UNL     1      48.097   2.811  17.135  0.00  0.00    +0.000 A 
ATOM     13  C   UNL     1      47.118   3.767  17.412  0.00  0.00    +0.000 A 
ATOM     14  C   UNL     1      47.456   4.944  18.082  0.00  0.00    +0.000 A 
ATOM     15  C   UNL     1      48.778   5.177  18.487  0.00  0.00    +0.000 A 
ATOM     16  C   UNL     1      49.755   4.207  18.208  0.00  0.00    +0.000 A 
BRANCH  11  18
ATOM     17  N   UNL     1      51.253   1.269  17.017  0.00  0.00    +0.000 NA
ATOM     18  C   UNL     1      50.430   2.055  17.244  0.00  0.00    +0.000 C 
ENDBRANCH  11  18
ENDBRANCH  10  15
ENDBRANCH   8  10
ENDBRANCH   7   8
ENDBRANCH   1   7
BRANCH   4  19
ATOM     19  C   UNL     1      47.317   7.772  12.108  0.00  0.00    +0.000 C 
BRANCH  19  20
ATOM     20  N   UNL     1      46.681   6.515  11.810  0.00  0.00    +0.000 N 
ATOM     21  C   UNL     1      45.316   6.416  11.711  0.00  0.00    +0.000 C 
ATOM     22  O   UNL     1      44.586   7.396  11.826  0.00  0.00    +0.000 OA
ATOM     23  H   UNL     1      47.228   5.672  11.955  0.00  0.00    +0.000 HD
BRANCH  21  24
ATOM     24  C   UNL     1      44.776   5.089  11.395  0.00  0.00    +0.000 A 
ATOM     25  C   UNL     1      44.016   4.412  12.339  0.00  0.00    +0.000 A 
ATOM     26  S   UNL     1      43.425   2.909  11.791  0.00  0.00    +0.000 S 
ATOM     27  C   UNL     1      44.206   3.087  10.290  0.00  0.00    +0.000 A 
ATOM     28  N   UNL     1      44.125   2.116   9.341  0.00  0.00    +0.000 NA
ATOM     29  C   UNL     1      44.791   2.366   8.263  0.00  0.00    +0.000 A 
ATOM     30  N   UNL     1      45.524   3.505   8.045  0.00  0.00    +0.000 N 
ATOM     31  C   UNL     1      45.610   4.525   8.960  0.00  0.00    +0.000 A 
ATOM     32  O   UNL     1      46.235   5.551   8.717  0.00  0.00    +0.000 OA
ATOM     33  C   UNL     1      44.891   4.285  10.200  0.00  0.00    +0.000 A 
ATOM     34  H   UNL     1      46.016   3.643   7.175  0.00  0.00    +0.000 HD
ENDBRANCH  21  24
ENDBRANCH  19  20
ENDBRANCH   4  19
TORSDOF 8
ENDMDL
MODEL 4
REMARK VINA RESULT:    -7.365      3.611      9.138
REMARK INTER + INTRA:         -11.843
REMARK INTER:                 -10.599
REMARK INTRA:                  -1.244
REMARK UNBOUND:                -1.034
REMARK  Name = 
REMARK  8 active torsions:
REMARK  status: ('A' for Active; 'I' for Inactive)
REMARK    1  A    between atoms: C_2  and  C_3
REMARK    2  A    between atoms: C_7  and  C_8
REMARK    3  A    between atoms: C_8  and  N_9
REMARK    4  A    between atoms: N_9  and  C_10
REMARK    5  A    between atoms: C_10  and  C_11
REMARK    6  A    between atoms: C_14  and  C_15
REMARK    7  A    between atoms: C_15  and  N_16
REMARK    8  A    between atoms: C_17  and  C_19
REMARK                            x       y       z     vdW  Elec       q    Type
REMARK                         _______ _______ _______ _____ _____    ______ ____
ROOT
ATOM      1  C   UNL     1      50.461   7.492  14.694  0.00  0.00    +0.000 A 
ATOM      2  C   UNL     1      50.692   8.265  13.559  0.00  0.00    +0.000 A 
ATOM      3  C   UNL     1      49.678   8.405  12.616  0.00  0.00    +0.000 A 
ATOM      4  C   UNL     1      48.460   7.750  12.810  0.00  0.00    +0.000 A 
ATOM      5  C   UNL     1      48.311   7.014  13.979  0.00  0.00    +0.000 A 
ATOM      6  N   UNL     1      49.277   6.871  14.921  0.00  0.00    +0.000 NA
ENDROOT
BRANCH   1   7
ATOM      7  C   UNL     1      51.533   7.359  15.760  0.00  0.00    +0.000 C 
BRANCH   7   8
ATOM      8  N   UNL     1      51.023   6.982  17.088  0.00  0.00    +0.000 NA
ATOM      9  H   UNL     1      51.041   7.806  17.684  0.00  0.00    +0.000 HD
BRANCH   8  10
ATOM     10  C   UNL     1      51.862   5.951  17.706  0.00  0.00    +0.000 C 
BRANCH  10  15
ATOM     11  C   UNL     1      49.190   3.247  17.355  0.00  0.00    +0.000 A 
ATOM     12  C   UNL     1      49.969   2.086  17.339  0.00  0.00    +0.000 A 
ATOM     13  C   UNL     1      51.358   2.176  17.451  0.00  0.00    +0.000 A 
ATOM     14  C   UNL     1      51.972   3.423  17.581  0.00  0.00    +0.000 A 
ATOM     15  C   UNL     1      51.205   4.595  17.595  0.00  0.00    +0.000 A 
ATOM     16  C   UNL     1      49.808   4.496  17.476  0.00  0.00    +0.000 A 
BRANCH  11  18
ATOM     17  N   UNL     1      46.609   3.084  17.155  0.00  0.00    +0.000 NA
ATOM     18  C   UNL     1      47.764   3.161  17.244  0.00  0.00    +0.000 C 
ENDBRANCH  11  18
ENDBRANCH  10  15
ENDBRANCH   8  10
ENDBRANCH   7   8
ENDBRANCH   1   7
BRANCH   4  19
ATOM     19  C   UNL     1      47.343   7.867  11.817  0.00  0.00    +0.000 C 
BRANCH  19  20
ATOM     20  N   UNL     1      46.706   6.595  11.592  0.00  0.00    +0.000 N 
ATOM     21  C   UNL     1      45.340   6.468  11.643  0.00  0.00    +0.000 C 
ATOM     22  O   UNL     1      44.606   7.432  11.833  0.00  0.00    +0.000 OA
ATOM     23  H   UNL     1      47.283   5.765  11.680  0.00  0.00    +0.000 HD
BRANCH  21  24
ATOM     24  C   UNL     1      44.798   5.128  11.390  0.00  0.00    +0.000 A 
ATOM     25  C   UNL     1      44.057   4.489  12.374  0.00  0.00    +0.000 A 
ATOM     26  S   UNL     1      43.459   2.964  11.899  0.00  0.00    +0.000 S 
ATOM     27  C   UNL     1      44.212   3.082  10.378  0.00  0.00    +0.000 A 
ATOM     28  N   UNL     1      44.116   2.073   9.470  0.00  0.00    +0.000 NA
ATOM     29  C   UNL     1      44.761   2.281   8.371  0.00  0.00    +0.000 A 
ATOM     30  N   UNL     1      45.488   3.411   8.094  0.00  0.00    +0.000 N 
ATOM     31  C   UNL     1      45.588   4.467   8.965  0.00  0.00    +0.000 A 
ATOM     32  O   UNL     1      46.206   5.484   8.669  0.00  0.00    +0.000 OA
ATOM     33  C   UNL     1      44.893   4.277  10.227  0.00  0.00    +0.000 A 
ATOM     34  H   UNL     1      45.963   3.515   7.210  0.00  0.00    +0.000 HD
ENDBRANCH  21  24
ENDBRANCH  19  20
ENDBRANCH   4  19
TORSDOF 8
ENDMDL
MODEL 5
REMARK VINA RESULT:    -7.243      2.531      3.125
REMARK INTER + INTRA:         -11.665
REMARK INTER:                 -10.488
REMARK INTRA:                  -1.177
REMARK UNBOUND:                -1.034
REMARK  Name = 
REMARK  8 active torsions:
REMARK  status: ('A' for Active; 'I' for Inactive)
REMARK    1  A    between atoms: C_2  and  C_3
REMARK    2  A    between atoms: C_7  and  C_8
REMARK    3  A    between atoms: C_8  and  N_9
REMARK    4  A    between atoms: N_9  and  C_10
REMARK    5  A    between atoms: C_10  and  C_11
REMARK    6  A    between atoms: C_14  and  C_15
REMARK    7  A    between atoms: C_15  and  N_16
REMARK    8  A    between atoms: C_17  and  C_19
REMARK                            x       y       z     vdW  Elec       q    Type
REMARK                         _______ _______ _______ _____ _____    ______ ____
ROOT
ATOM      1  C   UNL     1      45.446   5.566  12.769  0.00  0.00    +0.000 A 
ATOM      2  C   UNL     1      46.593   5.084  13.394  0.00  0.00    +0.000 A 
ATOM      3  C   UNL     1      47.776   5.813  13.297  0.00  0.00    +0.000 A 
ATOM      4  C   UNL     1      47.798   6.996  12.555  0.00  0.00    +0.000 A 
ATOM      5  C   UNL     1      46.603   7.409  11.979  0.00  0.00    +0.000 A 
ATOM      6  N   UNL     1      45.434   6.728  12.069  0.00  0.00    +0.000 NA
ENDROOT
BRANCH   1   7
ATOM      7  C   UNL     1      44.134   4.815  12.896  0.00  0.00    +0.000 C 
BRANCH   7   8
ATOM      8  N   UNL     1      44.198   3.408  12.467  0.00  0.00    +0.000 NA
ATOM      9  H   UNL     1      45.172   3.169  12.296  0.00  0.00    +0.000 HD
BRANCH   8  10
ATOM     10  C   UNL     1      43.451   3.199  11.223  0.00  0.00    +0.000 C 
BRANCH  10  15
ATOM     11  C   UNL     1      45.811   2.053   8.450  0.00  0.00    +0.000 A 
ATOM     12  C   UNL     1      46.078   3.259   7.795  0.00  0.00    +0.000 A 
ATOM     13  C   UNL     1      45.502   4.445   8.255  0.00  0.00    +0.000 A 
ATOM     14  C   UNL     1      44.661   4.431   9.369  0.00  0.00    +0.000 A 
ATOM     15  C   UNL     1      44.382   3.229  10.034  0.00  0.00    +0.000 A 
ATOM     16  C   UNL     1      44.962   2.039   9.560  0.00  0.00    +0.000 A 
BRANCH  11  18
ATOM     17  N   UNL     1      46.887  -0.151   7.605  0.00  0.00    +0.000 NA
ATOM     18  C   UNL     1      46.403   0.833   7.985  0.00  0.00    +0.000 C 
ENDBRANCH  11  18
ENDBRANCH  10  15
ENDBRANCH   8  10
ENDBRANCH   7   8
ENDBRANCH   1   7
BRANCH   4  19
ATOM     19  C   UNL     1      49.050   7.809  12.417  0.00  0.00    +0.000 C 
BRANCH  19  20
ATOM     20  N   UNL     1      50.055   7.388  13.358  0.00  0.00    +0.000 N 
ATOM     21  C   UNL     1      50.663   8.290  14.196  0.00  0.00    +0.000 C 
ATOM     22  O   UNL     1      50.347   9.475  14.212  0.00  0.00    +0.000 OA
ATOM     23  H   UNL     1      50.498   6.490  13.194  0.00  0.00    +0.000 HD
BRANCH  21  24
ATOM     24  C   UNL     1      51.667   7.751  15.120  0.00  0.00    +0.000 A 
ATOM     25  C   UNL     1      52.977   8.205  15.055  0.00  0.00    +0.000 A 
ATOM     26  S   UNL     1      54.000   7.514  16.232  0.00  0.00    +0.000 S 
ATOM     27  C   UNL     1      52.741   6.546  16.838  0.00  0.00    +0.000 A 
ATOM     28  N   UNL     1      52.956   5.678  17.863  0.00  0.00    +0.000 NA
ATOM     29  C   UNL     1      51.922   4.984  18.202  0.00  0.00    +0.000 A 
ATOM     30  N   UNL     1      50.687   5.084  17.613  0.00  0.00    +0.000 N 
ATOM     31  C   UNL     1      50.414   5.966  16.597  0.00  0.00    +0.000 A 
ATOM     32  O   UNL     1      49.287   6.065  16.123  0.00  0.00    +0.000 OA
ATOM     33  C   UNL     1      51.550   6.761  16.166  0.00  0.00    +0.000 A 
ATOM     34  H   UNL     1      49.916   4.516  17.932  0.00  0.00    +0.000 HD
ENDBRANCH  21  24
ENDBRANCH  19  20
ENDBRANCH   4  19
TORSDOF 8
ENDMDL
MODEL 6
REMARK VINA RESULT:    -6.908      3.082      4.107
REMARK INTER + INTRA:         -11.173
REMARK INTER:                 -10.385
REMARK INTRA:                  -0.788
REMARK UNBOUND:                -1.034
REMARK  Name = 
REMARK  8 active torsions:
REMARK  status: ('A' for Active; 'I' for Inactive)
REMARK    1  A    between atoms: C_2  and  C_3
REMARK    2  A    between atoms: C_7  and  C_8
REMARK    3  A    between atoms: C_8  and  N_9
REMARK    4  A    between atoms: N_9  and  C_10
REMARK    5  A    between atoms: C_10  and  C_11
REMARK    6  A    between atoms: C_14  and  C_15
REMARK    7  A    between atoms: C_15  and  N_16
REMARK    8  A    between atoms: C_17  and  C_19
REMARK                            x       y       z     vdW  Elec       q    Type
REMARK                         _______ _______ _______ _____ _____    ______ ____
ROOT
ATOM      1  C   UNL     1      47.577   6.097  13.627  0.00  0.00    +0.000 A 
ATOM      2  C   UNL     1      48.427   7.125  13.229  0.00  0.00    +0.000 A 
ATOM      3  C   UNL     1      49.417   7.564  14.105  0.00  0.00    +0.000 A 
ATOM      4  C   UNL     1      49.522   6.986  15.372  0.00  0.00    +0.000 A 
ATOM      5  C   UNL     1      48.642   5.955  15.678  0.00  0.00    +0.000 A 
ATOM      6  N   UNL     1      47.679   5.498  14.840  0.00  0.00    +0.000 NA
ENDROOT
BRANCH   1   7
ATOM      7  C   UNL     1      46.519   5.569  12.675  0.00  0.00    +0.000 C 
BRANCH   7   8
ATOM      8  N   UNL     1      46.454   6.280  11.388  0.00  0.00    +0.000 NA
ATOM      9  H   UNL     1      46.614   7.270  11.561  0.00  0.00    +0.000 HD
BRANCH   8  10
ATOM     10  C   UNL     1      45.136   6.132  10.766  0.00  0.00    +0.000 C 
BRANCH  10  15
ATOM     11  C   UNL     1      45.605   3.402   8.139  0.00  0.00    +0.000 A 
ATOM     12  C   UNL     1      44.902   2.339   8.713  0.00  0.00    +0.000 A 
ATOM     13  C   UNL     1      44.267   2.506   9.945  0.00  0.00    +0.000 A 
ATOM     14  C   UNL     1      44.332   3.734  10.606  0.00  0.00    +0.000 A 
ATOM     15  C   UNL     1      45.036   4.808  10.045  0.00  0.00    +0.000 A 
ATOM     16  C   UNL     1      45.676   4.628   8.807  0.00  0.00    +0.000 A 
BRANCH  11  18
ATOM     17  N   UNL     1      46.788   3.101   5.850  0.00  0.00    +0.000 NA
ATOM     18  C   UNL     1      46.255   3.238   6.872  0.00  0.00    +0.000 C 
ENDBRANCH  11  18
ENDBRANCH  10  15
ENDBRANCH   8  10
ENDBRANCH   7   8
ENDBRANCH   1   7
BRANCH   4  19
ATOM     19  C   UNL     1      50.567   7.432  16.351  0.00  0.00    +0.000 C 
BRANCH  19  20
ATOM     20  N   UNL     1      51.399   6.334  16.767  0.00  0.00    +0.000 N 
ATOM     21  C   UNL     1      51.249   5.761  18.005  0.00  0.00    +0.000 C 
ATOM     22  O   UNL     1      50.376   6.125  18.786  0.00  0.00    +0.000 OA
ATOM     23  H   UNL     1      52.264   6.187  16.256  0.00  0.00    +0.000 HD
BRANCH  21  24
ATOM     24  C   UNL     1      52.145   4.643  18.322  0.00  0.00    +0.000 A 
ATOM     25  C   UNL     1      53.339   4.885  18.988  0.00  0.00    +0.000 A 
ATOM     26  S   UNL     1      54.234   3.472  19.323  0.00  0.00    +0.000 S 
ATOM     27  C   UNL     1      53.083   2.492  18.545  0.00  0.00    +0.000 A 
ATOM     28  N   UNL     1      53.259   1.147  18.449  0.00  0.00    +0.000 NA
ATOM     29  C   UNL     1      52.325   0.529  17.807  0.00  0.00    +0.000 A 
ATOM     30  N   UNL     1      51.224   1.135  17.257  0.00  0.00    +0.000 N 
ATOM     31  C   UNL     1      50.987   2.483  17.354  0.00  0.00    +0.000 A 
ATOM     32  O   UNL     1      49.970   2.989  16.893  0.00  0.00    +0.000 OA
ATOM     33  C   UNL     1      52.019   3.229  18.055  0.00  0.00    +0.000 A 
ATOM     34  H   UNL     1      50.524   0.592  16.773  0.00  0.00    +0.000 HD
ENDBRANCH  21  24
ENDBRANCH  19  20
ENDBRANCH   4  19
TORSDOF 8
ENDMDL
MODEL 7
REMARK VINA RESULT:    -6.830      3.688      8.692
REMARK INTER + INTRA:         -11.058
REMARK INTER:                  -9.275
REMARK INTRA:                  -1.783
REMARK UNBOUND:                -1.034
REMARK  Name = 
REMARK  8 active torsions:
REMARK  status: ('A' for Active; 'I' for Inactive)
REMARK    1  A    between atoms: C_2  and  C_3
REMARK    2  A    between atoms: C_7  and  C_8
REMARK    3  A    between atoms: C_8  and  N_9
REMARK    4  A    between atoms: N_9  and  C_10
REMARK    5  A    between atoms: C_10  and  C_11
REMARK    6  A    between atoms: C_14  and  C_15
REMARK    7  A    between atoms: C_15  and  N_16
REMARK    8  A    between atoms: C_17  and  C_19
REMARK                            x       y       z     vdW  Elec       q    Type
REMARK                         _______ _______ _______ _____ _____    ______ ____
ROOT
ATOM      1  C   UNL     1      49.770   8.211  18.148  0.00  0.00    +0.000 A 
ATOM      2  C   UNL     1      50.379   7.498  17.118  0.00  0.00    +0.000 A 
ATOM      3  C   UNL     1      49.930   7.678  15.812  0.00  0.00    +0.000 A 
ATOM      4  C   UNL     1      48.866   8.545  15.562  0.00  0.00    +0.000 A 
ATOM      5  C   UNL     1      48.329   9.227  16.647  0.00  0.00    +0.000 A 
ATOM      6  N   UNL     1      48.755   9.082  17.927  0.00  0.00    +0.000 NA
ENDROOT
BRANCH   1   7
ATOM      7  C   UNL     1      50.268   8.068  19.575  0.00  0.00    +0.000 C 
BRANCH   7   8
ATOM      8  N   UNL     1      50.396   6.675  20.034  0.00  0.00    +0.000 NA
ATOM      9  H   UNL     1      50.868   6.140  19.308  0.00  0.00    +0.000 HD
BRANCH   8  10
ATOM     10  C   UNL     1      49.082   6.070  20.267  0.00  0.00    +0.000 C 
BRANCH  10  15
ATOM     11  C   UNL     1      49.263   3.241  17.709  0.00  0.00    +0.000 A 
ATOM     12  C   UNL     1      48.034   3.377  17.056  0.00  0.00    +0.000 A 
ATOM     13  C   UNL     1      47.150   4.388  17.436  0.00  0.00    +0.000 A 
ATOM     14  C   UNL     1      47.490   5.267  18.466  0.00  0.00    +0.000 A 
ATOM     15  C   UNL     1      48.716   5.142  19.132  0.00  0.00    +0.000 A 
ATOM     16  C   UNL     1      49.598   4.117  18.746  0.00  0.00    +0.000 A 
BRANCH  11  18
ATOM     17  N   UNL     1      50.912   1.366  17.007  0.00  0.00    +0.000 NA
ATOM     18  C   UNL     1      50.177   2.208  17.320  0.00  0.00    +0.000 C 
ENDBRANCH  11  18
ENDBRANCH  10  15
ENDBRANCH   8  10
ENDBRANCH   7   8
ENDBRANCH   1   7
BRANCH   4  19
ATOM     19  C   UNL     1      48.345   8.764  14.172  0.00  0.00    +0.000 C 
BRANCH  19  20
ATOM     20  N   UNL     1      47.334   7.797  13.833  0.00  0.00    +0.000 N 
ATOM     21  C   UNL     1      47.648   6.662  13.127  0.00  0.00    +0.000 C 
ATOM     22  O   UNL     1      48.801   6.401  12.799  0.00  0.00    +0.000 OA
ATOM     23  H   UNL     1      46.367   8.103  13.872  0.00  0.00    +0.000 HD
BRANCH  21  24
ATOM     24  C   UNL     1      46.541   5.741  12.843  0.00  0.00    +0.000 A 
ATOM     25  C   UNL     1      46.671   4.393  13.148  0.00  0.00    +0.000 A 
ATOM     26  S   UNL     1      45.276   3.475  12.802  0.00  0.00    +0.000 S 
ATOM     27  C   UNL     1      44.465   4.838  12.186  0.00  0.00    +0.000 A 
ATOM     28  N   UNL     1      43.204   4.735  11.687  0.00  0.00    +0.000 NA
ATOM     29  C   UNL     1      42.721   5.840  11.224  0.00  0.00    +0.000 A 
ATOM     30  N   UNL     1      43.383   7.041  11.223  0.00  0.00    +0.000 N 
ATOM     31  C   UNL     1      44.643   7.200  11.743  0.00  0.00    +0.000 A 
ATOM     32  O   UNL     1      45.191   8.298  11.769  0.00  0.00    +0.000 OA
ATOM     33  C   UNL     1      45.240   5.982  12.262  0.00  0.00    +0.000 A 
ATOM     34  H   UNL     1      42.944   7.872  10.852  0.00  0.00    +0.000 HD
ENDBRANCH  21  24
ENDBRANCH  19  20
ENDBRANCH   4  19
TORSDOF 8
ENDMDL
MODEL 8
REMARK VINA RESULT:    -6.699      3.802      8.407
REMARK INTER + INTRA:         -10.866
REMARK INTER:                  -8.901
REMARK INTRA:                  -1.965
REMARK UNBOUND:                -1.034
REMARK  Name = 
REMARK  8 active torsions:
REMARK  status: ('A' for Active; 'I' for Inactive)
REMARK    1  A    between atoms: C_2  and  C_3
REMARK    2  A    between atoms: C_7  and  C_8
REMARK    3  A    between atoms: C_8  and  N_9
REMARK    4  A    between atoms: N_9  and  C_10
REMARK    5  A    between atoms: C_10  and  C_11
REMARK    6  A    between atoms: C_14  and  C_15
REMARK    7  A    between atoms: C_15  and  N_16
REMARK    8  A    between atoms: C_17  and  C_19
REMARK                            x       y       z     vdW  Elec       q    Type
REMARK                         _______ _______ _______ _____ _____    ______ ____
ROOT
ATOM      1  C   UNL     1      50.888   7.759  17.656  0.00  0.00    +0.000 A 
ATOM      2  C   UNL     1      50.631   7.111  16.450  0.00  0.00    +0.000 A 
ATOM      3  C   UNL     1      49.728   7.677  15.555  0.00  0.00    +0.000 A 
ATOM      4  C   UNL     1      49.077   8.866  15.891  0.00  0.00    +0.000 A 
ATOM      5  C   UNL     1      49.407   9.452  17.107  0.00  0.00    +0.000 A 
ATOM      6  N   UNL     1      50.293   8.931  17.991  0.00  0.00    +0.000 NA
ENDROOT
BRANCH   1   7
ATOM      7  C   UNL     1      51.902   7.188  18.630  0.00  0.00    +0.000 C 
BRANCH   7   8
ATOM      8  N   UNL     1      52.467   5.891  18.223  0.00  0.00    +0.000 NA
ATOM      9  H   UNL     1      52.150   5.686  17.278  0.00  0.00    +0.000 HD
BRANCH   8  10
ATOM     10  C   UNL     1      52.008   4.813  19.104  0.00  0.00    +0.000 C 
BRANCH  10  15
ATOM     11  C   UNL     1      49.122   3.052  17.330  0.00  0.00    +0.000 A 
ATOM     12  C   UNL     1      49.758   1.913  16.827  0.00  0.00    +0.000 A 
ATOM     13  C   UNL     1      51.117   1.709  17.068  0.00  0.00    +0.000 A 
ATOM     14  C   UNL     1      51.846   2.638  17.813  0.00  0.00    +0.000 A 
ATOM     15  C   UNL     1      51.223   3.786  18.321  0.00  0.00    +0.000 A 
ATOM     16  C   UNL     1      49.855   3.987  18.068  0.00  0.00    +0.000 A 
BRANCH  11  18
ATOM     17  N   UNL     1      46.594   3.442  16.902  0.00  0.00    +0.000 NA
ATOM     18  C   UNL     1      47.725   3.265  17.090  0.00  0.00    +0.000 C 
ENDBRANCH  11  18
ENDBRANCH  10  15
ENDBRANCH   8  10
ENDBRANCH   7   8
ENDBRANCH   1   7
BRANCH   4  19
ATOM     19  C   UNL     1      48.091   9.507  14.961  0.00  0.00    +0.000 C 
BRANCH  19  20
ATOM     20  N   UNL     1      47.188   8.535  14.403  0.00  0.00    +0.000 N 
ATOM     21  C   UNL     1      47.132   8.315  13.049  0.00  0.00    +0.000 C 
ATOM     22  O   UNL     1      47.875   8.899  12.266  0.00  0.00    +0.000 OA
ATOM     23  H   UNL     1      46.413   8.233  14.985  0.00  0.00    +0.000 HD
BRANCH  21  24
ATOM     24  C   UNL     1      46.181   7.296  12.590  0.00  0.00    +0.000 A 
ATOM     25  C   UNL     1      45.086   7.672  11.824  0.00  0.00    +0.000 A 
ATOM     26  S   UNL     1      44.113   6.360  11.332  0.00  0.00    +0.000 S 
ATOM     27  C   UNL     1      45.093   5.249  12.167  0.00  0.00    +0.000 A 
ATOM     28  N   UNL     1      44.794   3.922  12.177  0.00  0.00    +0.000 NA
ATOM     29  C   UNL     1      45.603   3.197  12.875  0.00  0.00    +0.000 A 
ATOM     30  N   UNL     1      46.690   3.679  13.559  0.00  0.00    +0.000 N 
ATOM     31  C   UNL     1      47.048   5.003  13.555  0.00  0.00    +0.000 A 
ATOM     32  O   UNL     1      48.053   5.396  14.138  0.00  0.00    +0.000 OA
ATOM     33  C   UNL     1      46.159   5.867  12.796  0.00  0.00    +0.000 A 
ATOM     34  H   UNL     1      47.289   3.055  14.081  0.00  0.00    +0.000 HD
ENDBRANCH  21  24
ENDBRANCH  19  20
ENDBRANCH   4  19
TORSDOF 8
ENDMDL
MODEL 9
REMARK VINA RESULT:    -6.410      3.239      9.071
REMARK INTER + INTRA:         -10.442
REMARK INTER:                  -9.522
REMARK INTRA:                  -0.920
REMARK UNBOUND:                -1.034
REMARK  Name = 
REMARK  8 active torsions:
REMARK  status: ('A' for Active; 'I' for Inactive)
REMARK    1  A    between atoms: C_2  and  C_3
REMARK    2  A    between atoms: C_7  and  C_8
REMARK    3  A    between atoms: C_8  and  N_9
REMARK    4  A    between atoms: N_9  and  C_10
REMARK    5  A    between atoms: C_10  and  C_11
REMARK    6  A    between atoms: C_14  and  C_15
REMARK    7  A    between atoms: C_15  and  N_16
REMARK    8  A    between atoms: C_17  and  C_19
REMARK                            x       y       z     vdW  Elec       q    Type
REMARK                         _______ _______ _______ _____ _____    ______ ____
ROOT
ATOM      1  C   UNL     1      49.698   8.184  13.438  0.00  0.00    +0.000 A 
ATOM      2  C   UNL     1      49.403   7.604  12.207  0.00  0.00    +0.000 A 
ATOM      3  C   UNL     1      48.098   7.665  11.724  0.00  0.00    +0.000 A 
ATOM      4  C   UNL     1      47.107   8.279  12.491  0.00  0.00    +0.000 A 
ATOM      5  C   UNL     1      47.495   8.845  13.700  0.00  0.00    +0.000 A 
ATOM      6  N   UNL     1      48.760   8.813  14.188  0.00  0.00    +0.000 NA
ENDROOT
BRANCH   1   7
ATOM      7  C   UNL     1      51.121   8.171  13.967  0.00  0.00    +0.000 C 
BRANCH   7   8
ATOM      8  N   UNL     1      51.221   8.251  15.433  0.00  0.00    +0.000 NA
ATOM      9  H   UNL     1      52.083   8.738  15.669  0.00  0.00    +0.000 HD
BRANCH   8  10
ATOM     10  C   UNL     1      51.271   6.916  16.035  0.00  0.00    +0.000 C 
BRANCH  10  15
ATOM     11  C   UNL     1      48.166   5.336  17.598  0.00  0.00    +0.000 A 
ATOM     12  C   UNL     1      47.879   6.242  18.624  0.00  0.00    +0.000 A 
ATOM     13  C   UNL     1      48.684   7.368  18.805  0.00  0.00    +0.000 A 
ATOM     14  C   UNL     1      49.774   7.595  17.964  0.00  0.00    +0.000 A 
ATOM     15  C   UNL     1      50.076   6.695  16.934  0.00  0.00    +0.000 A 
ATOM     16  C   UNL     1      49.264   5.561  16.761  0.00  0.00    +0.000 A 
BRANCH  11  18
ATOM     17  N   UNL     1      46.678   3.242  17.240  0.00  0.00    +0.000 NA
ATOM     18  C   UNL     1      47.341   4.181  17.403  0.00  0.00    +0.000 C 
ENDBRANCH  11  18
ENDBRANCH  10  15
ENDBRANCH   8  10
ENDBRANCH   7   8
ENDBRANCH   1   7
BRANCH   4  19
ATOM     19  C   UNL     1      45.688   8.361  12.015  0.00  0.00    +0.000 C 
BRANCH  19  20
ATOM     20  N   UNL     1      45.228   7.091  11.514  0.00  0.00    +0.000 N 
ATOM     21  C   UNL     1      45.202   5.980  12.319  0.00  0.00    +0.000 C 
ATOM     22  O   UNL     1      45.522   6.029  13.503  0.00  0.00    +0.000 OA
ATOM     23  H   UNL     1      45.199   6.973  10.507  0.00  0.00    +0.000 HD
BRANCH  21  24
ATOM     24  C   UNL     1      44.708   4.741  11.708  0.00  0.00    +0.000 A 
ATOM     25  C   UNL     1      43.952   3.855  12.463  0.00  0.00    +0.000 A 
ATOM     26  S   UNL     1      43.416   2.493  11.586  0.00  0.00    +0.000 S 
ATOM     27  C   UNL     1      44.216   3.015  10.179  0.00  0.00    +0.000 A 
ATOM     28  N   UNL     1      44.182   2.275   9.039  0.00  0.00    +0.000 NA
ATOM     29  C   UNL     1      44.857   2.772   8.058  0.00  0.00    +0.000 A 
ATOM     30  N   UNL     1      45.560   3.949   8.111  0.00  0.00    +0.000 N 
ATOM     31  C   UNL     1      45.599   4.745   9.229  0.00  0.00    +0.000 A 
ATOM     32  O   UNL     1      46.198   5.816   9.230  0.00  0.00    +0.000 OA
ATOM     33  C   UNL     1      44.867   4.221  10.369  0.00  0.00    +0.000 A 
ATOM     34  H   UNL     1      46.062   4.287   7.303  0.00  0.00    +0.000 HD
ENDBRANCH  21  24
ENDBRANCH  19  20
ENDBRANCH   4  19
TORSDOF 8
ENDMDL
