MODEL 1
REMARK VINA RESULT:    -8.571      0.000      0.000
REMARK INTER + INTRA:         -11.365
REMARK INTER:                 -10.576
REMARK INTRA:                  -0.790
REMARK UNBOUND:                -0.790
REMARK  Name = 
REMARK  4 active torsions:
REMARK  status: ('A' for Active; 'I' for Inactive)
REMARK    1  A    between atoms: C_2  and  C_4
REMARK    2  A    between atoms: N_8  and  C_9
REMARK    3  A    between atoms: C_9  and  C_10
REMARK    4  A    between atoms: C_14  and  C_15
REMARK                            x       y       z     vdW  Elec       q    Type
REMARK                         _______ _______ _______ _____ _____    ______ ____
ROOT
ATOM      1  C   UNL     1      46.392   2.271   7.581  0.00  0.00    +0.000 A 
ATOM      2  C   UNL     1      45.795   1.858   8.766  0.00  0.00    +0.000 A 
ATOM      3  C   UNL     1      44.945   2.734   9.441  0.00  0.00    +0.000 A 
ATOM      4  C   UNL     1      44.717   4.008   8.931  0.00  0.00    +0.000 A 
ATOM      5  N   UNL     1      43.821   4.897   9.473  0.00  0.00    +0.000 N 
ATOM      6  N   UNL     1      45.323   4.431   7.803  0.00  0.00    +0.000 NA
ATOM      7  C   UNL     1      46.151   3.567   7.157  0.00  0.00    +0.000 A 
ATOM      8  H   UNL     1      43.872   5.786   8.987  0.00  0.00    +0.000 HD
ENDROOT
BRANCH   1  10
ATOM      9  N   UNL     1      48.309   1.968   6.128  0.00  0.00    +0.000 N 
ATOM     10  C   UNL     1      47.246   1.384   6.766  0.00  0.00    +0.000 C 
ATOM     11  O   UNL     1      47.046   0.183   6.698  0.00  0.00    +0.000 OA
ATOM     12  H   UNL     1      48.956   1.339   5.667  0.00  0.00    +0.000 HD
ATOM     13  H   UNL     1      48.648   2.889   6.368  0.00  0.00    +0.000 HD
ENDBRANCH   1  10
BRANCH   5  14
ATOM     14  C   UNL     1      43.476   4.949  10.876  0.00  0.00    +0.000 C 
BRANCH  14  15
ATOM     15  C   UNL     1      44.619   5.289  11.810  0.00  0.00    +0.000 A 
ATOM     16  C   UNL     1      44.857   4.422  12.889  0.00  0.00    +0.000 A 
ATOM     17  C   UNL     1      45.889   4.672  13.789  0.00  0.00    +0.000 A 
ATOM     18  C   UNL     1      46.710   5.783  13.613  0.00  0.00    +0.000 A 
ATOM     19  C   UNL     1      46.538   6.661  12.527  0.00  0.00    +0.000 A 
ATOM     20  C   UNL     1      45.462   6.403  11.651  0.00  0.00    +0.000 A 
BRANCH  19  21
ATOM     21  C   UNL     1      47.496   7.761  12.270  0.00  0.00    +0.000 A 
ATOM     22  C   UNL     1      48.845   7.491  11.991  0.00  0.00    +0.000 A 
ATOM     23  C   UNL     1      49.707   8.533  11.690  0.00  0.00    +0.000 A 
ATOM     24  N   UNL     1      49.332   9.825  11.641  0.00  0.00    +0.000 NA
ATOM     25  C   UNL     1      48.037  10.082  11.910  0.00  0.00    +0.000 A 
ATOM     26  C   UNL     1      47.102   9.106  12.232  0.00  0.00    +0.000 A 
ENDBRANCH  19  21
ENDBRANCH  14  15
ENDBRANCH   5  14
TORSDOF 4
ENDMDL
MODEL 2
REMARK VINA RESULT:    -8.032      2.188      3.349
REMARK INTER + INTRA:         -10.700
REMARK INTER:                  -9.896
REMARK INTRA:                  -0.804
REMARK UNBOUND:                -0.790
REMARK  Name = 
REMARK  4 active torsions:
REMARK  status: ('A' for Active; 'I' for Inactive)
REMARK    1  A    between atoms: C_2  and  C_4
REMARK    2  A    between atoms: N_8  and  C_9
REMARK    3  A    between atoms: C_9  and  C_10
REMARK    4  A    between atoms: C_14  and  C_15
REMARK                            x       y       z     vdW  Elec       q    Type
REMARK                         _______ _______ _______ _____ _____    ______ ____
ROOT
ATOM      1  C   UNL     1      46.267   2.041   7.963  0.00  0.00    +0.000 A 
ATOM      2  C   UNL     1      45.663   1.815   9.193  0.00  0.00    +0.000 A 
ATOM      3  C   UNL     1      44.890   2.824   9.767  0.00  0.00    +0.000 A 
ATOM      4  C   UNL     1      44.745   4.043   9.113  0.00  0.00    +0.000 A 
ATOM      5  N   UNL     1      43.925   5.053   9.555  0.00  0.00    +0.000 N 
ATOM      6  N   UNL     1      45.361   4.286   7.938  0.00  0.00    +0.000 NA
ATOM      7  C   UNL     1      46.114   3.293   7.391  0.00  0.00    +0.000 A 
ATOM      8  H   UNL     1      44.031   5.873   8.967  0.00  0.00    +0.000 HD
ENDROOT
BRANCH   1  10
ATOM      9  N   UNL     1      46.850  -0.291   7.649  0.00  0.00    +0.000 N 
ATOM     10  C   UNL     1      47.042   1.006   7.250  0.00  0.00    +0.000 C 
ATOM     11  O   UNL     1      47.782   1.282   6.321  0.00  0.00    +0.000 OA
ATOM     12  H   UNL     1      47.293  -1.004   7.082  0.00  0.00    +0.000 HD
ATOM     13  H   UNL     1      46.069  -0.573   8.224  0.00  0.00    +0.000 HD
ENDBRANCH   1  10
BRANCH   5  14
ATOM     14  C   UNL     1      43.609   5.293  10.945  0.00  0.00    +0.000 C 
BRANCH  14  15
ATOM     15  C   UNL     1      44.704   5.959  11.751  0.00  0.00    +0.000 A 
ATOM     16  C   UNL     1      44.920   7.331  11.547  0.00  0.00    +0.000 A 
ATOM     17  C   UNL     1      45.910   8.009  12.251  0.00  0.00    +0.000 A 
ATOM     18  C   UNL     1      46.689   7.328  13.185  0.00  0.00    +0.000 A 
ATOM     19  C   UNL     1      46.487   5.962  13.454  0.00  0.00    +0.000 A 
ATOM     20  C   UNL     1      45.500   5.292  12.699  0.00  0.00    +0.000 A 
BRANCH  19  21
ATOM     21  C   UNL     1      47.224   5.277  14.541  0.00  0.00    +0.000 A 
ATOM     22  C   UNL     1      48.057   5.997  15.411  0.00  0.00    +0.000 A 
ATOM     23  C   UNL     1      48.685   5.344  16.460  0.00  0.00    +0.000 A 
ATOM     24  N   UNL     1      48.547   4.030  16.713  0.00  0.00    +0.000 NA
ATOM     25  C   UNL     1      47.747   3.340  15.876  0.00  0.00    +0.000 A 
ATOM     26  C   UNL     1      47.086   3.905  14.793  0.00  0.00    +0.000 A 
ENDBRANCH  19  21
ENDBRANCH  14  15
ENDBRANCH   5  14
TORSDOF 4
ENDMDL
MODEL 3
REMARK VINA RESULT:    -7.831      2.251      2.963
REMARK INTER + INTRA:         -10.452
REMARK INTER:                  -9.835
REMARK INTRA:                  -0.617
REMARK UNBOUND:                -0.790
REMARK  Name = 
REMARK  4 active torsions:
REMARK  status: ('A' for Active; 'I' for Inactive)
REMARK    1  A    between atoms: C_2  and  C_4
REMARK    2  A    between atoms: N_8  and  C_9
REMARK    3  A    between atoms: C_9  and  C_10
REMARK    4  A    between atoms: C_14  and  C_15
REMARK                            x       y       z     vdW  Elec       q    Type
REMARK                         _______ _______ _______ _____ _____    ______ ____
ROOT
ATOM      1  C   UNL     1      46.629   2.467   7.222  0.00  0.00    +0.000 A 
ATOM      2  C   UNL     1      46.306   3.705   7.764  0.00  0.00    +0.000 A 
ATOM      3  C   UNL     1      45.504   3.761   8.903  0.00  0.00    +0.000 A 
ATOM      4  C   UNL     1      45.027   2.585   9.474  0.00  0.00    +0.000 A 
ATOM      5  N   UNL     1      44.317   2.540  10.649  0.00  0.00    +0.000 N 
ATOM      6  N   UNL     1      45.303   1.381   8.932  0.00  0.00    +0.000 NA
ATOM      7  C   UNL     1      46.084   1.342   7.819  0.00  0.00    +0.000 A 
ATOM      8  H   UNL     1      44.009   1.592  10.837  0.00  0.00    +0.000 HD
ENDROOT
BRANCH   1  10
ATOM      9  N   UNL     1      47.424   3.251   5.071  0.00  0.00    +0.000 N 
ATOM     10  C   UNL     1      47.530   2.312   6.063  0.00  0.00    +0.000 C 
ATOM     11  O   UNL     1      48.359   1.420   6.008  0.00  0.00    +0.000 OA
ATOM     12  H   UNL     1      48.122   3.207   4.337  0.00  0.00    +0.000 HD
ATOM     13  H   UNL     1      46.943   4.129   5.202  0.00  0.00    +0.000 HD
ENDBRANCH   1  10
BRANCH   5  14
ATOM     14  C   UNL     1      43.455   3.602  11.118  0.00  0.00    +0.000 C 
BRANCH  14  15
ATOM     15  C   UNL     1      44.168   4.828  11.647  0.00  0.00    +0.000 A 
ATOM     16  C   UNL     1      43.691   6.084  11.241  0.00  0.00    +0.000 A 
ATOM     17  C   UNL     1      44.298   7.254  11.686  0.00  0.00    +0.000 A 
ATOM     18  C   UNL     1      45.381   7.187  12.560  0.00  0.00    +0.000 A 
ATOM     19  C   UNL     1      45.873   5.954  13.027  0.00  0.00    +0.000 A 
ATOM     20  C   UNL     1      45.261   4.783  12.531  0.00  0.00    +0.000 A 
BRANCH  19  21
ATOM     21  C   UNL     1      46.934   5.893  14.059  0.00  0.00    +0.000 A 
ATOM     22  C   UNL     1      47.002   4.817  14.958  0.00  0.00    +0.000 A 
ATOM     23  C   UNL     1      48.043   4.749  15.871  0.00  0.00    +0.000 A 
ATOM     24  N   UNL     1      49.023   5.666  15.959  0.00  0.00    +0.000 NA
ATOM     25  C   UNL     1      48.956   6.698  15.095  0.00  0.00    +0.000 A 
ATOM     26  C   UNL     1      47.947   6.857  14.153  0.00  0.00    +0.000 A 
ENDBRANCH  19  21
ENDBRANCH  14  15
ENDBRANCH   5  14
TORSDOF 4
ENDMDL
MODEL 4
REMARK VINA RESULT:    -7.377      2.827      6.922
REMARK INTER + INTRA:          -9.891
REMARK INTER:                  -9.279
REMARK INTRA:                  -0.612
REMARK UNBOUND:                -0.790
REMARK  Name = 
REMARK  4 active torsions:
REMARK  status: ('A' for Active; 'I' for Inactive)
REMARK    1  A    between atoms: C_2  and  C_4
REMARK    2  A    between atoms: N_8  and  C_9
REMARK    3  A    between atoms: C_9  and  C_10
REMARK    4  A    between atoms: C_14  and  C_15
REMARK                            x       y       z     vdW  Elec       q    Type
REMARK                         _______ _______ _______ _____ _____    ______ ____
ROOT
ATOM      1  C   UNL     1      48.453   7.310  13.562  0.00  0.00    +0.000 A 
ATOM      2  C   UNL     1      47.674   6.160  13.540  0.00  0.00    +0.000 A 
ATOM      3  C   UNL     1      46.506   6.144  12.779  0.00  0.00    +0.000 A 
ATOM      4  C   UNL     1      46.128   7.277  12.065  0.00  0.00    +0.000 A 
ATOM      5  N   UNL     1      45.051   7.318  11.213  0.00  0.00    +0.000 N 
ATOM      6  N   UNL     1      46.857   8.410  12.113  0.00  0.00    +0.000 NA
ATOM      7  C   UNL     1      47.993   8.413  12.861  0.00  0.00    +0.000 A 
ATOM      8  H   UNL     1      44.919   8.260  10.860  0.00  0.00    +0.000 HD
ENDROOT
BRANCH   1  10
ATOM      9  N   UNL     1      50.617   8.357  13.869  0.00  0.00    +0.000 N 
ATOM     10  C   UNL     1      49.740   7.390  14.281  0.00  0.00    +0.000 C 
ATOM     11  O   UNL     1      49.994   6.662  15.226  0.00  0.00    +0.000 OA
ATOM     12  H   UNL     1      51.446   8.484  14.439  0.00  0.00    +0.000 HD
ATOM     13  H   UNL     1      50.339   9.127  13.278  0.00  0.00    +0.000 HD
ENDBRANCH   1  10
BRANCH   5  14
ATOM     14  C   UNL     1      43.857   6.518  11.374  0.00  0.00    +0.000 C 
BRANCH  14  15
ATOM     15  C   UNL     1      44.002   5.059  10.995  0.00  0.00    +0.000 A 
ATOM     16  C   UNL     1      43.253   4.121  11.724  0.00  0.00    +0.000 A 
ATOM     17  C   UNL     1      43.336   2.763  11.433  0.00  0.00    +0.000 A 
ATOM     18  C   UNL     1      44.156   2.323  10.396  0.00  0.00    +0.000 A 
ATOM     19  C   UNL     1      44.897   3.225   9.611  0.00  0.00    +0.000 A 
ATOM     20  C   UNL     1      44.822   4.593   9.952  0.00  0.00    +0.000 A 
BRANCH  19  21
ATOM     21  C   UNL     1      45.660   2.766   8.427  0.00  0.00    +0.000 A 
ATOM     22  C   UNL     1      45.987   3.656   7.393  0.00  0.00    +0.000 A 
ATOM     23  C   UNL     1      46.757   3.219   6.327  0.00  0.00    +0.000 A 
ATOM     24  N   UNL     1      47.231   1.965   6.210  0.00  0.00    +0.000 NA
ATOM     25  C   UNL     1      46.916   1.112   7.205  0.00  0.00    +0.000 A 
ATOM     26  C   UNL     1      46.141   1.456   8.306  0.00  0.00    +0.000 A 
ENDBRANCH  19  21
ENDBRANCH  14  15
ENDBRANCH   5  14
TORSDOF 4
ENDMDL
MODEL 5
REMARK VINA RESULT:    -7.331      3.429      7.324
REMARK INTER + INTRA:          -9.835
REMARK INTER:                  -9.396
REMARK INTRA:                  -0.439
REMARK UNBOUND:                -0.790
REMARK  Name = 
REMARK  4 active torsions:
REMARK  status: ('A' for Active; 'I' for Inactive)
REMARK    1  A    between atoms: C_2  and  C_4
REMARK    2  A    between atoms: N_8  and  C_9
REMARK    3  A    between atoms: C_9  and  C_10
REMARK    4  A    between atoms: C_14  and  C_15
REMARK                            x       y       z     vdW  Elec       q    Type
REMARK                         _______ _______ _______ _____ _____    ______ ____
ROOT
ATOM      1  C   UNL     1      47.828   5.164  15.547  0.00  0.00    +0.000 A 
ATOM      2  C   UNL     1      46.792   4.516  14.885  0.00  0.00    +0.000 A 
ATOM      3  C   UNL     1      46.307   5.051  13.692  0.00  0.00    +0.000 A 
ATOM      4  C   UNL     1      46.852   6.228  13.188  0.00  0.00    +0.000 A 
ATOM      5  N   UNL     1      46.506   6.770  11.974  0.00  0.00    +0.000 N 
ATOM      6  N   UNL     1      47.829   6.885  13.844  0.00  0.00    +0.000 NA
ATOM      7  C   UNL     1      48.292   6.353  15.008  0.00  0.00    +0.000 A 
ATOM      8  H   UNL     1      46.970   7.663  11.844  0.00  0.00    +0.000 HD
ENDROOT
BRANCH   1  10
ATOM      9  N   UNL     1      47.620   4.420  17.844  0.00  0.00    +0.000 N 
ATOM     10  C   UNL     1      48.450   4.630  16.775  0.00  0.00    +0.000 C 
ATOM     11  O   UNL     1      49.635   4.345  16.823  0.00  0.00    +0.000 OA
ATOM     12  H   UNL     1      48.029   3.945  18.642  0.00  0.00    +0.000 HD
ATOM     13  H   UNL     1      46.615   4.398  17.756  0.00  0.00    +0.000 HD
ENDBRANCH   1  10
BRANCH   5  14
ATOM     14  C   UNL     1      45.204   6.626  11.362  0.00  0.00    +0.000 C 
BRANCH  14  15
ATOM     15  C   UNL     1      44.883   5.239  10.845  0.00  0.00    +0.000 A 
ATOM     16  C   UNL     1      43.794   4.566  11.424  0.00  0.00    +0.000 A 
ATOM     17  C   UNL     1      43.441   3.289  11.000  0.00  0.00    +0.000 A 
ATOM     18  C   UNL     1      44.160   2.671   9.979  0.00  0.00    +0.000 A 
ATOM     19  C   UNL     1      45.234   3.318   9.341  0.00  0.00    +0.000 A 
ATOM     20  C   UNL     1      45.593   4.598   9.815  0.00  0.00    +0.000 A 
BRANCH  19  21
ATOM     21  C   UNL     1      45.907   2.714   8.167  0.00  0.00    +0.000 A 
ATOM     22  C   UNL     1      46.184   3.479   7.024  0.00  0.00    +0.000 A 
ATOM     23  C   UNL     1      46.873   2.908   5.965  0.00  0.00    +0.000 A 
ATOM     24  N   UNL     1      47.310   1.635   5.955  0.00  0.00    +0.000 NA
ATOM     25  C   UNL     1      47.042   0.902   7.054  0.00  0.00    +0.000 A 
ATOM     26  C   UNL     1      46.350   1.384   8.159  0.00  0.00    +0.000 A 
ENDBRANCH  19  21
ENDBRANCH  14  15
ENDBRANCH   5  14
TORSDOF 4
ENDMDL
MODEL 6
REMARK VINA RESULT:    -7.221      3.044      6.990
REMARK INTER + INTRA:          -9.699
REMARK INTER:                  -8.958
REMARK INTRA:                  -0.742
REMARK UNBOUND:                -0.790
REMARK  Name = 
REMARK  4 active torsions:
REMARK  status: ('A' for Active; 'I' for Inactive)
REMARK    1  A    between atoms: C_2  and  C_4
REMARK    2  A    between atoms: N_8  and  C_9
REMARK    3  A    between atoms: C_9  and  C_10
REMARK    4  A    between atoms: C_14  and  C_15
REMARK                            x       y       z     vdW  Elec       q    Type
REMARK                         _______ _______ _______ _____ _____    ______ ____
ROOT
ATOM      1  C   UNL     1      49.404   7.700  12.918  0.00  0.00    +0.000 A 
ATOM      2  C   UNL     1      48.621   8.076  11.834  0.00  0.00    +0.000 A 
ATOM      3  C   UNL     1      47.265   7.750  11.828  0.00  0.00    +0.000 A 
ATOM      4  C   UNL     1      46.717   7.045  12.895  0.00  0.00    +0.000 A 
ATOM      5  N   UNL     1      45.377   6.770  13.021  0.00  0.00    +0.000 N 
ATOM      6  N   UNL     1      47.478   6.642  13.933  0.00  0.00    +0.000 NA
ATOM      7  C   UNL     1      48.800   6.964  13.923  0.00  0.00    +0.000 A 
ATOM      8  H   UNL     1      45.214   6.184  13.833  0.00  0.00    +0.000 HD
ENDROOT
BRANCH   1  10
ATOM      9  N   UNL     1      51.579   8.012  11.894  0.00  0.00    +0.000 N 
ATOM     10  C   UNL     1      50.830   8.066  13.039  0.00  0.00    +0.000 C 
ATOM     11  O   UNL     1      51.309   8.442  14.096  0.00  0.00    +0.000 OA
ATOM     12  H   UNL     1      52.524   8.375  11.959  0.00  0.00    +0.000 HD
ATOM     13  H   UNL     1      51.165   7.960  10.975  0.00  0.00    +0.000 HD
ENDBRANCH   1  10
BRANCH   5  14
ATOM     14  C   UNL     1      44.478   6.587  11.904  0.00  0.00    +0.000 C 
BRANCH  14  15
ATOM     15  C   UNL     1      44.382   5.170  11.376  0.00  0.00    +0.000 A 
ATOM     16  C   UNL     1      43.479   4.301  12.009  0.00  0.00    +0.000 A 
ATOM     17  C   UNL     1      43.339   2.985  11.580  0.00  0.00    +0.000 A 
ATOM     18  C   UNL     1      44.086   2.523  10.499  0.00  0.00    +0.000 A 
ATOM     19  C   UNL     1      44.976   3.365   9.806  0.00  0.00    +0.000 A 
ATOM     20  C   UNL     1      45.125   4.684  10.286  0.00  0.00    +0.000 A 
BRANCH  19  21
ATOM     21  C   UNL     1      45.665   2.909   8.577  0.00  0.00    +0.000 A 
ATOM     22  C   UNL     1      45.977   3.812   7.550  0.00  0.00    +0.000 A 
ATOM     23  C   UNL     1      46.680   3.375   6.438  0.00  0.00    +0.000 A 
ATOM     24  N   UNL     1      47.100   2.107   6.270  0.00  0.00    +0.000 NA
ATOM     25  C   UNL     1      46.799   1.241   7.258  0.00  0.00    +0.000 A 
ATOM     26  C   UNL     1      46.091   1.585   8.402  0.00  0.00    +0.000 A 
ENDBRANCH  19  21
ENDBRANCH  14  15
ENDBRANCH   5  14
TORSDOF 4
ENDMDL
MODEL 7
REMARK VINA RESULT:    -6.788      4.706      8.021
REMARK INTER + INTRA:          -9.164
REMARK INTER:                  -8.702
REMARK INTRA:                  -0.462
REMARK UNBOUND:                -0.790
REMARK  Name = 
REMARK  4 active torsions:
REMARK  status: ('A' for Active; 'I' for Inactive)
REMARK    1  A    between atoms: C_2  and  C_4
REMARK    2  A    between atoms: N_8  and  C_9
REMARK    3  A    between atoms: C_9  and  C_10
REMARK    4  A    between atoms: C_14  and  C_15
REMARK                            x       y       z     vdW  Elec       q    Type
REMARK                         _______ _______ _______ _____ _____    ______ ____
ROOT
ATOM      1  C   UNL     1      49.297   4.204  17.457  0.00  0.00    +0.000 A 
ATOM      2  C   UNL     1      49.014   5.439  16.888  0.00  0.00    +0.000 A 
ATOM      3  C   UNL     1      47.989   5.535  15.947  0.00  0.00    +0.000 A 
ATOM      4  C   UNL     1      47.275   4.399  15.580  0.00  0.00    +0.000 A 
ATOM      5  N   UNL     1      46.189   4.419  14.740  0.00  0.00    +0.000 N 
ATOM      6  N   UNL     1      47.569   3.190  16.098  0.00  0.00    +0.000 NA
ATOM      7  C   UNL     1      48.573   3.109  17.013  0.00  0.00    +0.000 A 
ATOM      8  H   UNL     1      45.872   3.473  14.554  0.00  0.00    +0.000 HD
ENDROOT
BRANCH   1  10
ATOM      9  N   UNL     1      51.310   3.118  18.260  0.00  0.00    +0.000 N 
ATOM     10  C   UNL     1      50.314   4.024  18.512  0.00  0.00    +0.000 C 
ATOM     11  O   UNL     1      50.297   4.681  19.540  0.00  0.00    +0.000 OA
ATOM     12  H   UNL     1      52.067   3.085  18.934  0.00  0.00    +0.000 HD
ATOM     13  H   UNL     1      51.496   2.758  17.335  0.00  0.00    +0.000 HD
ENDBRANCH   1  10
BRANCH   5  14
ATOM     14  C   UNL     1      46.001   5.381  13.677  0.00  0.00    +0.000 C 
BRANCH  14  15
ATOM     15  C   UNL     1      45.171   4.898  12.507  0.00  0.00    +0.000 A 
ATOM     16  C   UNL     1      43.788   5.138  12.548  0.00  0.00    +0.000 A 
ATOM     17  C   UNL     1      42.962   4.721  11.508  0.00  0.00    +0.000 A 
ATOM     18  C   UNL     1      43.509   4.073  10.403  0.00  0.00    +0.000 A 
ATOM     19  C   UNL     1      44.893   3.843  10.296  0.00  0.00    +0.000 A 
ATOM     20  C   UNL     1      45.702   4.244  11.380  0.00  0.00    +0.000 A 
BRANCH  19  21
ATOM     21  C   UNL     1      45.484   3.277   9.061  0.00  0.00    +0.000 A 
ATOM     22  C   UNL     1      45.937   4.115   8.030  0.00  0.00    +0.000 A 
ATOM     23  C   UNL     1      46.546   3.564   6.913  0.00  0.00    +0.000 A 
ATOM     24  N   UNL     1      46.741   2.244   6.742  0.00  0.00    +0.000 NA
ATOM     25  C   UNL     1      46.304   1.441   7.732  0.00  0.00    +0.000 A 
ATOM     26  C   UNL     1      45.674   1.900   8.883  0.00  0.00    +0.000 A 
ENDBRANCH  19  21
ENDBRANCH  14  15
ENDBRANCH   5  14
TORSDOF 4
ENDMDL
MODEL 8
REMARK VINA RESULT:    -6.527      5.849      7.440
REMARK INTER + INTRA:          -8.843
REMARK INTER:                  -8.254
REMARK INTRA:                  -0.589
REMARK UNBOUND:                -0.790
REMARK  Name = 
REMARK  4 active torsions:
REMARK  status: ('A' for Active; 'I' for Inactive)
REMARK    1  A    between atoms: C_2  and  C_4
REMARK    2  A    between atoms: N_8  and  C_9
REMARK    3  A    between atoms: C_9  and  C_10
REMARK    4  A    between atoms: C_14  and  C_15
REMARK                            x       y       z     vdW  Elec       q    Type
REMARK                         _______ _______ _______ _____ _____    ______ ____
ROOT
ATOM      1  C   UNL     1      45.261   4.687  11.598  0.00  0.00    +0.000 A 
ATOM      2  C   UNL     1      45.687   5.708  12.438  0.00  0.00    +0.000 A 
ATOM      3  C   UNL     1      46.293   5.382  13.651  0.00  0.00    +0.000 A 
ATOM      4  C   UNL     1      46.451   4.048  14.011  0.00  0.00    +0.000 A 
ATOM      5  N   UNL     1      47.123   3.635  15.136  0.00  0.00    +0.000 N 
ATOM      6  N   UNL     1      46.004   3.051  13.220  0.00  0.00    +0.000 NA
ATOM      7  C   UNL     1      45.413   3.384  12.040  0.00  0.00    +0.000 A 
ATOM      8  H   UNL     1      47.050   2.628  15.238  0.00  0.00    +0.000 HD
ENDROOT
BRANCH   1  10
ATOM      9  N   UNL     1      45.554   5.212   9.249  0.00  0.00    +0.000 N 
ATOM     10  C   UNL     1      44.677   4.940  10.265  0.00  0.00    +0.000 C 
ATOM     11  O   UNL     1      43.476   4.867  10.066  0.00  0.00    +0.000 OA
ATOM     12  H   UNL     1      45.158   5.268   8.318  0.00  0.00    +0.000 HD
ATOM     13  H   UNL     1      46.544   5.026   9.321  0.00  0.00    +0.000 HD
ENDBRANCH   1  10
BRANCH   5  14
ATOM     14  C   UNL     1      47.208   4.402  16.358  0.00  0.00    +0.000 C 
BRANCH  14  15
ATOM     15  C   UNL     1      48.613   4.688  16.846  0.00  0.00    +0.000 A 
ATOM     16  C   UNL     1      48.939   6.021  17.144  0.00  0.00    +0.000 A 
ATOM     17  C   UNL     1      50.211   6.358  17.595  0.00  0.00    +0.000 A 
ATOM     18  C   UNL     1      51.172   5.365  17.774  0.00  0.00    +0.000 A 
ATOM     19  C   UNL     1      50.883   4.010  17.527  0.00  0.00    +0.000 A 
ATOM     20  C   UNL     1      49.597   3.702  17.036  0.00  0.00    +0.000 A 
BRANCH  19  21
ATOM     21  C   UNL     1      51.863   2.946  17.847  0.00  0.00    +0.000 A 
ATOM     22  C   UNL     1      53.000   3.223  18.621  0.00  0.00    +0.000 A 
ATOM     23  C   UNL     1      53.868   2.197  18.961  0.00  0.00    +0.000 A 
ATOM     24  N   UNL     1      53.691   0.915  18.593  0.00  0.00    +0.000 NA
ATOM     25  C   UNL     1      52.599   0.651  17.849  0.00  0.00    +0.000 A 
ATOM     26  C   UNL     1      51.680   1.614  17.451  0.00  0.00    +0.000 A 
ENDBRANCH  19  21
ENDBRANCH  14  15
ENDBRANCH   5  14
TORSDOF 4
ENDMDL
MODEL 9
REMARK VINA RESULT:    -6.415      6.040      8.520
REMARK INTER + INTRA:          -8.705
REMARK INTER:                  -8.076
REMARK INTRA:                  -0.629
REMARK UNBOUND:                -0.790
REMARK  Name = 
REMARK  4 active torsions:
REMARK  status: ('A' for Active; 'I' for Inactive)
REMARK    1  A    between atoms: C_2  and  C_4
REMARK    2  A    between atoms: N_8  and  C_9
REMARK    3  A    between atoms: C_9  and  C_10
REMARK    4  A    between atoms: C_14  and  C_15
REMARK                            x       y       z     vdW  Elec       q    Type
REMARK                         _______ _______ _______ _____ _____    ______ ____
ROOT
ATOM      1  C   UNL     1      52.021   2.108  17.764  0.00  0.00    +0.000 A 
ATOM      2  C   UNL     1      51.635   3.374  18.185  0.00  0.00    +0.000 A 
ATOM      3  C   UNL     1      50.370   3.849  17.840  0.00  0.00    +0.000 A 
ATOM      4  C   UNL     1      49.520   3.062  17.070  0.00  0.00    +0.000 A 
ATOM      5  N   UNL     1      48.225   3.407  16.768  0.00  0.00    +0.000 N 
ATOM      6  N   UNL     1      49.902   1.849  16.623  0.00  0.00    +0.000 NA
ATOM      7  C   UNL     1      51.140   1.399  16.965  0.00  0.00    +0.000 A 
ATOM      8  H   UNL     1      47.818   2.724  16.137  0.00  0.00    +0.000 HD
ENDROOT
BRANCH   1  10
ATOM      9  N   UNL     1      53.877   0.640  17.239  0.00  0.00    +0.000 N 
ATOM     10  C   UNL     1      53.311   1.498  18.144  0.00  0.00    +0.000 C 
ATOM     11  O   UNL     1      53.870   1.778  19.191  0.00  0.00    +0.000 OA
ATOM     12  H   UNL     1      54.814   0.317  17.454  0.00  0.00    +0.000 HD
ATOM     13  H   UNL     1      53.578   0.590  16.276  0.00  0.00    +0.000 HD
ENDBRANCH   1  10
BRANCH   5  14
ATOM     14  C   UNL     1      47.758   4.768  16.632  0.00  0.00    +0.000 C 
BRANCH  14  15
ATOM     15  C   UNL     1      47.535   5.236  15.209  0.00  0.00    +0.000 A 
ATOM     16  C   UNL     1      48.387   6.235  14.712  0.00  0.00    +0.000 A 
ATOM     17  C   UNL     1      48.240   6.714  13.414  0.00  0.00    +0.000 A 
ATOM     18  C   UNL     1      47.250   6.189  12.586  0.00  0.00    +0.000 A 
ATOM     19  C   UNL     1      46.396   5.160  13.024  0.00  0.00    +0.000 A 
ATOM     20  C   UNL     1      46.544   4.719  14.356  0.00  0.00    +0.000 A 
BRANCH  19  21
ATOM     21  C   UNL     1      45.436   4.513  12.099  0.00  0.00    +0.000 A 
ATOM     22  C   UNL     1      44.659   3.422  12.516  0.00  0.00    +0.000 A 
ATOM     23  C   UNL     1      43.722   2.875  11.654  0.00  0.00    +0.000 A 
ATOM     24  N   UNL     1      43.495   3.331  10.408  0.00  0.00    +0.000 NA
ATOM     25  C   UNL     1      44.244   4.378  10.009  0.00  0.00    +0.000 A 
ATOM     26  C   UNL     1      45.213   4.985  10.798  0.00  0.00    +0.000 A 
ENDBRANCH  19  21
ENDBRANCH  14  15
ENDBRANCH   5  14
TORSDOF 4
ENDMDL
