MODEL 1
REMARK VINA RESULT:    -8.292      0.000      0.000
REMARK INTER + INTRA:         -10.701
REMARK INTER:                 -10.231
REMARK INTRA:                  -0.470
REMARK UNBOUND:                -0.470
REMARK  Name = 
REMARK  5 active torsions:
REMARK  status: ('A' for Active; 'I' for Inactive)
REMARK    1  A    between atoms: C_1  and  C_2
REMARK    2  A    between atoms: C_2  and  C_3
REMARK    3  A    between atoms: C_2  and  C_14
REMARK    4  A    between atoms: C_3  and  N_4
REMARK    5  A    between atoms: C_8  and  C_9
REMARK                            x       y       z     vdW  Elec       q    Type
REMARK                         _______ _______ _______ _____ _____    ______ ____
ROOT
ATOM      1  N   UNL     1      43.679   4.469   9.582  0.00  0.00    +0.000 N 
ATOM      2  C   UNL     1      44.678   3.798   8.889  0.00  0.00    +0.000 A 
ATOM      3  N   UNL     1      44.871   2.490   9.102  0.00  0.00    +0.000 NA
ATOM      4  C   UNL     1      45.880   1.895   8.435  0.00  0.00    +0.000 A 
ATOM      5  C   UNL     1      46.691   2.552   7.544  0.00  0.00    +0.000 A 
ATOM      6  C   UNL     1      46.415   3.890   7.386  0.00  0.00    +0.000 A 
ATOM      7  N   UNL     1      45.421   4.533   8.046  0.00  0.00    +0.000 NA
ATOM      8  H   UNL     1      43.933   5.449   9.591  0.00  0.00    +0.000 HD
ENDROOT
BRANCH   5   9
ATOM      9  C   UNL     1      47.784   1.830   6.884  0.00  0.00    +0.000 C 
ATOM     10  N   UNL     1      48.660   2.541   6.112  0.00  0.00    +0.000 N 
ATOM     11  O   UNL     1      47.890   0.616   6.996  0.00  0.00    +0.000 OA
ATOM     12  H   UNL     1      48.489   3.482   5.790  0.00  0.00    +0.000 HD
ATOM     13  H   UNL     1      49.329   1.988   5.589  0.00  0.00    +0.000 HD
ENDBRANCH   5   9
BRANCH   1  14
ATOM     14  C   UNL     1      43.405   3.892  10.884  0.00  0.00    +0.000 C 
BRANCH  14  16
ATOM     15  C   UNL     1      42.418   5.958  12.040  0.00  0.00    +0.000 C 
ATOM     16  C   UNL     1      43.548   4.985  11.903  0.00  0.00    +0.000 C 
BRANCH  16  17
ATOM     17  C   UNL     1      44.883   5.307  12.431  0.00  0.00    +0.000 A 
ATOM     18  C   UNL     1      45.721   6.184  11.731  0.00  0.00    +0.000 A 
ATOM     19  C   UNL     1      47.030   6.414  12.156  0.00  0.00    +0.000 A 
ATOM     20  C   UNL     1      47.512   5.784  13.300  0.00  0.00    +0.000 A 
ATOM     21  C   UNL     1      46.671   4.946  14.029  0.00  0.00    +0.000 A 
ATOM     22 CL   UNL     1      47.260   4.179  15.453  0.00  0.00    +0.000 Cl
ATOM     23  C   UNL     1      45.363   4.708  13.603  0.00  0.00    +0.000 A 
ENDBRANCH  16  17
ENDBRANCH  14  16
ENDBRANCH   1  14
TORSDOF 4
ENDMDL
MODEL 2
REMARK VINA RESULT:    -8.090      1.665      2.208
REMARK INTER + INTRA:         -10.452
REMARK INTER:                 -10.026
REMARK INTRA:                  -0.426
REMARK UNBOUND:                -0.470
REMARK  Name = 
REMARK  5 active torsions:
REMARK  status: ('A' for Active; 'I' for Inactive)
REMARK    1  A    between atoms: C_1  and  C_2
REMARK    2  A    between atoms: C_2  and  C_3
REMARK    3  A    between atoms: C_2  and  C_14
REMARK    4  A    between atoms: C_3  and  N_4
REMARK    5  A    between atoms: C_8  and  C_9
REMARK                            x       y       z     vdW  Elec       q    Type
REMARK                         _______ _______ _______ _____ _____    ______ ____
ROOT
ATOM      1  N   UNL     1      44.144   5.017   9.781  0.00  0.00    +0.000 N 
ATOM      2  C   UNL     1      44.917   4.119   9.056  0.00  0.00    +0.000 A 
ATOM      3  N   UNL     1      44.855   2.811   9.338  0.00  0.00    +0.000 NA
ATOM      4  C   UNL     1      45.655   1.986   8.633  0.00  0.00    +0.000 A 
ATOM      5  C   UNL     1      46.500   2.415   7.640  0.00  0.00    +0.000 A 
ATOM      6  C   UNL     1      46.492   3.772   7.418  0.00  0.00    +0.000 A 
ATOM      7  N   UNL     1      45.716   4.641   8.111  0.00  0.00    +0.000 NA
ATOM      8  H   UNL     1      44.595   5.921   9.706  0.00  0.00    +0.000 HD
ENDROOT
BRANCH   5   9
ATOM      9  C   UNL     1      47.356   1.448   6.945  0.00  0.00    +0.000 C 
ATOM     10  N   UNL     1      48.396   1.923   6.195  0.00  0.00    +0.000 N 
ATOM     11  O   UNL     1      47.125   0.248   7.008  0.00  0.00    +0.000 OA
ATOM     12  H   UNL     1      48.489   2.887   5.911  0.00  0.00    +0.000 HD
ATOM     13  H   UNL     1      48.890   1.229   5.645  0.00  0.00    +0.000 HD
ENDBRANCH   5   9
BRANCH   1  14
ATOM     14  C   UNL     1      43.877   4.573  11.135  0.00  0.00    +0.000 C 
BRANCH  14  16
ATOM     15  C   UNL     1      45.580   3.580  12.777  0.00  0.00    +0.000 C 
ATOM     16  C   UNL     1      45.145   4.731  11.922  0.00  0.00    +0.000 C 
BRANCH  16  17
ATOM     17  C   UNL     1      45.691   6.078  12.146  0.00  0.00    +0.000 A 
ATOM     18  C   UNL     1      44.855   7.108  12.597  0.00  0.00    +0.000 A 
ATOM     19  C   UNL     1      45.327   8.416  12.707  0.00  0.00    +0.000 A 
ATOM     20  C   UNL     1      46.651   8.708  12.387  0.00  0.00    +0.000 A 
ATOM     21  C   UNL     1      47.502   7.684  11.982  0.00  0.00    +0.000 A 
ATOM     22 CL   UNL     1      49.142   8.041  11.602  0.00  0.00    +0.000 Cl
ATOM     23  C   UNL     1      47.032   6.375  11.864  0.00  0.00    +0.000 A 
ENDBRANCH  16  17
ENDBRANCH  14  16
ENDBRANCH   1  14
TORSDOF 4
ENDMDL
MODEL 3
REMARK VINA RESULT:    -8.089      1.199      1.598
REMARK INTER + INTRA:         -10.451
REMARK INTER:                  -9.960
REMARK INTRA:                  -0.491
REMARK UNBOUND:                -0.470
REMARK  Name = 
REMARK  5 active torsions:
REMARK  status: ('A' for Active; 'I' for Inactive)
REMARK    1  A    between atoms: C_1  and  C_2
REMARK    2  A    between atoms: C_2  and  C_3
REMARK    3  A    between atoms: C_2  and  C_14
REMARK    4  A    between atoms: C_3  and  N_4
REMARK    5  A    between atoms: C_8  and  C_9
REMARK                            x       y       z     vdW  Elec       q    Type
REMARK                         _______ _______ _______ _____ _____    ______ ____
ROOT
ATOM      1  N   UNL     1      43.802   4.596   9.707  0.00  0.00    +0.000 N 
ATOM      2  C   UNL     1      44.761   3.915   8.970  0.00  0.00    +0.000 A 
ATOM      3  N   UNL     1      44.846   2.582   9.062  0.00  0.00    +0.000 NA
ATOM      4  C   UNL     1      45.821   1.972   8.357  0.00  0.00    +0.000 A 
ATOM      5  C   UNL     1      46.702   2.642   7.545  0.00  0.00    +0.000 A 
ATOM      6  C   UNL     1      46.535   4.007   7.510  0.00  0.00    +0.000 A 
ATOM      7  N   UNL     1      45.579   4.664   8.212  0.00  0.00    +0.000 NA
ATOM      8  H   UNL     1      44.132   5.548   9.813  0.00  0.00    +0.000 HD
ENDROOT
BRANCH   5   9
ATOM      9  C   UNL     1      47.750   1.899   6.838  0.00  0.00    +0.000 C 
ATOM     10  N   UNL     1      48.658   2.603   6.098  0.00  0.00    +0.000 N 
ATOM     11  O   UNL     1      47.790   0.677   6.883  0.00  0.00    +0.000 OA
ATOM     12  H   UNL     1      48.537   3.568   5.829  0.00  0.00    +0.000 HD
ATOM     13  H   UNL     1      49.293   2.044   5.539  0.00  0.00    +0.000 HD
ENDBRANCH   5   9
BRANCH   1  14
ATOM     14  C   UNL     1      43.454   3.925  10.945  0.00  0.00    +0.000 C 
BRANCH  14  16
ATOM     15  C   UNL     1      42.495   5.816  12.389  0.00  0.00    +0.000 C 
ATOM     16  C   UNL     1      43.641   4.908  12.062  0.00  0.00    +0.000 C 
BRANCH  16  17
ATOM     17  C   UNL     1      45.002   5.227  12.521  0.00  0.00    +0.000 A 
ATOM     18  C   UNL     1      45.618   4.433  13.497  0.00  0.00    +0.000 A 
ATOM     19  C   UNL     1      46.860   4.784  14.026  0.00  0.00    +0.000 A 
ATOM     20  C   UNL     1      47.515   5.925  13.568  0.00  0.00    +0.000 A 
ATOM     21  C   UNL     1      46.932   6.695  12.565  0.00  0.00    +0.000 A 
ATOM     22 CL   UNL     1      47.748   8.096  11.986  0.00  0.00    +0.000 Cl
ATOM     23  C   UNL     1      45.686   6.351  12.039  0.00  0.00    +0.000 A 
ENDBRANCH  16  17
ENDBRANCH  14  16
ENDBRANCH   1  14
TORSDOF 4
ENDMDL
MODEL 4
REMARK VINA RESULT:    -7.828      3.724      5.880
REMARK INTER + INTRA:         -10.128
REMARK INTER:                  -9.526
REMARK INTRA:                  -0.603
REMARK UNBOUND:                -0.470
REMARK  Name = 
REMARK  5 active torsions:
REMARK  status: ('A' for Active; 'I' for Inactive)
REMARK    1  A    between atoms: C_1  and  C_2
REMARK    2  A    between atoms: C_2  and  C_3
REMARK    3  A    between atoms: C_2  and  C_14
REMARK    4  A    between atoms: C_3  and  N_4
REMARK    5  A    between atoms: C_8  and  C_9
REMARK                            x       y       z     vdW  Elec       q    Type
REMARK                         _______ _______ _______ _____ _____    ______ ____
ROOT
ATOM      1  N   UNL     1      43.806   5.135  12.157  0.00  0.00    +0.000 N 
ATOM      2  C   UNL     1      45.094   5.577  12.428  0.00  0.00    +0.000 A 
ATOM      3  N   UNL     1      45.742   6.327  11.528  0.00  0.00    +0.000 NA
ATOM      4  C   UNL     1      47.005   6.696  11.821  0.00  0.00    +0.000 A 
ATOM      5  C   UNL     1      47.640   6.363  12.992  0.00  0.00    +0.000 A 
ATOM      6  C   UNL     1      46.896   5.596  13.857  0.00  0.00    +0.000 A 
ATOM      7  N   UNL     1      45.629   5.189  13.598  0.00  0.00    +0.000 NA
ATOM      8  H   UNL     1      43.651   4.312  12.727  0.00  0.00    +0.000 HD
ENDROOT
BRANCH   5   9
ATOM      9  C   UNL     1      49.028   6.785  13.214  0.00  0.00    +0.000 C 
ATOM     10  N   UNL     1      49.766   7.180  12.134  0.00  0.00    +0.000 N 
ATOM     11  O   UNL     1      49.521   6.753  14.333  0.00  0.00    +0.000 OA
ATOM     12  H   UNL     1      49.501   7.001  11.176  0.00  0.00    +0.000 HD
ATOM     13  H   UNL     1      50.748   7.355  12.316  0.00  0.00    +0.000 HD
ENDBRANCH   5   9
BRANCH   1  14
ATOM     14  C   UNL     1      43.552   4.959  10.740  0.00  0.00    +0.000 C 
BRANCH  14  16
ATOM     15  C   UNL     1      43.490   2.471  11.359  0.00  0.00    +0.000 C 
ATOM     16  C   UNL     1      43.894   3.540  10.391  0.00  0.00    +0.000 C 
BRANCH  16  17
ATOM     17  C   UNL     1      44.916   3.276   9.366  0.00  0.00    +0.000 A 
ATOM     18  C   UNL     1      45.440   4.332   8.610  0.00  0.00    +0.000 A 
ATOM     19  C   UNL     1      46.325   4.089   7.559  0.00  0.00    +0.000 A 
ATOM     20  C   UNL     1      46.714   2.784   7.264  0.00  0.00    +0.000 A 
ATOM     21  C   UNL     1      46.234   1.732   8.040  0.00  0.00    +0.000 A 
ATOM     22 CL   UNL     1      46.728   0.121   7.687  0.00  0.00    +0.000 Cl
ATOM     23  C   UNL     1      45.344   1.971   9.087  0.00  0.00    +0.000 A 
ENDBRANCH  16  17
ENDBRANCH  14  16
ENDBRANCH   1  14
TORSDOF 4
ENDMDL
MODEL 5
REMARK VINA RESULT:    -6.756      4.359      6.692
REMARK INTER + INTRA:          -8.807
REMARK INTER:                  -8.454
REMARK INTRA:                  -0.353
REMARK UNBOUND:                -0.470
REMARK  Name = 
REMARK  5 active torsions:
REMARK  status: ('A' for Active; 'I' for Inactive)
REMARK    1  A    between atoms: C_1  and  C_2
REMARK    2  A    between atoms: C_2  and  C_3
REMARK    3  A    between atoms: C_2  and  C_14
REMARK    4  A    between atoms: C_3  and  N_4
REMARK    5  A    between atoms: C_8  and  C_9
REMARK                            x       y       z     vdW  Elec       q    Type
REMARK                         _______ _______ _______ _____ _____    ______ ____
ROOT
ATOM      1  N   UNL     1      45.554   5.185  11.738  0.00  0.00    +0.000 N 
ATOM      2  C   UNL     1      45.998   6.485  11.939  0.00  0.00    +0.000 A 
ATOM      3  N   UNL     1      45.119   7.495  11.937  0.00  0.00    +0.000 NA
ATOM      4  C   UNL     1      45.607   8.742  12.096  0.00  0.00    +0.000 A 
ATOM      5  C   UNL     1      46.939   9.018  12.278  0.00  0.00    +0.000 A 
ATOM      6  C   UNL     1      47.765   7.919  12.270  0.00  0.00    +0.000 A 
ATOM      7  N   UNL     1      47.322   6.649  12.100  0.00  0.00    +0.000 NA
ATOM      8  H   UNL     1      46.343   4.653  11.393  0.00  0.00    +0.000 HD
ENDROOT
BRANCH   5   9
ATOM      9  C   UNL     1      47.383  10.410  12.413  0.00  0.00    +0.000 C 
ATOM     10  N   UNL     1      48.279  10.712  13.400  0.00  0.00    +0.000 N 
ATOM     11  O   UNL     1      46.936  11.283  11.682  0.00  0.00    +0.000 OA
ATOM     12  H   UNL     1      48.493  10.098  14.172  0.00  0.00    +0.000 HD
ATOM     13  H   UNL     1      48.471  11.699  13.528  0.00  0.00    +0.000 HD
ENDBRANCH   5   9
BRANCH   1  14
ATOM     14  C   UNL     1      44.358   5.113  10.920  0.00  0.00    +0.000 C 
BRANCH  14  16
ATOM     15  C   UNL     1      43.575   2.686  11.196  0.00  0.00    +0.000 C 
ATOM     16  C   UNL     1      44.271   3.721  10.366  0.00  0.00    +0.000 C 
BRANCH  16  17
ATOM     17  C   UNL     1      45.171   3.323   9.273  0.00  0.00    +0.000 A 
ATOM     18  C   UNL     1      45.665   4.286   8.384  0.00  0.00    +0.000 A 
ATOM     19  C   UNL     1      46.427   3.914   7.276  0.00  0.00    +0.000 A 
ATOM     20  C   UNL     1      46.723   2.572   7.054  0.00  0.00    +0.000 A 
ATOM     21  C   UNL     1      46.276   1.611   7.957  0.00  0.00    +0.000 A 
ATOM     22 CL   UNL     1      46.656  -0.047   7.692  0.00  0.00    +0.000 Cl
ATOM     23  C   UNL     1      45.508   1.978   9.063  0.00  0.00    +0.000 A 
ENDBRANCH  16  17
ENDBRANCH  14  16
ENDBRANCH   1  14
TORSDOF 4
ENDMDL
MODEL 6
REMARK VINA RESULT:    -6.652      5.203      7.522
REMARK INTER + INTRA:          -8.678
REMARK INTER:                  -8.351
REMARK INTRA:                  -0.327
REMARK UNBOUND:                -0.470
REMARK  Name = 
REMARK  5 active torsions:
REMARK  status: ('A' for Active; 'I' for Inactive)
REMARK    1  A    between atoms: C_1  and  C_2
REMARK    2  A    between atoms: C_2  and  C_3
REMARK    3  A    between atoms: C_2  and  C_14
REMARK    4  A    between atoms: C_3  and  N_4
REMARK    5  A    between atoms: C_8  and  C_9
REMARK                            x       y       z     vdW  Elec       q    Type
REMARK                         _______ _______ _______ _____ _____    ______ ____
ROOT
ATOM      1  N   UNL     1      46.908   5.506  13.233  0.00  0.00    +0.000 N 
ATOM      2  C   UNL     1      47.322   5.198  14.522  0.00  0.00    +0.000 A 
ATOM      3  N   UNL     1      46.740   4.190  15.184  0.00  0.00    +0.000 NA
ATOM      4  C   UNL     1      47.150   3.959  16.447  0.00  0.00    +0.000 A 
ATOM      5  C   UNL     1      48.136   4.683  17.069  0.00  0.00    +0.000 A 
ATOM      6  C   UNL     1      48.678   5.694  16.312  0.00  0.00    +0.000 A 
ATOM      7  N   UNL     1      48.288   5.972  15.043  0.00  0.00    +0.000 NA
ATOM      8  H   UNL     1      47.158   6.473  13.066  0.00  0.00    +0.000 HD
ENDROOT
BRANCH   5   9
ATOM      9  C   UNL     1      48.497   4.379  18.458  0.00  0.00    +0.000 C 
ATOM     10  N   UNL     1      48.304   3.105  18.915  0.00  0.00    +0.000 N 
ATOM     11  O   UNL     1      48.929   5.252  19.199  0.00  0.00    +0.000 OA
ATOM     12  H   UNL     1      47.737   2.418  18.440  0.00  0.00    +0.000 HD
ATOM     13  H   UNL     1      48.461   2.969  19.907  0.00  0.00    +0.000 HD
ENDBRANCH   5   9
BRANCH   1  14
ATOM     14  C   UNL     1      45.517   5.177  12.989  0.00  0.00    +0.000 C 
BRANCH  14  16
ATOM     15  C   UNL     1      44.621   6.998  11.420  0.00  0.00    +0.000 C 
ATOM     16  C   UNL     1      45.184   5.621  11.595  0.00  0.00    +0.000 C 
BRANCH  16  17
ATOM     17  C   UNL     1      45.040   4.614  10.533  0.00  0.00    +0.000 A 
ATOM     18  C   UNL     1      44.299   3.449  10.767  0.00  0.00    +0.000 A 
ATOM     19  C   UNL     1      44.246   2.431   9.813  0.00  0.00    +0.000 A 
ATOM     20  C   UNL     1      44.918   2.576   8.602  0.00  0.00    +0.000 A 
ATOM     21  C   UNL     1      45.620   3.750   8.342  0.00  0.00    +0.000 A 
ATOM     22 CL   UNL     1      46.437   3.937   6.838  0.00  0.00    +0.000 Cl
ATOM     23  C   UNL     1      45.681   4.767   9.295  0.00  0.00    +0.000 A 
ENDBRANCH  16  17
ENDBRANCH  14  16
ENDBRANCH   1  14
TORSDOF 4
ENDMDL
MODEL 7
REMARK VINA RESULT:    -6.537      4.692      6.540
REMARK INTER + INTRA:          -8.536
REMARK INTER:                  -8.202
REMARK INTRA:                  -0.334
REMARK UNBOUND:                -0.470
REMARK  Name = 
REMARK  5 active torsions:
REMARK  status: ('A' for Active; 'I' for Inactive)
REMARK    1  A    between atoms: C_1  and  C_2
REMARK    2  A    between atoms: C_2  and  C_3
REMARK    3  A    between atoms: C_2  and  C_14
REMARK    4  A    between atoms: C_3  and  N_4
REMARK    5  A    between atoms: C_8  and  C_9
REMARK                            x       y       z     vdW  Elec       q    Type
REMARK                         _______ _______ _______ _____ _____    ______ ____
ROOT
ATOM      1  N   UNL     1      47.403   3.337  14.603  0.00  0.00    +0.000 N 
ATOM      2  C   UNL     1      46.491   3.822  13.676  0.00  0.00    +0.000 A 
ATOM      3  N   UNL     1      46.240   5.136  13.614  0.00  0.00    +0.000 NA
ATOM      4  C   UNL     1      45.316   5.550  12.724  0.00  0.00    +0.000 A 
ATOM      5  C   UNL     1      44.647   4.704  11.876  0.00  0.00    +0.000 A 
ATOM      6  C   UNL     1      44.973   3.374  12.007  0.00  0.00    +0.000 A 
ATOM      7  N   UNL     1      45.884   2.910  12.897  0.00  0.00    +0.000 NA
ATOM      8  H   UNL     1      47.172   2.364  14.763  0.00  0.00    +0.000 HD
ENDROOT
BRANCH   5   9
ATOM      9  C   UNL     1      43.635   5.241  10.959  0.00  0.00    +0.000 C 
ATOM     10  N   UNL     1      43.757   4.967   9.625  0.00  0.00    +0.000 N 
ATOM     11  O   UNL     1      42.724   5.944  11.374  0.00  0.00    +0.000 OA
ATOM     12  H   UNL     1      44.599   4.608   9.200  0.00  0.00    +0.000 HD
ATOM     13  H   UNL     1      43.103   5.449   9.019  0.00  0.00    +0.000 HD
ENDBRANCH   5   9
BRANCH   1  14
ATOM     14  C   UNL     1      47.486   4.154  15.799  0.00  0.00    +0.000 C 
BRANCH  14  16
ATOM     15  C   UNL     1      47.000   2.691  17.849  0.00  0.00    +0.000 C 
ATOM     16  C   UNL     1      48.002   3.284  16.907  0.00  0.00    +0.000 C 
BRANCH  16  17
ATOM     17  C   UNL     1      49.425   3.354  17.274  0.00  0.00    +0.000 A 
ATOM     18  C   UNL     1      50.025   4.595  17.524  0.00  0.00    +0.000 A 
ATOM     19  C   UNL     1      51.396   4.692  17.762  0.00  0.00    +0.000 A 
ATOM     20  C   UNL     1      52.184   3.543  17.775  0.00  0.00    +0.000 A 
ATOM     21  C   UNL     1      51.589   2.300  17.573  0.00  0.00    +0.000 A 
ATOM     22 CL   UNL     1      52.559   0.878  17.606  0.00  0.00    +0.000 Cl
ATOM     23  C   UNL     1      50.219   2.200  17.328  0.00  0.00    +0.000 A 
ENDBRANCH  16  17
ENDBRANCH  14  16
ENDBRANCH   1  14
TORSDOF 4
ENDMDL
MODEL 8
REMARK VINA RESULT:    -6.405      4.524      6.313
REMARK INTER + INTRA:          -8.373
REMARK INTER:                  -8.038
REMARK INTRA:                  -0.335
REMARK UNBOUND:                -0.470
REMARK  Name = 
REMARK  5 active torsions:
REMARK  status: ('A' for Active; 'I' for Inactive)
REMARK    1  A    between atoms: C_1  and  C_2
REMARK    2  A    between atoms: C_2  and  C_3
REMARK    3  A    between atoms: C_2  and  C_14
REMARK    4  A    between atoms: C_3  and  N_4
REMARK    5  A    between atoms: C_8  and  C_9
REMARK                            x       y       z     vdW  Elec       q    Type
REMARK                         _______ _______ _______ _____ _____    ______ ____
ROOT
ATOM      1  N   UNL     1      47.130   5.095  15.229  0.00  0.00    +0.000 N 
ATOM      2  C   UNL     1      46.608   5.104  13.942  0.00  0.00    +0.000 A 
ATOM      3  N   UNL     1      45.866   4.072  13.519  0.00  0.00    +0.000 NA
ATOM      4  C   UNL     1      45.416   4.111  12.249  0.00  0.00    +0.000 A 
ATOM      5  C   UNL     1      45.661   5.153  11.389  0.00  0.00    +0.000 A 
ATOM      6  C   UNL     1      46.426   6.168  11.912  0.00  0.00    +0.000 A 
ATOM      7  N   UNL     1      46.911   6.166  13.178  0.00  0.00    +0.000 NA
ATOM      8  H   UNL     1      47.933   5.713  15.225  0.00  0.00    +0.000 HD
ENDROOT
BRANCH   5   9
ATOM      9  C   UNL     1      45.155   5.095  10.013  0.00  0.00    +0.000 C 
ATOM     10  N   UNL     1      43.840   4.781   9.818  0.00  0.00    +0.000 N 
ATOM     11  O   UNL     1      45.901   5.292   9.064  0.00  0.00    +0.000 OA
ATOM     12  H   UNL     1      43.246   4.378  10.529  0.00  0.00    +0.000 HD
ATOM     13  H   UNL     1      43.562   4.643   8.853  0.00  0.00    +0.000 HD
ENDBRANCH   5   9
BRANCH   1  14
ATOM     14  C   UNL     1      47.384   3.758  15.730  0.00  0.00    +0.000 C 
BRANCH  14  16
ATOM     15  C   UNL     1      47.388   4.815  18.067  0.00  0.00    +0.000 C 
ATOM     16  C   UNL     1      48.032   3.895  17.076  0.00  0.00    +0.000 C 
BRANCH  16  17
ATOM     17  C   UNL     1      49.428   3.465  17.251  0.00  0.00    +0.000 A 
ATOM     18  C   UNL     1      49.784   2.129  17.028  0.00  0.00    +0.000 A 
ATOM     19  C   UNL     1      51.077   1.679  17.297  0.00  0.00    +0.000 A 
ATOM     20  C   UNL     1      52.039   2.566  17.774  0.00  0.00    +0.000 A 
ATOM     21  C   UNL     1      51.707   3.907  17.955  0.00  0.00    +0.000 A 
ATOM     22 CL   UNL     1      52.899   5.008  18.528  0.00  0.00    +0.000 Cl
ATOM     23  C   UNL     1      50.413   4.359  17.693  0.00  0.00    +0.000 A 
ENDBRANCH  16  17
ENDBRANCH  14  16
ENDBRANCH   1  14
TORSDOF 4
ENDMDL
MODEL 9
REMARK VINA RESULT:    -6.213      5.338      7.709
REMARK INTER + INTRA:          -8.136
REMARK INTER:                  -7.790
REMARK INTRA:                  -0.346
REMARK UNBOUND:                -0.470
REMARK  Name = 
REMARK  5 active torsions:
REMARK  status: ('A' for Active; 'I' for Inactive)
REMARK    1  A    between atoms: C_1  and  C_2
REMARK    2  A    between atoms: C_2  and  C_3
REMARK    3  A    between atoms: C_2  and  C_14
REMARK    4  A    between atoms: C_3  and  N_4
REMARK    5  A    between atoms: C_8  and  C_9
REMARK                            x       y       z     vdW  Elec       q    Type
REMARK                         _______ _______ _______ _____ _____    ______ ____
ROOT
ATOM      1  N   UNL     1      47.048   4.759  13.740  0.00  0.00    +0.000 N 
ATOM      2  C   UNL     1      47.497   4.561  15.039  0.00  0.00    +0.000 A 
ATOM      3  N   UNL     1      47.868   5.612  15.781  0.00  0.00    +0.000 NA
ATOM      4  C   UNL     1      48.334   5.362  17.021  0.00  0.00    +0.000 A 
ATOM      5  C   UNL     1      48.424   4.102  17.558  0.00  0.00    +0.000 A 
ATOM      6  C   UNL     1      48.016   3.087  16.726  0.00  0.00    +0.000 A 
ATOM      7  N   UNL     1      47.554   3.289  15.467  0.00  0.00    +0.000 NA
ATOM      8  H   UNL     1      47.191   3.889  13.243  0.00  0.00    +0.000 HD
ENDROOT
BRANCH   5   9
ATOM      9  C   UNL     1      48.972   3.923  18.907  0.00  0.00    +0.000 C 
ATOM     10  N   UNL     1      48.373   3.016  19.736  0.00  0.00    +0.000 N 
ATOM     11  O   UNL     1      49.921   4.592  19.291  0.00  0.00    +0.000 OA
ATOM     12  H   UNL     1      47.460   2.620  19.569  0.00  0.00    +0.000 HD
ATOM     13  H   UNL     1      48.713   3.005  20.691  0.00  0.00    +0.000 HD
ENDBRANCH   5   9
BRANCH   1  14
ATOM     14  C   UNL     1      47.628   5.930  13.111  0.00  0.00    +0.000 C 
BRANCH  14  16
ATOM     15  C   UNL     1      46.342   8.149  13.041  0.00  0.00    +0.000 C 
ATOM     16  C   UNL     1      46.501   6.745  12.545  0.00  0.00    +0.000 C 
BRANCH  16  17
ATOM     17  C   UNL     1      45.393   6.062  11.859  0.00  0.00    +0.000 A 
ATOM     18  C   UNL     1      44.161   5.903  12.504  0.00  0.00    +0.000 A 
ATOM     19  C   UNL     1      43.136   5.161  11.916  0.00  0.00    +0.000 A 
ATOM     20  C   UNL     1      43.324   4.586  10.661  0.00  0.00    +0.000 A 
ATOM     21  C   UNL     1      44.530   4.777   9.992  0.00  0.00    +0.000 A 
ATOM     22 CL   UNL     1      44.758   4.081   8.434  0.00  0.00    +0.000 Cl
ATOM     23  C   UNL     1      45.560   5.513  10.580  0.00  0.00    +0.000 A 
ENDBRANCH  16  17
ENDBRANCH  14  16
ENDBRANCH   1  14
TORSDOF 4
ENDMDL
