MODEL 1
REMARK VINA RESULT:    -8.302      0.000      0.000
REMARK INTER + INTRA:         -12.969
REMARK INTER:                 -11.942
REMARK INTRA:                  -1.027
REMARK UNBOUND:                -1.027
REMARK  Name = 
REMARK  8 active torsions:
REMARK  status: ('A' for Active; 'I' for Inactive)
REMARK    1  A    between atoms: C_2  and  C_3
REMARK    2  A    between atoms: N_7  and  C_8
REMARK    3  A    between atoms: C_8  and  C_9
REMARK    4  A    between atoms: C_9  and  C_10
REMARK    5  A    between atoms: C_9  and  C_12
REMARK    6  A    between atoms: C_10  and  O_11
REMARK    7  A    between atoms: C_16  and  N_17
REMARK    8  A    between atoms: N_17  and  C_18
REMARK                            x       y       z     vdW  Elec       q    Type
REMARK                         _______ _______ _______ _____ _____    ______ ____
ROOT
ATOM      1  C   UNL     1      43.939   4.878  12.222  0.00  0.00    +0.000 C 
ENDROOT
BRANCH   1   2
ATOM      2  C   UNL     1      45.347   5.346  12.574  0.00  0.00    +0.000 A 
ATOM      3  C   UNL     1      46.090   6.102  11.658  0.00  0.00    +0.000 A 
ATOM      4  C   UNL     1      47.364   6.565  11.993  0.00  0.00    +0.000 A 
ATOM      5  C   UNL     1      47.921   6.268  13.241  0.00  0.00    +0.000 A 
ATOM      6  C   UNL     1      47.205   5.518  14.173  0.00  0.00    +0.000 A 
ATOM      7  C   UNL     1      45.923   5.064  13.826  0.00  0.00    +0.000 A 
BRANCH   6   8
ATOM      8  N   UNL     1      47.707   5.181  15.446  0.00  0.00    +0.000 N 
ATOM      9  H   UNL     1      48.727   5.171  15.434  0.00  0.00    +0.000 HD
BRANCH   8  10
ATOM     10  C   UNL     1      47.131   4.255  16.383  0.00  0.00    +0.000 C 
ATOM     11  C   UNL     1      47.300   4.720  17.849  0.00  0.00    +0.000 C 
ATOM     12  N   UNL     1      47.663   3.335  18.223  0.00  0.00    +0.000 NA
ATOM     13  C   UNL     1      48.011   3.064  16.807  0.00  0.00    +0.000 C 
ATOM     14  H   UNL     1      46.865   2.792  18.556  0.00  0.00    +0.000 HD
ENDBRANCH   8  10
ENDBRANCH   6   8
ENDBRANCH   1   2
BRANCH   1  15
ATOM     15  C   UNL     1      43.655   5.007  10.704  0.00  0.00    +0.000 C 
BRANCH  15  20
ATOM     16  C   UNL     1      46.674   2.497   7.443  0.00  0.00    +0.000 A 
ATOM     17  C   UNL     1      46.324   3.842   7.466  0.00  0.00    +0.000 A 
ATOM     18  C   UNL     1      45.334   4.276   8.351  0.00  0.00    +0.000 A 
ATOM     19  C   UNL     1      44.722   3.366   9.205  0.00  0.00    +0.000 A 
ATOM     20  N   UNL     1      43.678   3.703  10.049  0.00  0.00    +0.000 N 
ATOM     21  N   UNL     1      45.063   2.061   9.195  0.00  0.00    +0.000 NA
ATOM     22  C   UNL     1      46.018   1.652   8.320  0.00  0.00    +0.000 A 
ATOM     23  H   UNL     1      43.544   2.912  10.690  0.00  0.00    +0.000 HD
BRANCH  16  25
ATOM     24  N   UNL     1      48.454   1.600   5.791  0.00  0.00    +0.000 NA
ATOM     25  C   UNL     1      47.658   1.993   6.537  0.00  0.00    +0.000 C 
ENDBRANCH  16  25
ENDBRANCH  15  20
ENDBRANCH   1  15
BRANCH   1  26
ATOM     26  C   UNL     1      43.720   3.445  12.745  0.00  0.00    +0.000 C 
BRANCH  26  27
ATOM     27  O   UNL     1      44.773   2.567  12.361  0.00  0.00    +0.000 OA
ATOM     28  H   UNL     1      44.725   1.779  12.929  0.00  0.00    +0.000 HD
ENDBRANCH  26  27
ENDBRANCH   1  26
TORSDOF 8
ENDMDL
MODEL 2
REMARK VINA RESULT:    -7.553      1.410      1.624
REMARK INTER + INTRA:         -11.892
REMARK INTER:                 -10.846
REMARK INTRA:                  -1.045
REMARK UNBOUND:                -1.027
REMARK  Name = 
REMARK  8 active torsions:
REMARK  status: ('A' for Active; 'I' for Inactive)
REMARK    1  A    between atoms: C_2  and  C_3
REMARK    2  A    between atoms: N_7  and  C_8
REMARK    3  A    between atoms: C_8  and  C_9
REMARK    4  A    between atoms: C_9  and  C_10
REMARK    5  A    between atoms: C_9  and  C_12
REMARK    6  A    between atoms: C_10  and  O_11
REMARK    7  A    between atoms: C_16  and  N_17
REMARK    8  A    between atoms: N_17  and  C_18
REMARK                            x       y       z     vdW  Elec       q    Type
REMARK                         _______ _______ _______ _____ _____    ______ ____
ROOT
ATOM      1  C   UNL     1      44.141   4.882  12.276  0.00  0.00    +0.000 C 
ENDROOT
BRANCH   1   2
ATOM      2  C   UNL     1      45.518   5.501  12.486  0.00  0.00    +0.000 A 
ATOM      3  C   UNL     1      46.146   6.196  11.445  0.00  0.00    +0.000 A 
ATOM      4  C   UNL     1      47.390   6.798  11.647  0.00  0.00    +0.000 A 
ATOM      5  C   UNL     1      48.031   6.703  12.885  0.00  0.00    +0.000 A 
ATOM      6  C   UNL     1      47.430   6.018  13.940  0.00  0.00    +0.000 A 
ATOM      7  C   UNL     1      46.177   5.422  13.726  0.00  0.00    +0.000 A 
BRANCH   6   8
ATOM      8  N   UNL     1      48.022   5.881  15.212  0.00  0.00    +0.000 N 
ATOM      9  H   UNL     1      47.479   5.238  15.789  0.00  0.00    +0.000 HD
BRANCH   8  10
ATOM     10  C   UNL     1      48.698   6.903  15.964  0.00  0.00    +0.000 C 
ATOM     11  C   UNL     1      50.233   6.707  15.977  0.00  0.00    +0.000 C 
ATOM     12  N   UNL     1      50.240   7.033  17.420  0.00  0.00    +0.000 NA
ATOM     13  C   UNL     1      48.799   6.688  17.485  0.00  0.00    +0.000 C 
ATOM     14  H   UNL     1      50.430   8.019  17.603  0.00  0.00    +0.000 HD
ENDBRANCH   8  10
ENDBRANCH   6   8
ENDBRANCH   1   2
BRANCH   1  15
ATOM     15  C   UNL     1      43.687   4.979  10.798  0.00  0.00    +0.000 C 
BRANCH  15  20
ATOM     16  C   UNL     1      46.635   2.487   7.459  0.00  0.00    +0.000 A 
ATOM     17  C   UNL     1      46.268   3.826   7.483  0.00  0.00    +0.000 A 
ATOM     18  C   UNL     1      45.301   4.254   8.396  0.00  0.00    +0.000 A 
ATOM     19  C   UNL     1      44.729   3.342   9.277  0.00  0.00    +0.000 A 
ATOM     20  N   UNL     1      43.707   3.670  10.151  0.00  0.00    +0.000 N 
ATOM     21  N   UNL     1      45.087   2.042   9.264  0.00  0.00    +0.000 NA
ATOM     22  C   UNL     1      46.019   1.639   8.362  0.00  0.00    +0.000 A 
ATOM     23  H   UNL     1      43.605   2.883  10.801  0.00  0.00    +0.000 HD
BRANCH  16  25
ATOM     24  N   UNL     1      48.379   1.604   5.761  0.00  0.00    +0.000 NA
ATOM     25  C   UNL     1      47.597   1.989   6.525  0.00  0.00    +0.000 C 
ENDBRANCH  16  25
ENDBRANCH  15  20
ENDBRANCH   1  15
BRANCH   1  26
ATOM     26  C   UNL     1      44.135   3.433  12.802  0.00  0.00    +0.000 C 
BRANCH  26  27
ATOM     27  O   UNL     1      45.300   2.716  12.411  0.00  0.00    +0.000 OA
ATOM     28  H   UNL     1      45.172   1.783  12.658  0.00  0.00    +0.000 HD
ENDBRANCH  26  27
ENDBRANCH   1  26
TORSDOF 8
ENDMDL
MODEL 3
REMARK VINA RESULT:    -7.361      2.632      4.219
REMARK INTER + INTRA:         -11.616
REMARK INTER:                 -10.841
REMARK INTRA:                  -0.775
REMARK UNBOUND:                -1.027
REMARK  Name = 
REMARK  8 active torsions:
REMARK  status: ('A' for Active; 'I' for Inactive)
REMARK    1  A    between atoms: C_2  and  C_3
REMARK    2  A    between atoms: N_7  and  C_8
REMARK    3  A    between atoms: C_8  and  C_9
REMARK    4  A    between atoms: C_9  and  C_10
REMARK    5  A    between atoms: C_9  and  C_12
REMARK    6  A    between atoms: C_10  and  O_11
REMARK    7  A    between atoms: C_16  and  N_17
REMARK    8  A    between atoms: N_17  and  C_18
REMARK                            x       y       z     vdW  Elec       q    Type
REMARK                         _______ _______ _______ _____ _____    ______ ____
ROOT
ATOM      1  C   UNL     1      44.155   4.627  12.252  0.00  0.00    +0.000 C 
ENDROOT
BRANCH   1   2
ATOM      2  C   UNL     1      45.227   5.608  12.713  0.00  0.00    +0.000 A 
ATOM      3  C   UNL     1      46.424   5.137  13.268  0.00  0.00    +0.000 A 
ATOM      4  C   UNL     1      47.424   6.033  13.654  0.00  0.00    +0.000 A 
ATOM      5  C   UNL     1      47.238   7.411  13.505  0.00  0.00    +0.000 A 
ATOM      6  C   UNL     1      46.057   7.908  12.956  0.00  0.00    +0.000 A 
ATOM      7  C   UNL     1      45.063   6.997  12.567  0.00  0.00    +0.000 A 
BRANCH   6   8
ATOM      8  N   UNL     1      45.804   9.284  12.781  0.00  0.00    +0.000 N 
ATOM      9  H   UNL     1      45.374   9.675  13.620  0.00  0.00    +0.000 HD
BRANCH   8  10
ATOM     10  C   UNL     1      45.403   9.940  11.566  0.00  0.00    +0.000 C 
ATOM     11  C   UNL     1      45.352  11.479  11.717  0.00  0.00    +0.000 C 
ATOM     12  N   UNL     1      44.074  11.487  10.972  0.00  0.00    +0.000 NA
ATOM     13  C   UNL     1      43.889  10.055  11.310  0.00  0.00    +0.000 C 
ATOM     14  H   UNL     1      44.199  11.655   9.972  0.00  0.00    +0.000 HD
ENDBRANCH   8  10
ENDBRANCH   6   8
ENDBRANCH   1   2
BRANCH   1  15
ATOM     15  C   UNL     1      43.755   4.867  10.775  0.00  0.00    +0.000 C 
BRANCH  15  20
ATOM     16  C   UNL     1      46.721   2.488   7.370  0.00  0.00    +0.000 A 
ATOM     17  C   UNL     1      46.426   3.840   7.491  0.00  0.00    +0.000 A 
ATOM     18  C   UNL     1      45.441   4.248   8.394  0.00  0.00    +0.000 A 
ATOM     19  C   UNL     1      44.779   3.302   9.168  0.00  0.00    +0.000 A 
ATOM     20  N   UNL     1      43.735   3.617  10.022  0.00  0.00    +0.000 N 
ATOM     21  N   UNL     1      45.066   1.988   9.062  0.00  0.00    +0.000 NA
ATOM     22  C   UNL     1      46.017   1.606   8.171  0.00  0.00    +0.000 A 
ATOM     23  H   UNL     1      43.559   2.786  10.598  0.00  0.00    +0.000 HD
BRANCH  16  25
ATOM     24  N   UNL     1      48.501   1.645   5.688  0.00  0.00    +0.000 NA
ATOM     25  C   UNL     1      47.698   2.013   6.441  0.00  0.00    +0.000 C 
ENDBRANCH  16  25
ENDBRANCH  15  20
ENDBRANCH   1  15
BRANCH   1  26
ATOM     26  C   UNL     1      44.626   3.182  12.509  0.00  0.00    +0.000 C 
BRANCH  26  27
ATOM     27  O   UNL     1      43.537   2.269  12.588  0.00  0.00    +0.000 OA
ATOM     28  H   UNL     1      43.896   1.369  12.492  0.00  0.00    +0.000 HD
ENDBRANCH  26  27
ENDBRANCH   1  26
TORSDOF 8
ENDMDL
MODEL 4
REMARK VINA RESULT:    -6.759      1.706      7.804
REMARK INTER + INTRA:         -10.749
REMARK INTER:                 -10.186
REMARK INTRA:                  -0.563
REMARK UNBOUND:                -1.027
REMARK  Name = 
REMARK  8 active torsions:
REMARK  status: ('A' for Active; 'I' for Inactive)
REMARK    1  A    between atoms: C_2  and  C_3
REMARK    2  A    between atoms: N_7  and  C_8
REMARK    3  A    between atoms: C_8  and  C_9
REMARK    4  A    between atoms: C_9  and  C_10
REMARK    5  A    between atoms: C_9  and  C_12
REMARK    6  A    between atoms: C_10  and  O_11
REMARK    7  A    between atoms: C_16  and  N_17
REMARK    8  A    between atoms: N_17  and  C_18
REMARK                            x       y       z     vdW  Elec       q    Type
REMARK                         _______ _______ _______ _____ _____    ______ ____
ROOT
ATOM      1  C   UNL     1      45.332   6.006  11.591  0.00  0.00    +0.000 C 
ENDROOT
BRANCH   1   2
ATOM      2  C   UNL     1      45.074   4.772  10.734  0.00  0.00    +0.000 A 
ATOM      3  C   UNL     1      44.309   3.712  11.236  0.00  0.00    +0.000 A 
ATOM      4  C   UNL     1      44.037   2.597  10.438  0.00  0.00    +0.000 A 
ATOM      5  C   UNL     1      44.538   2.519   9.135  0.00  0.00    +0.000 A 
ATOM      6  C   UNL     1      45.303   3.559   8.609  0.00  0.00    +0.000 A 
ATOM      7  C   UNL     1      45.563   4.676   9.419  0.00  0.00    +0.000 A 
BRANCH   6   8
ATOM      8  N   UNL     1      45.840   3.543   7.307  0.00  0.00    +0.000 N 
ATOM      9  H   UNL     1      45.146   3.207   6.640  0.00  0.00    +0.000 HD
BRANCH   8  10
ATOM     10  C   UNL     1      47.195   3.234   6.936  0.00  0.00    +0.000 C 
ATOM     11  C   UNL     1      47.330   2.890   5.433  0.00  0.00    +0.000 C 
ATOM     12  N   UNL     1      48.223   1.767   5.793  0.00  0.00    +0.000 NA
ATOM     13  C   UNL     1      47.660   1.784   7.165  0.00  0.00    +0.000 C 
ATOM     14  H   UNL     1      49.212   2.020   5.758  0.00  0.00    +0.000 HD
ENDBRANCH   8  10
ENDBRANCH   6   8
ENDBRANCH   1   2
BRANCH   1  15
ATOM     15  C   UNL     1      46.843   6.336  11.681  0.00  0.00    +0.000 C 
BRANCH  15  20
ATOM     16  C   UNL     1      48.058   4.548  16.305  0.00  0.00    +0.000 A 
ATOM     17  C   UNL     1      47.124   4.073  15.393  0.00  0.00    +0.000 A 
ATOM     18  C   UNL     1      46.831   4.831  14.256  0.00  0.00    +0.000 A 
ATOM     19  C   UNL     1      47.484   6.040  14.044  0.00  0.00    +0.000 A 
ATOM     20  N   UNL     1      47.189   6.886  12.989  0.00  0.00    +0.000 N 
ATOM     21  N   UNL     1      48.398   6.503  14.920  0.00  0.00    +0.000 NA
ATOM     22  C   UNL     1      48.663   5.760  16.026  0.00  0.00    +0.000 A 
ATOM     23  H   UNL     1      47.929   7.598  12.959  0.00  0.00    +0.000 HD
BRANCH  16  25
ATOM     24  N   UNL     1      48.623   3.259  18.479  0.00  0.00    +0.000 NA
ATOM     25  C   UNL     1      48.374   3.828  17.499  0.00  0.00    +0.000 C 
ENDBRANCH  16  25
ENDBRANCH  15  20
ENDBRANCH   1  15
BRANCH   1  26
ATOM     26  C   UNL     1      44.500   7.191  11.062  0.00  0.00    +0.000 C 
BRANCH  26  27
ATOM     27  O   UNL     1      43.103   6.922  11.096  0.00  0.00    +0.000 OA
ATOM     28  H   UNL     1      42.915   6.425  11.911  0.00  0.00    +0.000 HD
ENDBRANCH  26  27
ENDBRANCH   1  26
TORSDOF 8
ENDMDL
MODEL 5
REMARK VINA RESULT:    -6.686      2.353      8.045
REMARK INTER + INTRA:         -10.644
REMARK INTER:                  -9.839
REMARK INTRA:                  -0.806
REMARK UNBOUND:                -1.027
REMARK  Name = 
REMARK  8 active torsions:
REMARK  status: ('A' for Active; 'I' for Inactive)
REMARK    1  A    between atoms: C_2  and  C_3
REMARK    2  A    between atoms: N_7  and  C_8
REMARK    3  A    between atoms: C_8  and  C_9
REMARK    4  A    between atoms: C_9  and  C_10
REMARK    5  A    between atoms: C_9  and  C_12
REMARK    6  A    between atoms: C_10  and  O_11
REMARK    7  A    between atoms: C_16  and  N_17
REMARK    8  A    between atoms: N_17  and  C_18
REMARK                            x       y       z     vdW  Elec       q    Type
REMARK                         _______ _______ _______ _____ _____    ______ ____
ROOT
ATOM      1  C   UNL     1      46.335   5.331  13.907  0.00  0.00    +0.000 C 
ENDROOT
BRANCH   1   2
ATOM      2  C   UNL     1      45.191   4.873  13.009  0.00  0.00    +0.000 A 
ATOM      3  C   UNL     1      43.950   5.520  13.061  0.00  0.00    +0.000 A 
ATOM      4  C   UNL     1      42.913   5.128  12.211  0.00  0.00    +0.000 A 
ATOM      5  C   UNL     1      43.095   4.076  11.309  0.00  0.00    +0.000 A 
ATOM      6  C   UNL     1      44.320   3.414  11.234  0.00  0.00    +0.000 A 
ATOM      7  C   UNL     1      45.356   3.821  12.090  0.00  0.00    +0.000 A 
BRANCH   6   8
ATOM      8  N   UNL     1      44.570   2.344  10.351  0.00  0.00    +0.000 N 
ATOM      9  H   UNL     1      45.228   1.686  10.767  0.00  0.00    +0.000 HD
BRANCH   8  10
ATOM     10  C   UNL     1      44.648   2.410   8.917  0.00  0.00    +0.000 C 
ATOM     11  C   UNL     1      45.955   1.791   8.368  0.00  0.00    +0.000 C 
ATOM     12  N   UNL     1      46.079   2.932   7.435  0.00  0.00    +0.000 NA
ATOM     13  C   UNL     1      45.183   3.722   8.314  0.00  0.00    +0.000 C 
ATOM     14  H   UNL     1      45.679   2.738   6.516  0.00  0.00    +0.000 HD
ENDBRANCH   8  10
ENDBRANCH   6   8
ENDBRANCH   1   2
BRANCH   1  15
ATOM     15  C   UNL     1      46.688   4.266  14.975  0.00  0.00    +0.000 C 
BRANCH  15  20
ATOM     16  C   UNL     1      50.940   3.048  17.522  0.00  0.00    +0.000 A 
ATOM     17  C   UNL     1      49.909   2.227  17.083  0.00  0.00    +0.000 A 
ATOM     18  C   UNL     1      48.749   2.805  16.560  0.00  0.00    +0.000 A 
ATOM     19  C   UNL     1      48.645   4.189  16.472  0.00  0.00    +0.000 A 
ATOM     20  N   UNL     1      47.499   4.838  16.046  0.00  0.00    +0.000 N 
ATOM     21  N   UNL     1      49.646   4.992  16.889  0.00  0.00    +0.000 NA
ATOM     22  C   UNL     1      50.761   4.415  17.406  0.00  0.00    +0.000 A 
ATOM     23  H   UNL     1      47.750   5.822  15.898  0.00  0.00    +0.000 HD
BRANCH  16  25
ATOM     24  N   UNL     1      53.102   2.058  18.547  0.00  0.00    +0.000 NA
ATOM     25  C   UNL     1      52.136   2.511  18.093  0.00  0.00    +0.000 C 
ENDBRANCH  16  25
ENDBRANCH  15  20
ENDBRANCH   1  15
BRANCH   1  26
ATOM     26  C   UNL     1      47.550   5.726  13.043  0.00  0.00    +0.000 C 
BRANCH  26  27
ATOM     27  O   UNL     1      48.640   6.190  13.831  0.00  0.00    +0.000 OA
ATOM     28  H   UNL     1      49.038   5.418  14.271  0.00  0.00    +0.000 HD
ENDBRANCH  26  27
ENDBRANCH   1  26
TORSDOF 8
ENDMDL
MODEL 6
REMARK VINA RESULT:    -6.523      3.211      7.428
REMARK INTER + INTRA:         -10.409
REMARK INTER:                  -9.688
REMARK INTRA:                  -0.721
REMARK UNBOUND:                -1.027
REMARK  Name = 
REMARK  8 active torsions:
REMARK  status: ('A' for Active; 'I' for Inactive)
REMARK    1  A    between atoms: C_2  and  C_3
REMARK    2  A    between atoms: N_7  and  C_8
REMARK    3  A    between atoms: C_8  and  C_9
REMARK    4  A    between atoms: C_9  and  C_10
REMARK    5  A    between atoms: C_9  and  C_12
REMARK    6  A    between atoms: C_10  and  O_11
REMARK    7  A    between atoms: C_16  and  N_17
REMARK    8  A    between atoms: N_17  and  C_18
REMARK                            x       y       z     vdW  Elec       q    Type
REMARK                         _______ _______ _______ _____ _____    ______ ____
ROOT
ATOM      1  C   UNL     1      44.754   5.140  11.900  0.00  0.00    +0.000 C 
ENDROOT
BRANCH   1   2
ATOM      2  C   UNL     1      44.741   4.096  10.789  0.00  0.00    +0.000 A 
ATOM      3  C   UNL     1      44.079   2.876  10.975  0.00  0.00    +0.000 A 
ATOM      4  C   UNL     1      44.032   1.934   9.944  0.00  0.00    +0.000 A 
ATOM      5  C   UNL     1      44.655   2.191   8.719  0.00  0.00    +0.000 A 
ATOM      6  C   UNL     1      45.320   3.398   8.506  0.00  0.00    +0.000 A 
ATOM      7  C   UNL     1      45.356   4.338   9.548  0.00  0.00    +0.000 A 
BRANCH   6   8
ATOM      8  N   UNL     1      45.972   3.719   7.298  0.00  0.00    +0.000 N 
ATOM      9  H   UNL     1      45.303   3.741   6.528  0.00  0.00    +0.000 HD
BRANCH   8  10
ATOM     10  C   UNL     1      47.297   3.327   6.902  0.00  0.00    +0.000 C 
ATOM     11  C   UNL     1      47.372   2.933   5.407  0.00  0.00    +0.000 C 
ATOM     12  N   UNL     1      48.214   1.774   5.778  0.00  0.00    +0.000 NA
ATOM     13  C   UNL     1      47.690   1.861   7.163  0.00  0.00    +0.000 C 
ATOM     14  H   UNL     1      49.213   1.971   5.709  0.00  0.00    +0.000 HD
ENDBRANCH   8  10
ENDBRANCH   6   8
ENDBRANCH   1   2
BRANCH   1  15
ATOM     15  C   UNL     1      44.486   6.565  11.352  0.00  0.00    +0.000 C 
BRANCH  15  20
ATOM     16  C   UNL     1      48.782   9.226  12.065  0.00  0.00    +0.000 A 
ATOM     17  C   UNL     1      48.619   7.895  11.701  0.00  0.00    +0.000 A 
ATOM     18  C   UNL     1      47.344   7.327  11.739  0.00  0.00    +0.000 A 
ATOM     19  C   UNL     1      46.254   8.098  12.127  0.00  0.00    +0.000 A 
ATOM     20  N   UNL     1      44.976   7.587  12.272  0.00  0.00    +0.000 N 
ATOM     21  N   UNL     1      46.404   9.393  12.475  0.00  0.00    +0.000 NA
ATOM     22  C   UNL     1      47.652   9.928  12.444  0.00  0.00    +0.000 A 
ATOM     23  H   UNL     1      44.343   8.388  12.379  0.00  0.00    +0.000 HD
BRANCH  16  25
ATOM     24  N   UNL     1      51.104  10.372  12.089  0.00  0.00    +0.000 NA
ATOM     25  C   UNL     1      50.069   9.850  12.073  0.00  0.00    +0.000 C 
ENDBRANCH  16  25
ENDBRANCH  15  20
ENDBRANCH   1  15
BRANCH   1  26
ATOM     26  C   UNL     1      43.759   4.737  13.007  0.00  0.00    +0.000 C 
BRANCH  26  27
ATOM     27  O   UNL     1      42.881   5.802  13.352  0.00  0.00    +0.000 OA
ATOM     28  H   UNL     1      42.519   5.615  14.237  0.00  0.00    +0.000 HD
ENDBRANCH  26  27
ENDBRANCH   1  26
TORSDOF 8
ENDMDL
MODEL 7
REMARK VINA RESULT:    -6.455      2.176      8.464
REMARK INTER + INTRA:         -10.313
REMARK INTER:                  -9.586
REMARK INTRA:                  -0.727
REMARK UNBOUND:                -1.027
REMARK  Name = 
REMARK  8 active torsions:
REMARK  status: ('A' for Active; 'I' for Inactive)
REMARK    1  A    between atoms: C_2  and  C_3
REMARK    2  A    between atoms: N_7  and  C_8
REMARK    3  A    between atoms: C_8  and  C_9
REMARK    4  A    between atoms: C_9  and  C_10
REMARK    5  A    between atoms: C_9  and  C_12
REMARK    6  A    between atoms: C_10  and  O_11
REMARK    7  A    between atoms: C_16  and  N_17
REMARK    8  A    between atoms: N_17  and  C_18
REMARK                            x       y       z     vdW  Elec       q    Type
REMARK                         _______ _______ _______ _____ _____    ______ ____
ROOT
ATOM      1  C   UNL     1      46.354   5.098  13.980  0.00  0.00    +0.000 C 
ENDROOT
BRANCH   1   2
ATOM      2  C   UNL     1      45.189   4.697  13.082  0.00  0.00    +0.000 A 
ATOM      3  C   UNL     1      43.967   5.375  13.167  0.00  0.00    +0.000 A 
ATOM      4  C   UNL     1      42.911   5.036  12.317  0.00  0.00    +0.000 A 
ATOM      5  C   UNL     1      43.055   4.008  11.381  0.00  0.00    +0.000 A 
ATOM      6  C   UNL     1      44.261   3.316  11.274  0.00  0.00    +0.000 A 
ATOM      7  C   UNL     1      45.317   3.670  12.129  0.00  0.00    +0.000 A 
BRANCH   6   8
ATOM      8  N   UNL     1      44.474   2.268  10.356  0.00  0.00    +0.000 N 
ATOM      9  H   UNL     1      45.078   1.555  10.764  0.00  0.00    +0.000 HD
BRANCH   8  10
ATOM     10  C   UNL     1      44.599   2.383   8.928  0.00  0.00    +0.000 C 
ATOM     11  C   UNL     1      45.934   1.800   8.405  0.00  0.00    +0.000 C 
ATOM     12  N   UNL     1      46.073   2.974   7.515  0.00  0.00    +0.000 NA
ATOM     13  C   UNL     1      45.136   3.722   8.388  0.00  0.00    +0.000 C 
ATOM     14  H   UNL     1      45.707   2.806   6.577  0.00  0.00    +0.000 HD
ENDBRANCH   8  10
ENDBRANCH   6   8
ENDBRANCH   1   2
BRANCH   1  15
ATOM     15  C   UNL     1      47.162   3.864  14.456  0.00  0.00    +0.000 C 
BRANCH  15  20
ATOM     16  C   UNL     1      48.492   6.186  18.802  0.00  0.00    +0.000 A 
ATOM     17  C   UNL     1      49.214   6.038  17.624  0.00  0.00    +0.000 A 
ATOM     18  C   UNL     1      48.719   5.204  16.619  0.00  0.00    +0.000 A 
ATOM     19  C   UNL     1      47.507   4.546  16.800  0.00  0.00    +0.000 A 
ATOM     20  N   UNL     1      46.993   3.640  15.889  0.00  0.00    +0.000 N 
ATOM     21  N   UNL     1      46.797   4.692  17.937  0.00  0.00    +0.000 NA
ATOM     22  C   UNL     1      47.298   5.496  18.910  0.00  0.00    +0.000 A 
ATOM     23  H   UNL     1      46.023   3.451  16.169  0.00  0.00    +0.000 HD
BRANCH  16  25
ATOM     24  N   UNL     1      49.371   7.660  20.741  0.00  0.00    +0.000 NA
ATOM     25  C   UNL     1      48.967   7.003  19.875  0.00  0.00    +0.000 C 
ENDBRANCH  16  25
ENDBRANCH  15  20
ENDBRANCH   1  15
BRANCH   1  26
ATOM     26  C   UNL     1      47.235   6.138  13.259  0.00  0.00    +0.000 C 
BRANCH  26  27
ATOM     27  O   UNL     1      46.992   7.460  13.725  0.00  0.00    +0.000 OA
ATOM     28  H   UNL     1      46.029   7.602  13.731  0.00  0.00    +0.000 HD
ENDBRANCH  26  27
ENDBRANCH   1  26
TORSDOF 8
ENDMDL
MODEL 8
REMARK VINA RESULT:    -6.070      3.051      7.215
REMARK INTER + INTRA:          -9.758
REMARK INTER:                  -9.065
REMARK INTRA:                  -0.692
REMARK UNBOUND:                -1.027
REMARK  Name = 
REMARK  8 active torsions:
REMARK  status: ('A' for Active; 'I' for Inactive)
REMARK    1  A    between atoms: C_2  and  C_3
REMARK    2  A    between atoms: N_7  and  C_8
REMARK    3  A    between atoms: C_8  and  C_9
REMARK    4  A    between atoms: C_9  and  C_10
REMARK    5  A    between atoms: C_9  and  C_12
REMARK    6  A    between atoms: C_10  and  O_11
REMARK    7  A    between atoms: C_16  and  N_17
REMARK    8  A    between atoms: N_17  and  C_18
REMARK                            x       y       z     vdW  Elec       q    Type
REMARK                         _______ _______ _______ _____ _____    ______ ____
ROOT
ATOM      1  C   UNL     1      46.814   5.049  13.507  0.00  0.00    +0.000 C 
ENDROOT
BRANCH   1   2
ATOM      2  C   UNL     1      45.508   4.681  12.813  0.00  0.00    +0.000 A 
ATOM      3  C   UNL     1      44.333   5.386  13.101  0.00  0.00    +0.000 A 
ATOM      4  C   UNL     1      43.142   5.077  12.438  0.00  0.00    +0.000 A 
ATOM      5  C   UNL     1      43.106   4.051  11.489  0.00  0.00    +0.000 A 
ATOM      6  C   UNL     1      44.260   3.332  11.181  0.00  0.00    +0.000 A 
ATOM      7  C   UNL     1      45.451   3.657  11.851  0.00  0.00    +0.000 A 
BRANCH   6   8
ATOM      8  N   UNL     1      44.293   2.285  10.238  0.00  0.00    +0.000 N 
ATOM      9  H   UNL     1      44.705   1.448  10.651  0.00  0.00    +0.000 HD
BRANCH   8  10
ATOM     10  C   UNL     1      44.521   2.405   8.824  0.00  0.00    +0.000 C 
ATOM     11  C   UNL     1      45.928   1.910   8.410  0.00  0.00    +0.000 C 
ATOM     12  N   UNL     1      46.057   3.088   7.524  0.00  0.00    +0.000 NA
ATOM     13  C   UNL     1      45.008   3.774   8.316  0.00  0.00    +0.000 C 
ATOM     14  H   UNL     1      45.777   2.893   6.562  0.00  0.00    +0.000 HD
ENDBRANCH   8  10
ENDBRANCH   6   8
ENDBRANCH   1   2
BRANCH   1  15
ATOM     15  C   UNL     1      46.978   6.583  13.646  0.00  0.00    +0.000 C 
BRANCH  15  20
ATOM     16  C   UNL     1      51.299   8.784  12.053  0.00  0.00    +0.000 A 
ATOM     17  C   UNL     1      50.458   7.903  11.384  0.00  0.00    +0.000 A 
ATOM     18  C   UNL     1      49.420   7.283  12.083  0.00  0.00    +0.000 A 
ATOM     19  C   UNL     1      49.229   7.564  13.432  0.00  0.00    +0.000 A 
ATOM     20  N   UNL     1      48.278   6.929  14.211  0.00  0.00    +0.000 N 
ATOM     21  N   UNL     1      50.036   8.425  14.086  0.00  0.00    +0.000 NA
ATOM     22  C   UNL     1      51.049   9.010  13.395  0.00  0.00    +0.000 A 
ATOM     23  H   UNL     1      48.223   7.446  15.097  0.00  0.00    +0.000 HD
BRANCH  16  25
ATOM     24  N   UNL     1      53.295   9.940  10.878  0.00  0.00    +0.000 NA
ATOM     25  C   UNL     1      52.395   9.423  11.394  0.00  0.00    +0.000 C 
ENDBRANCH  16  25
ENDBRANCH  15  20
ENDBRANCH   1  15
BRANCH   1  26
ATOM     26  C   UNL     1      46.909   4.320  14.862  0.00  0.00    +0.000 C 
BRANCH  26  27
ATOM     27  O   UNL     1      47.572   3.066  14.751  0.00  0.00    +0.000 OA
ATOM     28  H   UNL     1      47.061   2.512  14.136  0.00  0.00    +0.000 HD
ENDBRANCH  26  27
ENDBRANCH   1  26
TORSDOF 8
ENDMDL
MODEL 9
REMARK VINA RESULT:    -6.023      3.579      5.766
REMARK INTER + INTRA:          -9.691
REMARK INTER:                  -8.938
REMARK INTRA:                  -0.753
REMARK UNBOUND:                -1.027
REMARK  Name = 
REMARK  8 active torsions:
REMARK  status: ('A' for Active; 'I' for Inactive)
REMARK    1  A    between atoms: C_2  and  C_3
REMARK    2  A    between atoms: N_7  and  C_8
REMARK    3  A    between atoms: C_8  and  C_9
REMARK    4  A    between atoms: C_9  and  C_10
REMARK    5  A    between atoms: C_9  and  C_12
REMARK    6  A    between atoms: C_10  and  O_11
REMARK    7  A    between atoms: C_16  and  N_17
REMARK    8  A    between atoms: N_17  and  C_18
REMARK                            x       y       z     vdW  Elec       q    Type
REMARK                         _______ _______ _______ _____ _____    ______ ____
ROOT
ATOM      1  C   UNL     1      48.014   4.573  16.940  0.00  0.00    +0.000 C 
ENDROOT
BRANCH   1   2
ATOM      2  C   UNL     1      49.492   4.837  17.205  0.00  0.00    +0.000 A 
ATOM      3  C   UNL     1      50.042   6.097  16.943  0.00  0.00    +0.000 A 
ATOM      4  C   UNL     1      51.387   6.353  17.223  0.00  0.00    +0.000 A 
ATOM      5  C   UNL     1      52.204   5.351  17.755  0.00  0.00    +0.000 A 
ATOM      6  C   UNL     1      51.682   4.086  18.027  0.00  0.00    +0.000 A 
ATOM      7  C   UNL     1      50.328   3.844  17.746  0.00  0.00    +0.000 A 
BRANCH   6   8
ATOM      8  N   UNL     1      52.450   3.031  18.559  0.00  0.00    +0.000 N 
ATOM      9  H   UNL     1      53.021   3.363  19.336  0.00  0.00    +0.000 HD
BRANCH   8  10
ATOM     10  C   UNL     1      53.042   1.942  17.831  0.00  0.00    +0.000 C 
ATOM     11  C   UNL     1      52.151   0.676  17.836  0.00  0.00    +0.000 C 
ATOM     12  N   UNL     1      53.356  -0.144  18.088  0.00  0.00    +0.000 NA
ATOM     13  C   UNL     1      54.049   1.065  18.598  0.00  0.00    +0.000 C 
ATOM     14  H   UNL     1      53.769  -0.517  17.232  0.00  0.00    +0.000 HD
ENDBRANCH   8  10
ENDBRANCH   6   8
ENDBRANCH   1   2
BRANCH   1  15
ATOM     15  C   UNL     1      47.585   5.072  15.537  0.00  0.00    +0.000 C 
BRANCH  15  20
ATOM     16  C   UNL     1      45.257   4.374  11.049  0.00  0.00    +0.000 A 
ATOM     17  C   UNL     1      45.783   5.536  11.598  0.00  0.00    +0.000 A 
ATOM     18  C   UNL     1      46.217   5.530  12.926  0.00  0.00    +0.000 A 
ATOM     19  C   UNL     1      46.131   4.362  13.677  0.00  0.00    +0.000 A 
ATOM     20  N   UNL     1      46.461   4.298  15.019  0.00  0.00    +0.000 N 
ATOM     21  N   UNL     1      45.629   3.228  13.147  0.00  0.00    +0.000 NA
ATOM     22  C   UNL     1      45.200   3.253  11.859  0.00  0.00    +0.000 A 
ATOM     23  H   UNL     1      46.488   3.304  15.274  0.00  0.00    +0.000 HD
BRANCH  16  25
ATOM     24  N   UNL     1      44.358   4.292   8.622  0.00  0.00    +0.000 NA
ATOM     25  C   UNL     1      44.770   4.332   9.705  0.00  0.00    +0.000 C 
ENDBRANCH  16  25
ENDBRANCH  15  20
ENDBRANCH   1  15
BRANCH   1  26
ATOM     26  C   UNL     1      47.703   3.079  17.155  0.00  0.00    +0.000 C 
BRANCH  26  27
ATOM     27  O   UNL     1      46.422   2.876  17.740  0.00  0.00    +0.000 OA
ATOM     28  H   UNL     1      46.441   3.254  18.637  0.00  0.00    +0.000 HD
ENDBRANCH  26  27
ENDBRANCH   1  26
TORSDOF 8
ENDMDL
