MODEL 1
REMARK VINA RESULT:    -8.456      0.000      0.000
REMARK INTER + INTRA:         -11.605
REMARK INTER:                 -10.434
REMARK INTRA:                  -1.171
REMARK UNBOUND:                -1.171
REMARK  Name = 
REMARK  4 active torsions:
REMARK  status: ('A' for Active; 'I' for Inactive)
REMARK    1  A    between atoms: C_2  and  C_4
REMARK    2  A    between atoms: N_8  and  C_9
REMARK    3  A    between atoms: C_9  and  C_10
REMARK    4  A    between atoms: C_15  and  N_16
REMARK                            x       y       z     vdW  Elec       q    Type
REMARK                         _______ _______ _______ _____ _____    ______ ____
ROOT
ATOM      1  C   UNL     1      43.804   4.943  11.405  0.00  0.00    +0.000 C 
ATOM      2  C   UNL     1      42.417   5.165  12.008  0.00  0.00    +0.000 C 
ATOM      3  C   UNL     1      42.957   6.152  11.036  0.00  0.00    +0.000 C 
ENDROOT
BRANCH   1   8
ATOM      4  C   UNL     1      46.546   2.797   7.546  0.00  0.00    +0.000 A 
ATOM      5  C   UNL     1      46.161   4.121   7.721  0.00  0.00    +0.000 A 
ATOM      6  C   UNL     1      45.293   4.444   8.759  0.00  0.00    +0.000 A 
ATOM      7  C   UNL     1      44.836   3.452   9.615  0.00  0.00    +0.000 A 
ATOM      8  N   UNL     1      43.910   3.699  10.629  0.00  0.00    +0.000 N 
ATOM      9  N   UNL     1      45.199   2.160   9.452  0.00  0.00    +0.000 NA
ATOM     10  C   UNL     1      46.030   1.854   8.420  0.00  0.00    +0.000 A 
ATOM     11  H   UNL     1      43.795   2.826  11.139  0.00  0.00    +0.000 HD
BRANCH   4  13
ATOM     12  N   UNL     1      47.258   3.033   5.240  0.00  0.00    +0.000 N 
ATOM     13  C   UNL     1      47.423   2.386   6.430  0.00  0.00    +0.000 C 
ATOM     14  O   UNL     1      48.264   1.504   6.571  0.00  0.00    +0.000 OA
ATOM     15  H   UNL     1      47.892   2.785   4.490  0.00  0.00    +0.000 HD
ATOM     16  H   UNL     1      46.746   3.907   5.149  0.00  0.00    +0.000 HD
ENDBRANCH   4  13
ENDBRANCH   1   8
BRANCH   1  17
ATOM     17  C   UNL     1      45.032   5.270  12.246  0.00  0.00    +0.000 A 
ATOM     18  C   UNL     1      45.551   4.349  13.169  0.00  0.00    +0.000 A 
ATOM     19  C   UNL     1      46.781   4.572  13.786  0.00  0.00    +0.000 A 
ATOM     20  C   UNL     1      47.503   5.725  13.491  0.00  0.00    +0.000 A 
ATOM     21  F   UNL     1      48.697   5.883  14.085  0.00  0.00    +0.000 F 
ATOM     22  C   UNL     1      47.005   6.709  12.624  0.00  0.00    +0.000 A 
ATOM     23  C   UNL     1      45.751   6.460  12.041  0.00  0.00    +0.000 A 
BRANCH  22  24
ATOM     24  N   UNL     1      47.689   7.854  12.258  0.00  0.00    +0.000 N 
ATOM     25  C   UNL     1      48.902   7.821  11.432  0.00  0.00    +0.000 C 
ATOM     26  C   UNL     1      50.120   8.317  12.221  0.00  0.00    +0.000 C 
ATOM     27  O   UNL     1      49.874   9.597  12.830  0.00  0.00    +0.000 OA
ATOM     28  C   UNL     1      48.761   9.507  13.734  0.00  0.00    +0.000 C 
ATOM     29  C   UNL     1      47.472   9.104  13.002  0.00  0.00    +0.000 C 
ENDBRANCH  22  24
ENDBRANCH   1  17
TORSDOF 4
ENDMDL
MODEL 2
REMARK VINA RESULT:    -7.887      2.362      3.421
REMARK INTER + INTRA:         -10.902
REMARK INTER:                  -9.933
REMARK INTRA:                  -0.970
REMARK UNBOUND:                -1.171
REMARK  Name = 
REMARK  4 active torsions:
REMARK  status: ('A' for Active; 'I' for Inactive)
REMARK    1  A    between atoms: C_2  and  C_4
REMARK    2  A    between atoms: N_8  and  C_9
REMARK    3  A    between atoms: C_9  and  C_10
REMARK    4  A    between atoms: C_15  and  N_16
REMARK                            x       y       z     vdW  Elec       q    Type
REMARK                         _______ _______ _______ _____ _____    ______ ____
ROOT
ATOM      1  C   UNL     1      44.212   4.922  11.712  0.00  0.00    +0.000 C 
ATOM      2  C   UNL     1      42.901   5.189  12.454  0.00  0.00    +0.000 C 
ATOM      3  C   UNL     1      43.403   6.189  11.476  0.00  0.00    +0.000 C 
ENDROOT
BRANCH   1   8
ATOM      4  C   UNL     1      46.506   2.782   7.568  0.00  0.00    +0.000 A 
ATOM      5  C   UNL     1      46.227   4.119   7.827  0.00  0.00    +0.000 A 
ATOM      6  C   UNL     1      45.462   4.450   8.941  0.00  0.00    +0.000 A 
ATOM      7  C   UNL     1      45.002   3.451   9.788  0.00  0.00    +0.000 A 
ATOM      8  N   UNL     1      44.174   3.711  10.880  0.00  0.00    +0.000 N 
ATOM      9  N   UNL     1      45.263   2.147   9.544  0.00  0.00    +0.000 NA
ATOM     10  C   UNL     1      45.993   1.836   8.440  0.00  0.00    +0.000 A 
ATOM     11  H   UNL     1      44.037   2.825  11.360  0.00  0.00    +0.000 HD
BRANCH   4  13
ATOM     12  N   UNL     1      47.087   3.100   5.236  0.00  0.00    +0.000 N 
ATOM     13  C   UNL     1      47.267   2.367   6.372  0.00  0.00    +0.000 C 
ATOM     14  O   UNL     1      48.030   1.406   6.403  0.00  0.00    +0.000 OA
ATOM     15  H   UNL     1      47.646   2.845   4.430  0.00  0.00    +0.000 HD
ATOM     16  H   UNL     1      46.654   4.020   5.231  0.00  0.00    +0.000 HD
ENDBRANCH   4  13
ENDBRANCH   1   8
BRANCH   1  17
ATOM     17  C   UNL     1      45.529   5.146  12.444  0.00  0.00    +0.000 A 
ATOM     18  C   UNL     1      46.434   6.136  12.031  0.00  0.00    +0.000 A 
ATOM     19  C   UNL     1      47.536   6.469  12.817  0.00  0.00    +0.000 A 
ATOM     20  C   UNL     1      47.749   5.807  14.024  0.00  0.00    +0.000 A 
ATOM     21  F   UNL     1      48.806   6.182  14.763  0.00  0.00    +0.000 F 
ATOM     22  C   UNL     1      46.913   4.768  14.456  0.00  0.00    +0.000 A 
ATOM     23  C   UNL     1      45.828   4.444  13.625  0.00  0.00    +0.000 A 
BRANCH  22  24
ATOM     24  N   UNL     1      47.045   4.100  15.661  0.00  0.00    +0.000 N 
ATOM     25  C   UNL     1      46.774   4.741  16.954  0.00  0.00    +0.000 C 
ATOM     26  C   UNL     1      48.053   4.847  17.794  0.00  0.00    +0.000 C 
ATOM     27  O   UNL     1      48.720   3.577  17.910  0.00  0.00    +0.000 OA
ATOM     28  C   UNL     1      49.080   3.089  16.609  0.00  0.00    +0.000 C 
ATOM     29  C   UNL     1      47.841   2.865  15.728  0.00  0.00    +0.000 C 
ENDBRANCH  22  24
ENDBRANCH   1  17
TORSDOF 4
ENDMDL
MODEL 3
REMARK VINA RESULT:    -6.456      4.062      8.386
REMARK INTER + INTRA:          -9.137
REMARK INTER:                  -8.190
REMARK INTRA:                  -0.946
REMARK UNBOUND:                -1.171
REMARK  Name = 
REMARK  4 active torsions:
REMARK  status: ('A' for Active; 'I' for Inactive)
REMARK    1  A    between atoms: C_2  and  C_4
REMARK    2  A    between atoms: N_8  and  C_9
REMARK    3  A    between atoms: C_9  and  C_10
REMARK    4  A    between atoms: C_15  and  N_16
REMARK                            x       y       z     vdW  Elec       q    Type
REMARK                         _______ _______ _______ _____ _____    ______ ____
ROOT
ATOM      1  C   UNL     1      48.804   7.903  13.830  0.00  0.00    +0.000 C 
ATOM      2  C   UNL     1      49.842   8.534  12.901  0.00  0.00    +0.000 C 
ATOM      3  C   UNL     1      49.215   9.363  13.964  0.00  0.00    +0.000 C 
ENDROOT
BRANCH   1   8
ATOM      4  C   UNL     1      48.443   5.751  18.547  0.00  0.00    +0.000 A 
ATOM      5  C   UNL     1      48.373   7.091  18.184  0.00  0.00    +0.000 A 
ATOM      6  C   UNL     1      48.651   7.454  16.870  0.00  0.00    +0.000 A 
ATOM      7  C   UNL     1      48.977   6.480  15.936  0.00  0.00    +0.000 A 
ATOM      8  N   UNL     1      49.335   6.785  14.623  0.00  0.00    +0.000 N 
ATOM      9  N   UNL     1      49.054   5.175  16.279  0.00  0.00    +0.000 NA
ATOM     10  C   UNL     1      48.801   4.836  17.572  0.00  0.00    +0.000 A 
ATOM     11  H   UNL     1      49.464   5.898  14.141  0.00  0.00    +0.000 HD
BRANCH   4  13
ATOM     12  N   UNL     1      48.566   4.035  20.256  0.00  0.00    +0.000 N 
ATOM     13  C   UNL     1      48.210   5.313  19.939  0.00  0.00    +0.000 C 
ATOM     14  O   UNL     1      47.721   6.070  20.772  0.00  0.00    +0.000 OA
ATOM     15  H   UNL     1      48.452   3.752  21.222  0.00  0.00    +0.000 HD
ATOM     16  H   UNL     1      49.173   3.466  19.672  0.00  0.00    +0.000 HD
ENDBRANCH   4  13
ENDBRANCH   1   8
BRANCH   1  17
ATOM     17  C   UNL     1      47.386   7.696  13.314  0.00  0.00    +0.000 A 
ATOM     18  C   UNL     1      46.502   8.774  13.155  0.00  0.00    +0.000 A 
ATOM     19  C   UNL     1      45.284   8.608  12.500  0.00  0.00    +0.000 A 
ATOM     20  C   UNL     1      44.932   7.356  12.000  0.00  0.00    +0.000 A 
ATOM     21  F   UNL     1      43.763   7.251  11.348  0.00  0.00    +0.000 F 
ATOM     22  C   UNL     1      45.748   6.231  12.183  0.00  0.00    +0.000 A 
ATOM     23  C   UNL     1      46.956   6.432  12.871  0.00  0.00    +0.000 A 
BRANCH  22  24
ATOM     24  N   UNL     1      45.478   4.972  11.677  0.00  0.00    +0.000 N 
ATOM     25  C   UNL     1      45.336   4.711  10.239  0.00  0.00    +0.000 C 
ATOM     26  C   UNL     1      43.907   4.273   9.897  0.00  0.00    +0.000 C 
ATOM     27  O   UNL     1      43.473   3.179  10.726  0.00  0.00    +0.000 OA
ATOM     28  C   UNL     1      43.503   3.566  12.108  0.00  0.00    +0.000 C 
ATOM     29  C   UNL     1      44.925   3.933  12.559  0.00  0.00    +0.000 C 
ENDBRANCH  22  24
ENDBRANCH   1  17
TORSDOF 4
ENDMDL
MODEL 4
REMARK VINA RESULT:    -6.383      3.624      5.752
REMARK INTER + INTRA:          -9.046
REMARK INTER:                  -8.644
REMARK INTRA:                  -0.402
REMARK UNBOUND:                -1.171
REMARK  Name = 
REMARK  4 active torsions:
REMARK  status: ('A' for Active; 'I' for Inactive)
REMARK    1  A    between atoms: C_2  and  C_4
REMARK    2  A    between atoms: N_8  and  C_9
REMARK    3  A    between atoms: C_9  and  C_10
REMARK    4  A    between atoms: C_15  and  N_16
REMARK                            x       y       z     vdW  Elec       q    Type
REMARK                         _______ _______ _______ _____ _____    ______ ____
ROOT
ATOM      1  C   UNL     1      48.085   8.108  13.514  0.00  0.00    +0.000 C 
ATOM      2  C   UNL     1      48.020   9.628  13.352  0.00  0.00    +0.000 C 
ATOM      3  C   UNL     1      48.607   8.802  12.264  0.00  0.00    +0.000 C 
ENDROOT
BRANCH   1   8
ATOM      4  C   UNL     1      44.845   4.868  11.061  0.00  0.00    +0.000 A 
ATOM      5  C   UNL     1      45.720   5.808  10.528  0.00  0.00    +0.000 A 
ATOM      6  C   UNL     1      46.384   6.679  11.385  0.00  0.00    +0.000 A 
ATOM      7  C   UNL     1      46.183   6.593  12.755  0.00  0.00    +0.000 A 
ATOM      8  N   UNL     1      46.764   7.481  13.661  0.00  0.00    +0.000 N 
ATOM      9  N   UNL     1      45.331   5.687  13.285  0.00  0.00    +0.000 NA
ATOM     10  C   UNL     1      44.670   4.856  12.434  0.00  0.00    +0.000 A 
ATOM     11  H   UNL     1      46.505   7.162  14.591  0.00  0.00    +0.000 HD
BRANCH   4  13
ATOM     12  N   UNL     1      44.092   4.200   8.855  0.00  0.00    +0.000 N 
ATOM     13  C   UNL     1      44.071   3.953  10.196  0.00  0.00    +0.000 C 
ATOM     14  O   UNL     1      43.440   3.012  10.668  0.00  0.00    +0.000 OA
ATOM     15  H   UNL     1      43.601   3.543   8.259  0.00  0.00    +0.000 HD
ATOM     16  H   UNL     1      44.772   4.813   8.413  0.00  0.00    +0.000 HD
ENDBRANCH   4  13
ENDBRANCH   1   8
BRANCH   1  17
ATOM     17  C   UNL     1      49.171   7.509  14.398  0.00  0.00    +0.000 A 
ATOM     18  C   UNL     1      50.492   7.981  14.353  0.00  0.00    +0.000 A 
ATOM     19  C   UNL     1      51.430   7.570  15.298  0.00  0.00    +0.000 A 
ATOM     20  C   UNL     1      51.058   6.675  16.297  0.00  0.00    +0.000 A 
ATOM     21  F   UNL     1      51.986   6.332  17.205  0.00  0.00    +0.000 F 
ATOM     22  C   UNL     1      49.770   6.123  16.355  0.00  0.00    +0.000 A 
ATOM     23  C   UNL     1      48.860   6.542  15.370  0.00  0.00    +0.000 A 
BRANCH  22  24
ATOM     24  N   UNL     1      49.325   5.263  17.343  0.00  0.00    +0.000 N 
ATOM     25  C   UNL     1      49.979   3.980  17.627  0.00  0.00    +0.000 C 
ATOM     26  C   UNL     1      49.047   2.804  17.309  0.00  0.00    +0.000 C 
ATOM     27  O   UNL     1      47.766   2.952  17.949  0.00  0.00    +0.000 OA
ATOM     28  C   UNL     1      47.130   4.161  17.505  0.00  0.00    +0.000 C 
ATOM     29  C   UNL     1      47.960   5.401  17.871  0.00  0.00    +0.000 C 
ENDBRANCH  22  24
ENDBRANCH   1  17
TORSDOF 4
ENDMDL
MODEL 5
REMARK VINA RESULT:    -6.009      4.207      6.794
REMARK INTER + INTRA:          -8.585
REMARK INTER:                  -7.497
REMARK INTRA:                  -1.088
REMARK UNBOUND:                -1.171
REMARK  Name = 
REMARK  4 active torsions:
REMARK  status: ('A' for Active; 'I' for Inactive)
REMARK    1  A    between atoms: C_2  and  C_4
REMARK    2  A    between atoms: N_8  and  C_9
REMARK    3  A    between atoms: C_9  and  C_10
REMARK    4  A    between atoms: C_15  and  N_16
REMARK                            x       y       z     vdW  Elec       q    Type
REMARK                         _______ _______ _______ _____ _____    ______ ____
ROOT
ATOM      1  C   UNL     1      49.146   8.390  14.165  0.00  0.00    +0.000 C 
ATOM      2  C   UNL     1      50.193   9.381  13.655  0.00  0.00    +0.000 C 
ATOM      3  C   UNL     1      50.538   7.939  13.747  0.00  0.00    +0.000 C 
ENDROOT
BRANCH   1   8
ATOM      4  C   UNL     1      45.206   5.229  12.939  0.00  0.00    +0.000 A 
ATOM      5  C   UNL     1      46.529   4.915  13.230  0.00  0.00    +0.000 A 
ATOM      6  C   UNL     1      47.453   5.943  13.381  0.00  0.00    +0.000 A 
ATOM      7  C   UNL     1      47.048   7.265  13.259  0.00  0.00    +0.000 A 
ATOM      8  N   UNL     1      47.938   8.336  13.329  0.00  0.00    +0.000 N 
ATOM      9  N   UNL     1      45.766   7.583  12.970  0.00  0.00    +0.000 NA
ATOM     10  C   UNL     1      44.877   6.567  12.803  0.00  0.00    +0.000 A 
ATOM     11  H   UNL     1      47.380   9.185  13.269  0.00  0.00    +0.000 HD
BRANCH   4  13
ATOM     12  N   UNL     1      44.644   2.902  12.554  0.00  0.00    +0.000 N 
ATOM     13  C   UNL     1      44.191   4.179  12.715  0.00  0.00    +0.000 C 
ATOM     14  O   UNL     1      42.994   4.446  12.678  0.00  0.00    +0.000 OA
ATOM     15  H   UNL     1      43.945   2.176  12.450  0.00  0.00    +0.000 HD
ATOM     16  H   UNL     1      45.586   2.611  12.804  0.00  0.00    +0.000 HD
ENDBRANCH   4  13
ENDBRANCH   1   8
BRANCH   1  17
ATOM     17  C   UNL     1      48.883   8.305  15.663  0.00  0.00    +0.000 A 
ATOM     18  C   UNL     1      48.371   9.399  16.377  0.00  0.00    +0.000 A 
ATOM     19  C   UNL     1      47.947   9.255  17.697  0.00  0.00    +0.000 A 
ATOM     20  C   UNL     1      48.038   8.014  18.321  0.00  0.00    +0.000 A 
ATOM     21  F   UNL     1      47.588   7.915  19.582  0.00  0.00    +0.000 F 
ATOM     22  C   UNL     1      48.597   6.901  17.676  0.00  0.00    +0.000 A 
ATOM     23  C   UNL     1      49.036   7.091  16.356  0.00  0.00    +0.000 A 
BRANCH  22  24
ATOM     24  N   UNL     1      48.678   5.633  18.223  0.00  0.00    +0.000 N 
ATOM     25  C   UNL     1      49.956   5.014  18.599  0.00  0.00    +0.000 C 
ATOM     26  C   UNL     1      50.246   3.782  17.732  0.00  0.00    +0.000 C 
ATOM     27  O   UNL     1      49.140   2.861  17.727  0.00  0.00    +0.000 OA
ATOM     28  C   UNL     1      47.966   3.505  17.210  0.00  0.00    +0.000 C 
ATOM     29  C   UNL     1      47.549   4.701  18.079  0.00  0.00    +0.000 C 
ENDBRANCH  22  24
ENDBRANCH   1  17
TORSDOF 4
ENDMDL
MODEL 6
REMARK VINA RESULT:    -6.006      3.743      7.484
REMARK INTER + INTRA:          -8.581
REMARK INTER:                  -8.498
REMARK INTRA:                  -0.084
REMARK UNBOUND:                -1.171
REMARK  Name = 
REMARK  4 active torsions:
REMARK  status: ('A' for Active; 'I' for Inactive)
REMARK    1  A    between atoms: C_2  and  C_4
REMARK    2  A    between atoms: N_8  and  C_9
REMARK    3  A    between atoms: C_9  and  C_10
REMARK    4  A    between atoms: C_15  and  N_16
REMARK                            x       y       z     vdW  Elec       q    Type
REMARK                         _______ _______ _______ _____ _____    ______ ____
ROOT
ATOM      1  C   UNL     1      48.383   7.928  12.888  0.00  0.00    +0.000 C 
ATOM      2  C   UNL     1      49.277   7.019  12.044  0.00  0.00    +0.000 C 
ATOM      3  C   UNL     1      49.403   8.494  11.910  0.00  0.00    +0.000 C 
ENDROOT
BRANCH   1   8
ATOM      4  C   UNL     1      48.047   4.339  16.633  0.00  0.00    +0.000 A 
ATOM      5  C   UNL     1      47.258   4.505  15.500  0.00  0.00    +0.000 A 
ATOM      6  C   UNL     1      47.436   5.636  14.709  0.00  0.00    +0.000 A 
ATOM      7  C   UNL     1      48.403   6.573  15.045  0.00  0.00    +0.000 A 
ATOM      8  N   UNL     1      48.582   7.760  14.335  0.00  0.00    +0.000 N 
ATOM      9  N   UNL     1      49.172   6.425  16.147  0.00  0.00    +0.000 NA
ATOM     10  C   UNL     1      48.973   5.327  16.924  0.00  0.00    +0.000 A 
ATOM     11  H   UNL     1      49.384   8.230  14.748  0.00  0.00    +0.000 HD
BRANCH   4  13
ATOM     12  N   UNL     1      48.949   2.798  18.272  0.00  0.00    +0.000 N 
ATOM     13  C   UNL     1      47.867   3.186  17.540  0.00  0.00    +0.000 C 
ATOM     14  O   UNL     1      46.788   2.608  17.629  0.00  0.00    +0.000 OA
ATOM     15  H   UNL     1      48.811   2.039  18.930  0.00  0.00    +0.000 HD
ATOM     16  H   UNL     1      49.773   3.379  18.398  0.00  0.00    +0.000 HD
ENDBRANCH   4  13
ENDBRANCH   1   8
BRANCH   1  17
ATOM     17  C   UNL     1      46.933   8.129  12.468  0.00  0.00    +0.000 A 
ATOM     18  C   UNL     1      46.413   9.410  12.228  0.00  0.00    +0.000 A 
ATOM     19  C   UNL     1      45.154   9.574  11.654  0.00  0.00    +0.000 A 
ATOM     20  C   UNL     1      44.395   8.455  11.321  0.00  0.00    +0.000 A 
ATOM     21  F   UNL     1      43.201   8.660  10.742  0.00  0.00    +0.000 F 
ATOM     22  C   UNL     1      44.837   7.152  11.595  0.00  0.00    +0.000 A 
ATOM     23  C   UNL     1      46.101   7.028  12.196  0.00  0.00    +0.000 A 
BRANCH  22  24
ATOM     24  N   UNL     1      44.153   6.000  11.252  0.00  0.00    +0.000 N 
ATOM     25  C   UNL     1      42.896   5.605  11.900  0.00  0.00    +0.000 C 
ATOM     26  C   UNL     1      43.070   4.302  12.690  0.00  0.00    +0.000 C 
ATOM     27  O   UNL     1      43.652   3.263  11.883  0.00  0.00    +0.000 OA
ATOM     28  C   UNL     1      44.944   3.674  11.408  0.00  0.00    +0.000 C 
ATOM     29  C   UNL     1      44.847   4.927  10.524  0.00  0.00    +0.000 C 
ENDBRANCH  22  24
ENDBRANCH   1  17
TORSDOF 4
ENDMDL
MODEL 7
REMARK VINA RESULT:    -5.967      5.478      8.219
REMARK INTER + INTRA:          -8.533
REMARK INTER:                  -8.153
REMARK INTRA:                  -0.379
REMARK UNBOUND:                -1.171
REMARK  Name = 
REMARK  4 active torsions:
REMARK  status: ('A' for Active; 'I' for Inactive)
REMARK    1  A    between atoms: C_2  and  C_4
REMARK    2  A    between atoms: N_8  and  C_9
REMARK    3  A    between atoms: C_9  and  C_10
REMARK    4  A    between atoms: C_15  and  N_16
REMARK                            x       y       z     vdW  Elec       q    Type
REMARK                         _______ _______ _______ _____ _____    ______ ____
ROOT
ATOM      1  C   UNL     1      48.292   4.909  17.188  0.00  0.00    +0.000 C 
ATOM      2  C   UNL     1      47.131   5.137  18.157  0.00  0.00    +0.000 C 
ATOM      3  C   UNL     1      47.139   3.921  17.301  0.00  0.00    +0.000 C 
ENDROOT
BRANCH   1   8
ATOM      4  C   UNL     1      52.367   1.706  17.578  0.00  0.00    +0.000 A 
ATOM      5  C   UNL     1      51.019   1.400  17.421  0.00  0.00    +0.000 A 
ATOM      6  C   UNL     1      50.079   2.423  17.494  0.00  0.00    +0.000 A 
ATOM      7  C   UNL     1      50.491   3.731  17.704  0.00  0.00    +0.000 A 
ATOM      8  N   UNL     1      49.595   4.789  17.857  0.00  0.00    +0.000 N 
ATOM      9  N   UNL     1      51.798   4.040  17.863  0.00  0.00    +0.000 NA
ATOM     10  C   UNL     1      52.705   3.028  17.812  0.00  0.00    +0.000 A 
ATOM     11  H   UNL     1      50.153   5.636  17.937  0.00  0.00    +0.000 HD
BRANCH   4  13
ATOM     12  N   UNL     1      53.164  -0.467  18.300  0.00  0.00    +0.000 N 
ATOM     13  C   UNL     1      53.405   0.655  17.563  0.00  0.00    +0.000 C 
ATOM     14  O   UNL     1      54.438   0.788  16.914  0.00  0.00    +0.000 OA
ATOM     15  H   UNL     1      53.854  -1.207  18.251  0.00  0.00    +0.000 HD
ATOM     16  H   UNL     1      52.244  -0.711  18.657  0.00  0.00    +0.000 HD
ENDBRANCH   4  13
ENDBRANCH   1   8
BRANCH   1  17
ATOM     17  C   UNL     1      48.322   5.690  15.880  0.00  0.00    +0.000 A 
ATOM     18  C   UNL     1      49.326   6.635  15.618  0.00  0.00    +0.000 A 
ATOM     19  C   UNL     1      49.463   7.197  14.350  0.00  0.00    +0.000 A 
ATOM     20  C   UNL     1      48.592   6.824  13.330  0.00  0.00    +0.000 A 
ATOM     21  F   UNL     1      48.782   7.367  12.117  0.00  0.00    +0.000 F 
ATOM     22  C   UNL     1      47.533   5.931  13.551  0.00  0.00    +0.000 A 
ATOM     23  C   UNL     1      47.411   5.405  14.847  0.00  0.00    +0.000 A 
BRANCH  22  24
ATOM     24  N   UNL     1      46.660   5.488  12.573  0.00  0.00    +0.000 N 
ATOM     25  C   UNL     1      46.269   6.319  11.427  0.00  0.00    +0.000 C 
ATOM     26  C   UNL     1      44.772   6.653  11.476  0.00  0.00    +0.000 C 
ATOM     27  O   UNL     1      43.967   5.470  11.631  0.00  0.00    +0.000 OA
ATOM     28  C   UNL     1      44.314   4.795  12.849  0.00  0.00    +0.000 C 
ATOM     29  C   UNL     1      45.782   4.340  12.844  0.00  0.00    +0.000 C 
ENDBRANCH  22  24
ENDBRANCH   1  17
TORSDOF 4
ENDMDL
MODEL 8
REMARK VINA RESULT:    -5.661      4.130      6.399
REMARK INTER + INTRA:          -8.156
REMARK INTER:                  -7.085
REMARK INTRA:                  -1.071
REMARK UNBOUND:                -1.171
REMARK  Name = 
REMARK  4 active torsions:
REMARK  status: ('A' for Active; 'I' for Inactive)
REMARK    1  A    between atoms: C_2  and  C_4
REMARK    2  A    between atoms: N_8  and  C_9
REMARK    3  A    between atoms: C_9  and  C_10
REMARK    4  A    between atoms: C_15  and  N_16
REMARK                            x       y       z     vdW  Elec       q    Type
REMARK                         _______ _______ _______ _____ _____    ______ ____
ROOT
ATOM      1  C   UNL     1      48.996   8.355  12.565  0.00  0.00    +0.000 C 
ATOM      2  C   UNL     1      50.011   9.257  11.861  0.00  0.00    +0.000 C 
ATOM      3  C   UNL     1      50.252   7.791  11.914  0.00  0.00    +0.000 C 
ENDROOT
BRANCH   1   8
ATOM      4  C   UNL     1      44.545   5.678  12.381  0.00  0.00    +0.000 A 
ATOM      5  C   UNL     1      45.850   5.209  12.475  0.00  0.00    +0.000 A 
ATOM      6  C   UNL     1      46.905   6.108  12.354  0.00  0.00    +0.000 A 
ATOM      7  C   UNL     1      46.647   7.458  12.157  0.00  0.00    +0.000 A 
ATOM      8  N   UNL     1      47.659   8.397  11.957  0.00  0.00    +0.000 N 
ATOM      9  N   UNL     1      45.383   7.924  12.058  0.00  0.00    +0.000 NA
ATOM     10  C   UNL     1      44.361   7.032  12.156  0.00  0.00    +0.000 A 
ATOM     11  H   UNL     1      47.206   9.307  11.901  0.00  0.00    +0.000 HD
BRANCH   4  13
ATOM     12  N   UNL     1      43.602   3.527  12.984  0.00  0.00    +0.000 N 
ATOM     13  C   UNL     1      43.387   4.763  12.448  0.00  0.00    +0.000 C 
ATOM     14  O   UNL     1      42.280   5.104  12.042  0.00  0.00    +0.000 OA
ATOM     15  H   UNL     1      42.796   2.919  13.075  0.00  0.00    +0.000 HD
ATOM     16  H   UNL     1      44.426   3.295  13.531  0.00  0.00    +0.000 HD
ENDBRANCH   4  13
ENDBRANCH   1   8
BRANCH   1  17
ATOM     17  C   UNL     1      48.998   8.295  14.087  0.00  0.00    +0.000 A 
ATOM     18  C   UNL     1      48.622   9.403  14.862  0.00  0.00    +0.000 A 
ATOM     19  C   UNL     1      48.434   9.282  16.237  0.00  0.00    +0.000 A 
ATOM     20  C   UNL     1      48.628   8.050  16.856  0.00  0.00    +0.000 A 
ATOM     21  F   UNL     1      48.405   7.973  18.178  0.00  0.00    +0.000 F 
ATOM     22  C   UNL     1      49.064   6.924  16.142  0.00  0.00    +0.000 A 
ATOM     23  C   UNL     1      49.266   7.091  14.762  0.00  0.00    +0.000 A 
BRANCH  22  24
ATOM     24  N   UNL     1      49.235   5.664  16.687  0.00  0.00    +0.000 N 
ATOM     25  C   UNL     1      48.126   4.715  16.849  0.00  0.00    +0.000 C 
ATOM     26  C   UNL     1      47.850   4.437  18.332  0.00  0.00    +0.000 C 
ATOM     27  O   UNL     1      49.047   4.049  19.032  0.00  0.00    +0.000 OA
ATOM     28  C   UNL     1      50.028   5.094  18.947  0.00  0.00    +0.000 C 
ATOM     29  C   UNL     1      50.431   5.372  17.491  0.00  0.00    +0.000 C 
ENDBRANCH  22  24
ENDBRANCH   1  17
TORSDOF 4
ENDMDL
MODEL 9
REMARK VINA RESULT:    -5.586      5.057      8.638
REMARK INTER + INTRA:          -8.064
REMARK INTER:                  -7.874
REMARK INTRA:                  -0.190
REMARK UNBOUND:                -1.171
REMARK  Name = 
REMARK  4 active torsions:
REMARK  status: ('A' for Active; 'I' for Inactive)
REMARK    1  A    between atoms: C_2  and  C_4
REMARK    2  A    between atoms: N_8  and  C_9
REMARK    3  A    between atoms: C_9  and  C_10
REMARK    4  A    between atoms: C_15  and  N_16
REMARK                            x       y       z     vdW  Elec       q    Type
REMARK                         _______ _______ _______ _____ _____    ______ ____
ROOT
ATOM      1  C   UNL     1      48.136   4.765  16.546  0.00  0.00    +0.000 C 
ATOM      2  C   UNL     1      47.169   4.376  17.665  0.00  0.00    +0.000 C 
ATOM      3  C   UNL     1      47.822   3.309  16.862  0.00  0.00    +0.000 C 
ENDROOT
BRANCH   1   8
ATOM      4  C   UNL     1      53.155   4.113  17.729  0.00  0.00    +0.000 A 
ATOM      5  C   UNL     1      52.090   3.235  17.899  0.00  0.00    +0.000 A 
ATOM      6  C   UNL     1      50.796   3.682  17.650  0.00  0.00    +0.000 A 
ATOM      7  C   UNL     1      50.582   4.985  17.221  0.00  0.00    +0.000 A 
ATOM      8  N   UNL     1      49.307   5.514  17.023  0.00  0.00    +0.000 N 
ATOM      9  N   UNL     1      51.610   5.849  17.057  0.00  0.00    +0.000 NA
ATOM     10  C   UNL     1      52.868   5.405  17.325  0.00  0.00    +0.000 A 
ATOM     11  H   UNL     1      49.435   6.455  16.655  0.00  0.00    +0.000 HD
BRANCH   4  13
ATOM     12  N   UNL     1      55.013   2.588  17.413  0.00  0.00    +0.000 N 
ATOM     13  C   UNL     1      54.545   3.710  18.030  0.00  0.00    +0.000 C 
ATOM     14  O   UNL     1      55.245   4.362  18.798  0.00  0.00    +0.000 OA
ATOM     15  H   UNL     1      55.982   2.341  17.582  0.00  0.00    +0.000 HD
ATOM     16  H   UNL     1      54.556   2.162  16.611  0.00  0.00    +0.000 HD
ENDBRANCH   4  13
ENDBRANCH   1   8
BRANCH   1  17
ATOM     17  C   UNL     1      47.568   5.256  15.221  0.00  0.00    +0.000 A 
ATOM     18  C   UNL     1      48.206   6.263  14.481  0.00  0.00    +0.000 A 
ATOM     19  C   UNL     1      47.796   6.565  13.184  0.00  0.00    +0.000 A 
ATOM     20  C   UNL     1      46.734   5.868  12.614  0.00  0.00    +0.000 A 
ATOM     21  F   UNL     1      46.394   6.171  11.351  0.00  0.00    +0.000 F 
ATOM     22  C   UNL     1      46.020   4.895  13.328  0.00  0.00    +0.000 A 
ATOM     23  C   UNL     1      46.447   4.634  14.641  0.00  0.00    +0.000 A 
BRANCH  22  24
ATOM     24  N   UNL     1      44.986   4.137  12.808  0.00  0.00    +0.000 N 
ATOM     25  C   UNL     1      45.193   3.129  11.761  0.00  0.00    +0.000 C 
ATOM     26  C   UNL     1      44.479   3.528  10.463  0.00  0.00    +0.000 C 
ATOM     27  O   UNL     1      43.093   3.843  10.693  0.00  0.00    +0.000 OA
ATOM     28  C   UNL     1      42.983   4.936  11.618  0.00  0.00    +0.000 C 
ATOM     29  C   UNL     1      43.595   4.582  12.983  0.00  0.00    +0.000 C 
ENDBRANCH  22  24
ENDBRANCH   1  17
TORSDOF 4
ENDMDL
