MODEL 1
REMARK VINA RESULT:    -8.370      0.000      0.000
REMARK INTER + INTRA:         -13.857
REMARK INTER:                 -12.285
REMARK INTRA:                  -1.572
REMARK UNBOUND:                -1.572
REMARK  Name = 
REMARK  8 active torsions:
REMARK  status: ('A' for Active; 'I' for Inactive)
REMARK    1  A    between atoms: C_2  and  C_4
REMARK    2  A    between atoms: C_4  and  C_5
REMARK    3  A    between atoms: C_5  and  N_6
REMARK    4  A    between atoms: C_5  and  C_19
REMARK    5  A    between atoms: C_7  and  C_9
REMARK    6  A    between atoms: C_22  and  C_23
REMARK    7  A    between atoms: C_23  and  N_24
REMARK    8  A    between atoms: C_25  and  C_27
REMARK                            x       y       z     vdW  Elec       q    Type
REMARK                         _______ _______ _______ _____ _____    ______ ____
ROOT
ATOM      1  C   UNL     1      47.889   4.669  15.753  0.00  0.00    +0.000 C 
ENDROOT
BRANCH   1   2
ATOM      2  C   UNL     1      47.187   5.027  14.450  0.00  0.00    +0.000 A 
ATOM      3  C   UNL     1      47.505   6.242  13.816  0.00  0.00    +0.000 A 
ATOM      4  C   UNL     1      46.935   6.587  12.586  0.00  0.00    +0.000 A 
ATOM      5  C   UNL     1      46.013   5.737  11.966  0.00  0.00    +0.000 A 
ATOM      6  C   UNL     1      45.682   4.532  12.599  0.00  0.00    +0.000 A 
ATOM      7  C   UNL     1      46.248   4.191  13.834  0.00  0.00    +0.000 A 
BRANCH   5   8
ATOM      8  C   UNL     1      45.373   6.117  10.658  0.00  0.00    +0.000 C 
BRANCH   8   9
ATOM      9  N   UNL     1      45.795   5.292   9.555  0.00  0.00    +0.000 N 
ATOM     10  C   UNL     1      44.968   4.308   9.062  0.00  0.00    +0.000 C 
ATOM     11  O   UNL     1      43.868   4.053   9.549  0.00  0.00    +0.000 OA
ATOM     12  H   UNL     1      46.623   5.511   9.008  0.00  0.00    +0.000 HD
BRANCH  10  13
ATOM     13  C   UNL     1      45.547   3.480   7.911  0.00  0.00    +0.000 C 
ATOM     14  C   UNL     1      46.057   2.136   8.391  0.00  0.00    +0.000 C 
ATOM     15  C   UNL     1      46.967   1.701   7.260  0.00  0.00    +0.000 C 
ATOM     16  C   UNL     1      47.492   3.004   6.667  0.00  0.00    +0.000 C 
ATOM     17  N   UNL     1      46.767   4.096   7.329  0.00  0.00    +0.000 NA
ATOM     18  H   UNL     1      46.498   4.805   6.647  0.00  0.00    +0.000 HD
ENDBRANCH  10  13
ENDBRANCH   8   9
ENDBRANCH   5   8
ENDBRANCH   1   2
BRANCH   1  19
ATOM     19  N   UNL     1      47.607   5.682  16.770  0.00  0.00    +0.000 N 
ATOM     20  C   UNL     1      48.614   6.202  17.550  0.00  0.00    +0.000 C 
ATOM     21  O   UNL     1      49.789   5.886  17.374  0.00  0.00    +0.000 OA
ATOM     22  H   UNL     1      46.639   5.822  17.044  0.00  0.00    +0.000 HD
BRANCH  20  23
ATOM     23  C   UNL     1      48.246   7.183  18.578  0.00  0.00    +0.000 A 
ATOM     24  C   UNL     1      48.058   6.759  19.888  0.00  0.00    +0.000 A 
ATOM     25  S   UNL     1      47.594   8.004  20.955  0.00  0.00    +0.000 S 
ATOM     26  C   UNL     1      47.587   9.149  19.699  0.00  0.00    +0.000 A 
ATOM     27  N   UNL     1      47.216  10.437  19.933  0.00  0.00    +0.000 NA
ATOM     28  C   UNL     1      47.222  11.190  18.884  0.00  0.00    +0.000 A 
ATOM     29  N   UNL     1      47.580  10.776  17.628  0.00  0.00    +0.000 N 
ATOM     30  C   UNL     1      48.012   9.495  17.354  0.00  0.00    +0.000 A 
ATOM     31  O   UNL     1      48.404   9.170  16.240  0.00  0.00    +0.000 OA
ATOM     32  C   UNL     1      47.978   8.599  18.491  0.00  0.00    +0.000 A 
ATOM     33  H   UNL     1      47.587  11.426  16.856  0.00  0.00    +0.000 HD
ENDBRANCH  20  23
ENDBRANCH   1  19
BRANCH   1  34
ATOM     34  C   UNL     1      47.596   3.265  16.302  0.00  0.00    +0.000 C 
BRANCH  34  36
ATOM     35  N   UNL     1      49.337   2.768  17.944  0.00  0.00    +0.000 N 
ATOM     36  C   UNL     1      48.846   2.513  16.700  0.00  0.00    +0.000 C 
ATOM     37  O   UNL     1      49.389   1.690  15.971  0.00  0.00    +0.000 OA
ATOM     38  H   UNL     1      50.126   2.212  18.242  0.00  0.00    +0.000 HD
ATOM     39  H   UNL     1      48.790   3.233  18.659  0.00  0.00    +0.000 HD
ENDBRANCH  34  36
ENDBRANCH   1  34
TORSDOF 8
ENDMDL
MODEL 2
REMARK VINA RESULT:    -7.660      2.629      4.614
REMARK INTER + INTRA:         -12.815
REMARK INTER:                 -10.931
REMARK INTRA:                  -1.884
REMARK UNBOUND:                -1.572
REMARK  Name = 
REMARK  8 active torsions:
REMARK  status: ('A' for Active; 'I' for Inactive)
REMARK    1  A    between atoms: C_2  and  C_4
REMARK    2  A    between atoms: C_4  and  C_5
REMARK    3  A    between atoms: C_5  and  N_6
REMARK    4  A    between atoms: C_5  and  C_19
REMARK    5  A    between atoms: C_7  and  C_9
REMARK    6  A    between atoms: C_22  and  C_23
REMARK    7  A    between atoms: C_23  and  N_24
REMARK    8  A    between atoms: C_25  and  C_27
REMARK                            x       y       z     vdW  Elec       q    Type
REMARK                         _______ _______ _______ _____ _____    ______ ____
ROOT
ATOM      1  C   UNL     1      47.510   8.259  14.031  0.00  0.00    +0.000 C 
ENDROOT
BRANCH   1   2
ATOM      2  C   UNL     1      46.509   7.536  13.140  0.00  0.00    +0.000 A 
ATOM      3  C   UNL     1      46.474   6.130  13.156  0.00  0.00    +0.000 A 
ATOM      4  C   UNL     1      45.531   5.421  12.404  0.00  0.00    +0.000 A 
ATOM      5  C   UNL     1      44.610   6.099  11.597  0.00  0.00    +0.000 A 
ATOM      6  C   UNL     1      44.648   7.498  11.568  0.00  0.00    +0.000 A 
ATOM      7  C   UNL     1      45.597   8.207  12.315  0.00  0.00    +0.000 A 
BRANCH   5   8
ATOM      8  C   UNL     1      43.613   5.341  10.762  0.00  0.00    +0.000 C 
BRANCH   8   9
ATOM      9  N   UNL     1      44.184   4.776   9.566  0.00  0.00    +0.000 N 
ATOM     10  C   UNL     1      44.372   3.417   9.456  0.00  0.00    +0.000 C 
ATOM     11  O   UNL     1      44.112   2.630  10.365  0.00  0.00    +0.000 OA
ATOM     12  H   UNL     1      44.307   5.326   8.720  0.00  0.00    +0.000 HD
BRANCH  10  13
ATOM     13  C   UNL     1      45.016   2.947   8.149  0.00  0.00    +0.000 C 
ATOM     14  C   UNL     1      46.039   1.855   8.391  0.00  0.00    +0.000 C 
ATOM     15  C   UNL     1      46.852   1.870   7.112  0.00  0.00    +0.000 C 
ATOM     16  C   UNL     1      46.779   3.313   6.628  0.00  0.00    +0.000 C 
ATOM     17  N   UNL     1      45.829   4.010   7.505  0.00  0.00    +0.000 NA
ATOM     18  H   UNL     1      45.221   4.617   6.955  0.00  0.00    +0.000 HD
ENDBRANCH  10  13
ENDBRANCH   8   9
ENDBRANCH   5   8
ENDBRANCH   1   2
BRANCH   1  19
ATOM     19  N   UNL     1      48.347   7.289  14.736  0.00  0.00    +0.000 N 
ATOM     20  C   UNL     1      48.746   7.507  16.035  0.00  0.00    +0.000 C 
ATOM     21  O   UNL     1      48.357   8.488  16.667  0.00  0.00    +0.000 OA
ATOM     22  H   UNL     1      48.813   6.575  14.183  0.00  0.00    +0.000 HD
BRANCH  20  23
ATOM     23  C   UNL     1      49.621   6.508  16.659  0.00  0.00    +0.000 A 
ATOM     24  C   UNL     1      50.899   6.879  17.061  0.00  0.00    +0.000 A 
ATOM     25  S   UNL     1      51.807   5.602  17.730  0.00  0.00    +0.000 S 
ATOM     26  C   UNL     1      50.542   4.496  17.470  0.00  0.00    +0.000 A 
ATOM     27  N   UNL     1      50.693   3.180  17.780  0.00  0.00    +0.000 NA
ATOM     28  C   UNL     1      49.667   2.447  17.498  0.00  0.00    +0.000 A 
ATOM     29  N   UNL     1      48.501   2.914  16.950  0.00  0.00    +0.000 N 
ATOM     30  C   UNL     1      48.286   4.247  16.667  0.00  0.00    +0.000 A 
ATOM     31  O   UNL     1      47.207   4.653  16.253  0.00  0.00    +0.000 OA
ATOM     32  C   UNL     1      49.425   5.103  16.923  0.00  0.00    +0.000 A 
ATOM     33  H   UNL     1      47.728   2.289  16.778  0.00  0.00    +0.000 HD
ENDBRANCH  20  23
ENDBRANCH   1  19
BRANCH   1  34
ATOM     34  C   UNL     1      48.384   9.312  13.333  0.00  0.00    +0.000 C 
BRANCH  34  36
ATOM     35  N   UNL     1      49.449   8.312  11.374  0.00  0.00    +0.000 N 
ATOM     36  C   UNL     1      49.603   8.720  12.665  0.00  0.00    +0.000 C 
ATOM     37  O   UNL     1      50.691   8.628  13.223  0.00  0.00    +0.000 OA
ATOM     38  H   UNL     1      50.281   7.987  10.901  0.00  0.00    +0.000 HD
ATOM     39  H   UNL     1      48.663   8.598  10.804  0.00  0.00    +0.000 HD
ENDBRANCH  34  36
ENDBRANCH   1  34
TORSDOF 8
ENDMDL
MODEL 3
REMARK VINA RESULT:    -7.482      1.497      2.190
REMARK INTER + INTRA:         -12.554
REMARK INTER:                 -10.757
REMARK INTRA:                  -1.797
REMARK UNBOUND:                -1.572
REMARK  Name = 
REMARK  8 active torsions:
REMARK  status: ('A' for Active; 'I' for Inactive)
REMARK    1  A    between atoms: C_2  and  C_4
REMARK    2  A    between atoms: C_4  and  C_5
REMARK    3  A    between atoms: C_5  and  N_6
REMARK    4  A    between atoms: C_5  and  C_19
REMARK    5  A    between atoms: C_7  and  C_9
REMARK    6  A    between atoms: C_22  and  C_23
REMARK    7  A    between atoms: C_23  and  N_24
REMARK    8  A    between atoms: C_25  and  C_27
REMARK                            x       y       z     vdW  Elec       q    Type
REMARK                         _______ _______ _______ _____ _____    ______ ____
ROOT
ATOM      1  C   UNL     1      47.757   4.372  15.313  0.00  0.00    +0.000 C 
ENDROOT
BRANCH   1   2
ATOM      2  C   UNL     1      46.865   4.473  14.083  0.00  0.00    +0.000 A 
ATOM      3  C   UNL     1      46.415   3.290  13.470  0.00  0.00    +0.000 A 
ATOM      4  C   UNL     1      45.543   3.329  12.376  0.00  0.00    +0.000 A 
ATOM      5  C   UNL     1      45.115   4.554  11.850  0.00  0.00    +0.000 A 
ATOM      6  C   UNL     1      45.571   5.734  12.449  0.00  0.00    +0.000 A 
ATOM      7  C   UNL     1      46.450   5.695  13.539  0.00  0.00    +0.000 A 
BRANCH   5   8
ATOM      8  C   UNL     1      44.202   4.602  10.655  0.00  0.00    +0.000 C 
BRANCH   8   9
ATOM      9  N   UNL     1      44.633   3.754   9.573  0.00  0.00    +0.000 N 
ATOM     10  C   UNL     1      45.577   4.194   8.673  0.00  0.00    +0.000 C 
ATOM     11  O   UNL     1      46.063   5.323   8.713  0.00  0.00    +0.000 OA
ATOM     12  H   UNL     1      44.387   2.768   9.535  0.00  0.00    +0.000 HD
BRANCH  10  13
ATOM     13  C   UNL     1      45.923   3.210   7.552  0.00  0.00    +0.000 C 
ATOM     14  C   UNL     1      46.328   1.857   8.102  0.00  0.00    +0.000 C 
ATOM     15  C   UNL     1      47.048   1.222   6.928  0.00  0.00    +0.000 C 
ATOM     16  C   UNL     1      47.646   2.397   6.163  0.00  0.00    +0.000 C 
ATOM     17  N   UNL     1      47.130   3.621   6.791  0.00  0.00    +0.000 NA
ATOM     18  H   UNL     1      46.867   4.300   6.077  0.00  0.00    +0.000 HD
ENDBRANCH  10  13
ENDBRANCH   8   9
ENDBRANCH   5   8
ENDBRANCH   1   2
BRANCH   1  19
ATOM     19  N   UNL     1      47.648   5.592  16.114  0.00  0.00    +0.000 N 
ATOM     20  C   UNL     1      48.756   6.358  16.394  0.00  0.00    +0.000 C 
ATOM     21  O   UNL     1      49.860   6.082  15.926  0.00  0.00    +0.000 OA
ATOM     22  H   UNL     1      46.793   5.736  16.644  0.00  0.00    +0.000 HD
BRANCH  20  23
ATOM     23  C   UNL     1      48.573   7.543  17.239  0.00  0.00    +0.000 A 
ATOM     24  C   UNL     1      48.898   8.797  16.733  0.00  0.00    +0.000 A 
ATOM     25  S   UNL     1      48.670  10.068  17.845  0.00  0.00    +0.000 S 
ATOM     26  C   UNL     1      48.169   8.987  19.058  0.00  0.00    +0.000 A 
ATOM     27  N   UNL     1      47.868   9.433  20.307  0.00  0.00    +0.000 NA
ATOM     28  C   UNL     1      47.537   8.502  21.139  0.00  0.00    +0.000 A 
ATOM     29  N   UNL     1      47.464   7.168  20.829  0.00  0.00    +0.000 N 
ATOM     30  C   UNL     1      47.710   6.677  19.564  0.00  0.00    +0.000 A 
ATOM     31  O   UNL     1      47.560   5.493  19.290  0.00  0.00    +0.000 OA
ATOM     32  C   UNL     1      48.131   7.679  18.606  0.00  0.00    +0.000 A 
ATOM     33  H   UNL     1      47.173   6.496  21.522  0.00  0.00    +0.000 HD
ENDBRANCH  20  23
ENDBRANCH   1  19
BRANCH   1  34
ATOM     34  C   UNL     1      47.538   3.134  16.195  0.00  0.00    +0.000 C 
BRANCH  34  36
ATOM     35  N   UNL     1      49.149   2.919  18.020  0.00  0.00    +0.000 N 
ATOM     36  C   UNL     1      48.825   2.564  16.745  0.00  0.00    +0.000 C 
ATOM     37  O   UNL     1      49.541   1.797  16.110  0.00  0.00    +0.000 OA
ATOM     38  H   UNL     1      49.967   2.480  18.417  0.00  0.00    +0.000 HD
ATOM     39  H   UNL     1      48.477   3.330  18.656  0.00  0.00    +0.000 HD
ENDBRANCH  34  36
ENDBRANCH   1  34
TORSDOF 8
ENDMDL
MODEL 4
REMARK VINA RESULT:    -7.151      2.000      3.696
REMARK INTER + INTRA:         -12.068
REMARK INTER:                 -10.678
REMARK INTRA:                  -1.391
REMARK UNBOUND:                -1.572
REMARK  Name = 
REMARK  8 active torsions:
REMARK  status: ('A' for Active; 'I' for Inactive)
REMARK    1  A    between atoms: C_2  and  C_4
REMARK    2  A    between atoms: C_4  and  C_5
REMARK    3  A    between atoms: C_5  and  N_6
REMARK    4  A    between atoms: C_5  and  C_19
REMARK    5  A    between atoms: C_7  and  C_9
REMARK    6  A    between atoms: C_22  and  C_23
REMARK    7  A    between atoms: C_23  and  N_24
REMARK    8  A    between atoms: C_25  and  C_27
REMARK                            x       y       z     vdW  Elec       q    Type
REMARK                         _______ _______ _______ _____ _____    ______ ____
ROOT
ATOM      1  C   UNL     1      48.480   7.838  14.433  0.00  0.00    +0.000 C 
ENDROOT
BRANCH   1   2
ATOM      2  C   UNL     1      47.368   7.252  13.572  0.00  0.00    +0.000 A 
ATOM      3  C   UNL     1      46.438   8.122  12.976  0.00  0.00    +0.000 A 
ATOM      4  C   UNL     1      45.437   7.639  12.126  0.00  0.00    +0.000 A 
ATOM      5  C   UNL     1      45.325   6.269  11.866  0.00  0.00    +0.000 A 
ATOM      6  C   UNL     1      46.240   5.396  12.468  0.00  0.00    +0.000 A 
ATOM      7  C   UNL     1      47.237   5.880  13.324  0.00  0.00    +0.000 A 
BRANCH   5   8
ATOM      8  C   UNL     1      44.231   5.740  10.978  0.00  0.00    +0.000 C 
BRANCH   8   9
ATOM      9  N   UNL     1      44.724   5.096   9.787  0.00  0.00    +0.000 N 
ATOM     10  C   UNL     1      44.431   3.776   9.534  0.00  0.00    +0.000 C 
ATOM     11  O   UNL     1      43.785   3.074  10.310  0.00  0.00    +0.000 OA
ATOM     12  H   UNL     1      45.152   5.624   9.031  0.00  0.00    +0.000 HD
BRANCH  10  13
ATOM     13  C   UNL     1      45.043   3.202   8.252  0.00  0.00    +0.000 C 
ATOM     14  C   UNL     1      45.804   1.919   8.523  0.00  0.00    +0.000 C 
ATOM     15  C   UNL     1      46.677   1.784   7.292  0.00  0.00    +0.000 C 
ATOM     16  C   UNL     1      46.931   3.218   6.841  0.00  0.00    +0.000 C 
ATOM     17  N   UNL     1      46.092   4.083   7.682  0.00  0.00    +0.000 NA
ATOM     18  H   UNL     1      45.656   4.810   7.115  0.00  0.00    +0.000 HD
ENDBRANCH  10  13
ENDBRANCH   8   9
ENDBRANCH   5   8
ENDBRANCH   1   2
BRANCH   1  19
ATOM     19  N   UNL     1      48.261   7.493  15.838  0.00  0.00    +0.000 N 
ATOM     20  C   UNL     1      48.640   8.350  16.845  0.00  0.00    +0.000 C 
ATOM     21  O   UNL     1      49.110   9.460  16.599  0.00  0.00    +0.000 OA
ATOM     22  H   UNL     1      48.041   6.527  16.060  0.00  0.00    +0.000 HD
BRANCH  20  23
ATOM     23  C   UNL     1      48.427   7.915  18.230  0.00  0.00    +0.000 A 
ATOM     24  C   UNL     1      47.921   8.819  19.157  0.00  0.00    +0.000 A 
ATOM     25  S   UNL     1      47.769   8.179  20.730  0.00  0.00    +0.000 S 
ATOM     26  C   UNL     1      48.412   6.684  20.240  0.00  0.00    +0.000 A 
ATOM     27  N   UNL     1      48.606   5.681  21.139  0.00  0.00    +0.000 NA
ATOM     28  C   UNL     1      49.135   4.614  20.639  0.00  0.00    +0.000 A 
ATOM     29  N   UNL     1      49.470   4.454  19.319  0.00  0.00    +0.000 N 
ATOM     30  C   UNL     1      49.245   5.423  18.364  0.00  0.00    +0.000 A 
ATOM     31  O   UNL     1      49.478   5.227  17.178  0.00  0.00    +0.000 OA
ATOM     32  C   UNL     1      48.696   6.658  18.885  0.00  0.00    +0.000 A 
ATOM     33  H   UNL     1      49.857   3.582  18.991  0.00  0.00    +0.000 HD
ENDBRANCH  20  23
ENDBRANCH   1  19
BRANCH   1  34
ATOM     34  C   UNL     1      49.911   7.474  14.010  0.00  0.00    +0.000 C 
BRANCH  34  36
ATOM     35  N   UNL     1      50.716   7.364  11.705  0.00  0.00    +0.000 N 
ATOM     36  C   UNL     1      50.347   8.168  12.740  0.00  0.00    +0.000 C 
ATOM     37  O   UNL     1      50.349   9.388  12.614  0.00  0.00    +0.000 OA
ATOM     38  H   UNL     1      50.935   7.822  10.832  0.00  0.00    +0.000 HD
ATOM     39  H   UNL     1      50.490   6.377  11.677  0.00  0.00    +0.000 HD
ENDBRANCH  34  36
ENDBRANCH   1  34
TORSDOF 8
ENDMDL
MODEL 5
REMARK VINA RESULT:    -6.707      2.987      4.261
REMARK INTER + INTRA:         -11.417
REMARK INTER:                 -10.158
REMARK INTRA:                  -1.258
REMARK UNBOUND:                -1.572
REMARK  Name = 
REMARK  8 active torsions:
REMARK  status: ('A' for Active; 'I' for Inactive)
REMARK    1  A    between atoms: C_2  and  C_4
REMARK    2  A    between atoms: C_4  and  C_5
REMARK    3  A    between atoms: C_5  and  N_6
REMARK    4  A    between atoms: C_5  and  C_19
REMARK    5  A    between atoms: C_7  and  C_9
REMARK    6  A    between atoms: C_22  and  C_23
REMARK    7  A    between atoms: C_23  and  N_24
REMARK    8  A    between atoms: C_25  and  C_27
REMARK                            x       y       z     vdW  Elec       q    Type
REMARK                         _______ _______ _______ _____ _____    ______ ____
ROOT
ATOM      1  C   UNL     1      47.244   7.145  14.071  0.00  0.00    +0.000 C 
ENDROOT
BRANCH   1   2
ATOM      2  C   UNL     1      46.373   6.211  13.241  0.00  0.00    +0.000 A 
ATOM      3  C   UNL     1      45.499   6.763  12.288  0.00  0.00    +0.000 A 
ATOM      4  C   UNL     1      44.725   5.946  11.457  0.00  0.00    +0.000 A 
ATOM      5  C   UNL     1      44.788   4.552  11.571  0.00  0.00    +0.000 A 
ATOM      6  C   UNL     1      45.647   3.998  12.528  0.00  0.00    +0.000 A 
ATOM      7  C   UNL     1      46.416   4.817  13.364  0.00  0.00    +0.000 A 
BRANCH   5   8
ATOM      8  C   UNL     1      43.935   3.669  10.702  0.00  0.00    +0.000 C 
BRANCH   8   9
ATOM      9  N   UNL     1      44.682   2.980   9.681  0.00  0.00    +0.000 N 
ATOM     10  C   UNL     1      45.145   3.658   8.576  0.00  0.00    +0.000 C 
ATOM     11  O   UNL     1      44.916   4.850   8.379  0.00  0.00    +0.000 OA
ATOM     12  H   UNL     1      45.029   2.034   9.818  0.00  0.00    +0.000 HD
BRANCH  10  13
ATOM     13  C   UNL     1      45.896   2.805   7.550  0.00  0.00    +0.000 C 
ATOM     14  C   UNL     1      46.321   1.472   8.135  0.00  0.00    +0.000 C 
ATOM     15  C   UNL     1      47.396   1.013   7.171  0.00  0.00    +0.000 C 
ATOM     16  C   UNL     1      48.011   2.302   6.638  0.00  0.00    +0.000 C 
ATOM     17  N   UNL     1      47.193   3.408   7.153  0.00  0.00    +0.000 NA
ATOM     18  H   UNL     1      47.037   4.101   6.421  0.00  0.00    +0.000 HD
ENDBRANCH  10  13
ENDBRANCH   8   9
ENDBRANCH   5   8
ENDBRANCH   1   2
BRANCH   1  19
ATOM     19  N   UNL     1      48.190   6.368  14.873  0.00  0.00    +0.000 N 
ATOM     20  C   UNL     1      48.758   6.897  16.009  0.00  0.00    +0.000 C 
ATOM     21  O   UNL     1      48.438   8.008  16.427  0.00  0.00    +0.000 OA
ATOM     22  H   UNL     1      48.591   5.533  14.455  0.00  0.00    +0.000 HD
BRANCH  20  23
ATOM     23  C   UNL     1      49.731   6.072  16.736  0.00  0.00    +0.000 A 
ATOM     24  C   UNL     1      49.276   5.132  17.653  0.00  0.00    +0.000 A 
ATOM     25  S   UNL     1      50.524   4.284  18.444  0.00  0.00    +0.000 S 
ATOM     26  C   UNL     1      51.719   5.170  17.622  0.00  0.00    +0.000 A 
ATOM     27  N   UNL     1      53.039   4.969  17.884  0.00  0.00    +0.000 NA
ATOM     28  C   UNL     1      53.836   5.734  17.215  0.00  0.00    +0.000 A 
ATOM     29  N   UNL     1      53.433   6.669  16.297  0.00  0.00    +0.000 N 
ATOM     30  C   UNL     1      52.110   6.871  15.963  0.00  0.00    +0.000 A 
ATOM     31  O   UNL     1      51.780   7.655  15.082  0.00  0.00    +0.000 OA
ATOM     32  C   UNL     1      51.174   6.068  16.722  0.00  0.00    +0.000 A 
ATOM     33  H   UNL     1      54.112   7.216  15.791  0.00  0.00    +0.000 HD
ENDBRANCH  20  23
ENDBRANCH   1  19
BRANCH   1  34
ATOM     34  C   UNL     1      47.981   8.241  13.287  0.00  0.00    +0.000 C 
BRANCH  34  36
ATOM     35  N   UNL     1      49.315   8.456  11.251  0.00  0.00    +0.000 N 
ATOM     36  C   UNL     1      49.023   7.691  12.340  0.00  0.00    +0.000 C 
ATOM     37  O   UNL     1      49.609   6.632  12.534  0.00  0.00    +0.000 OA
ATOM     38  H   UNL     1      50.064   8.129  10.657  0.00  0.00    +0.000 HD
ATOM     39  H   UNL     1      49.052   9.432  11.186  0.00  0.00    +0.000 HD
ENDBRANCH  34  36
ENDBRANCH   1  34
TORSDOF 8
ENDMDL
MODEL 6
REMARK VINA RESULT:    -6.700      4.563      7.593
REMARK INTER + INTRA:         -11.405
REMARK INTER:                  -9.949
REMARK INTRA:                  -1.456
REMARK UNBOUND:                -1.572
REMARK  Name = 
REMARK  8 active torsions:
REMARK  status: ('A' for Active; 'I' for Inactive)
REMARK    1  A    between atoms: C_2  and  C_4
REMARK    2  A    between atoms: C_4  and  C_5
REMARK    3  A    between atoms: C_5  and  N_6
REMARK    4  A    between atoms: C_5  and  C_19
REMARK    5  A    between atoms: C_7  and  C_9
REMARK    6  A    between atoms: C_22  and  C_23
REMARK    7  A    between atoms: C_23  and  N_24
REMARK    8  A    between atoms: C_25  and  C_27
REMARK                            x       y       z     vdW  Elec       q    Type
REMARK                         _______ _______ _______ _____ _____    ______ ____
ROOT
ATOM      1  C   UNL     1      47.546   5.996  14.710  0.00  0.00    +0.000 C 
ENDROOT
BRANCH   1   2
ATOM      2  C   UNL     1      48.586   6.804  13.945  0.00  0.00    +0.000 A 
ATOM      3  C   UNL     1      49.471   7.629  14.663  0.00  0.00    +0.000 A 
ATOM      4  C   UNL     1      50.484   8.342  14.012  0.00  0.00    +0.000 A 
ATOM      5  C   UNL     1      50.627   8.266  12.622  0.00  0.00    +0.000 A 
ATOM      6  C   UNL     1      49.741   7.456  11.902  0.00  0.00    +0.000 A 
ATOM      7  C   UNL     1      48.722   6.749  12.553  0.00  0.00    +0.000 A 
BRANCH   5   8
ATOM      8  C   UNL     1      51.695   9.054  11.914  0.00  0.00    +0.000 C 
BRANCH   8   9
ATOM      9  N   UNL     1      52.147   8.435  10.694  0.00  0.00    +0.000 N 
ATOM     10  C   UNL     1      53.291   7.670  10.681  0.00  0.00    +0.000 C 
ATOM     11  O   UNL     1      54.000   7.510  11.673  0.00  0.00    +0.000 OA
ATOM     12  H   UNL     1      51.564   8.403   9.862  0.00  0.00    +0.000 HD
BRANCH  10  13
ATOM     13  C   UNL     1      53.681   7.096   9.315  0.00  0.00    +0.000 C 
ATOM     14  C   UNL     1      52.503   7.076   8.361  0.00  0.00    +0.000 C 
ATOM     15  C   UNL     1      52.951   6.092   7.300  0.00  0.00    +0.000 C 
ATOM     16  C   UNL     1      53.872   5.126   8.036  0.00  0.00    +0.000 C 
ATOM     17  N   UNL     1      54.055   5.661   9.391  0.00  0.00    +0.000 NA
ATOM     18  H   UNL     1      55.032   5.579   9.673  0.00  0.00    +0.000 HD
ENDBRANCH  10  13
ENDBRANCH   8   9
ENDBRANCH   5   8
ENDBRANCH   1   2
BRANCH   1  19
ATOM     19  N   UNL     1      46.808   5.129  13.791  0.00  0.00    +0.000 N 
ATOM     20  C   UNL     1      45.667   5.571  13.162  0.00  0.00    +0.000 C 
ATOM     21  O   UNL     1      45.269   6.727  13.296  0.00  0.00    +0.000 OA
ATOM     22  H   UNL     1      47.019   4.136  13.805  0.00  0.00    +0.000 HD
BRANCH  20  23
ATOM     23  C   UNL     1      44.959   4.629  12.288  0.00  0.00    +0.000 A 
ATOM     24  C   UNL     1      44.147   3.654  12.855  0.00  0.00    +0.000 A 
ATOM     25  S   UNL     1      43.426   2.611  11.716  0.00  0.00    +0.000 S 
ATOM     26  C   UNL     1      44.204   3.398  10.426  0.00  0.00    +0.000 A 
ATOM     27  N   UNL     1      44.053   2.956   9.148  0.00  0.00    +0.000 NA
ATOM     28  C   UNL     1      44.728   3.622   8.272  0.00  0.00    +0.000 A 
ATOM     29  N   UNL     1      45.526   4.700   8.556  0.00  0.00    +0.000 N 
ATOM     30  C   UNL     1      45.669   5.213   9.828  0.00  0.00    +0.000 A 
ATOM     31  O   UNL     1      46.323   6.226  10.047  0.00  0.00    +0.000 OA
ATOM     32  C   UNL     1      44.967   4.470  10.854  0.00  0.00    +0.000 A 
ATOM     33  H   UNL     1      46.007   5.192   7.818  0.00  0.00    +0.000 HD
ENDBRANCH  20  23
ENDBRANCH   1  19
BRANCH   1  34
ATOM     34  C   UNL     1      48.078   5.183  15.900  0.00  0.00    +0.000 C 
BRANCH  34  36
ATOM     35  N   UNL     1      46.708   3.461  16.961  0.00  0.00    +0.000 N 
ATOM     36  C   UNL     1      47.548   3.768  15.935  0.00  0.00    +0.000 C 
ATOM     37  O   UNL     1      47.821   2.933  15.080  0.00  0.00    +0.000 OA
ATOM     38  H   UNL     1      46.291   2.541  16.945  0.00  0.00    +0.000 HD
ATOM     39  H   UNL     1      46.261   4.171  17.529  0.00  0.00    +0.000 HD
ENDBRANCH  34  36
ENDBRANCH   1  34
TORSDOF 8
ENDMDL
MODEL 7
REMARK VINA RESULT:    -6.674      2.746      3.934
REMARK INTER + INTRA:         -11.368
REMARK INTER:                  -9.947
REMARK INTRA:                  -1.421
REMARK UNBOUND:                -1.572
REMARK  Name = 
REMARK  8 active torsions:
REMARK  status: ('A' for Active; 'I' for Inactive)
REMARK    1  A    between atoms: C_2  and  C_4
REMARK    2  A    between atoms: C_4  and  C_5
REMARK    3  A    between atoms: C_5  and  N_6
REMARK    4  A    between atoms: C_5  and  C_19
REMARK    5  A    between atoms: C_7  and  C_9
REMARK    6  A    between atoms: C_22  and  C_23
REMARK    7  A    between atoms: C_23  and  N_24
REMARK    8  A    between atoms: C_25  and  C_27
REMARK                            x       y       z     vdW  Elec       q    Type
REMARK                         _______ _______ _______ _____ _____    ______ ____
ROOT
ATOM      1  C   UNL     1      47.333   7.352  14.076  0.00  0.00    +0.000 C 
ENDROOT
BRANCH   1   2
ATOM      2  C   UNL     1      46.533   6.298  13.323  0.00  0.00    +0.000 A 
ATOM      3  C   UNL     1      45.654   6.708  12.304  0.00  0.00    +0.000 A 
ATOM      4  C   UNL     1      44.945   5.774  11.541  0.00  0.00    +0.000 A 
ATOM      5  C   UNL     1      45.078   4.404  11.790  0.00  0.00    +0.000 A 
ATOM      6  C   UNL     1      45.942   3.990  12.812  0.00  0.00    +0.000 A 
ATOM      7  C   UNL     1      46.646   4.926  13.580  0.00  0.00    +0.000 A 
BRANCH   5   8
ATOM      8  C   UNL     1      44.295   3.396  10.993  0.00  0.00    +0.000 C 
BRANCH   8   9
ATOM      9  N   UNL     1      45.039   2.833   9.895  0.00  0.00    +0.000 N 
ATOM     10  C   UNL     1      44.990   3.414   8.648  0.00  0.00    +0.000 C 
ATOM     11  O   UNL     1      44.294   4.395   8.394  0.00  0.00    +0.000 OA
ATOM     12  H   UNL     1      45.737   2.109  10.037  0.00  0.00    +0.000 HD
BRANCH  10  13
ATOM     13  C   UNL     1      45.799   2.701   7.561  0.00  0.00    +0.000 C 
ATOM     14  C   UNL     1      46.368   1.388   8.059  0.00  0.00    +0.000 C 
ATOM     15  C   UNL     1      47.461   1.095   7.051  0.00  0.00    +0.000 C 
ATOM     16  C   UNL     1      47.931   2.467   6.583  0.00  0.00    +0.000 C 
ATOM     17  N   UNL     1      47.019   3.454   7.177  0.00  0.00    +0.000 NA
ATOM     18  H   UNL     1      46.776   4.168   6.489  0.00  0.00    +0.000 HD
ENDBRANCH  10  13
ENDBRANCH   8   9
ENDBRANCH   5   8
ENDBRANCH   1   2
BRANCH   1  19
ATOM     19  N   UNL     1      48.226   6.711  15.041  0.00  0.00    +0.000 N 
ATOM     20  C   UNL     1      48.690   7.394  16.141  0.00  0.00    +0.000 C 
ATOM     21  O   UNL     1      48.316   8.540  16.387  0.00  0.00    +0.000 OA
ATOM     22  H   UNL     1      48.676   5.842  14.765  0.00  0.00    +0.000 HD
BRANCH  20  23
ATOM     23  C   UNL     1      49.616   6.697  17.040  0.00  0.00    +0.000 A 
ATOM     24  C   UNL     1      50.915   6.442  16.615  0.00  0.00    +0.000 A 
ATOM     25  S   UNL     1      51.856   5.590  17.752  0.00  0.00    +0.000 S 
ATOM     26  C   UNL     1      50.551   5.493  18.838  0.00  0.00    +0.000 A 
ATOM     27  N   UNL     1      50.675   4.825  20.016  0.00  0.00    +0.000 NA
ATOM     28  C   UNL     1      49.597   4.799  20.728  0.00  0.00    +0.000 A 
ATOM     29  N   UNL     1      48.413   5.393  20.373  0.00  0.00    +0.000 N 
ATOM     30  C   UNL     1      48.258   6.123  19.213  0.00  0.00    +0.000 A 
ATOM     31  O   UNL     1      47.215   6.713  18.957  0.00  0.00    +0.000 OA
ATOM     32  C   UNL     1      49.427   6.142  18.359  0.00  0.00    +0.000 A 
ATOM     33  H   UNL     1      47.616   5.355  20.990  0.00  0.00    +0.000 HD
ENDBRANCH  20  23
ENDBRANCH   1  19
BRANCH   1  34
ATOM     34  C   UNL     1      48.114   8.345  13.202  0.00  0.00    +0.000 C 
BRANCH  34  36
ATOM     35  N   UNL     1      49.498   8.311  11.188  0.00  0.00    +0.000 N 
ATOM     36  C   UNL     1      49.170   7.679  12.349  0.00  0.00    +0.000 C 
ATOM     37  O   UNL     1      49.736   6.642  12.677  0.00  0.00    +0.000 OA
ATOM     38  H   UNL     1      50.256   7.910  10.653  0.00  0.00    +0.000 HD
ATOM     39  H   UNL     1      49.251   9.276  11.006  0.00  0.00    +0.000 HD
ENDBRANCH  34  36
ENDBRANCH   1  34
TORSDOF 8
ENDMDL
MODEL 8
REMARK VINA RESULT:    -6.553      3.897      9.005
REMARK INTER + INTRA:         -11.189
REMARK INTER:                  -9.644
REMARK INTRA:                  -1.545
REMARK UNBOUND:                -1.572
REMARK  Name = 
REMARK  8 active torsions:
REMARK  status: ('A' for Active; 'I' for Inactive)
REMARK    1  A    between atoms: C_2  and  C_4
REMARK    2  A    between atoms: C_4  and  C_5
REMARK    3  A    between atoms: C_5  and  N_6
REMARK    4  A    between atoms: C_5  and  C_19
REMARK    5  A    between atoms: C_7  and  C_9
REMARK    6  A    between atoms: C_22  and  C_23
REMARK    7  A    between atoms: C_23  and  N_24
REMARK    8  A    between atoms: C_25  and  C_27
REMARK                            x       y       z     vdW  Elec       q    Type
REMARK                         _______ _______ _______ _____ _____    ______ ____
ROOT
ATOM      1  C   UNL     1      48.255   7.210  14.604  0.00  0.00    +0.000 C 
ENDROOT
BRANCH   1   2
ATOM      2  C   UNL     1      48.769   6.234  15.653  0.00  0.00    +0.000 A 
ATOM      3  C   UNL     1      50.024   6.467  16.244  0.00  0.00    +0.000 A 
ATOM      4  C   UNL     1      50.512   5.635  17.258  0.00  0.00    +0.000 A 
ATOM      5  C   UNL     1      49.768   4.533  17.694  0.00  0.00    +0.000 A 
ATOM      6  C   UNL     1      48.523   4.288  17.100  0.00  0.00    +0.000 A 
ATOM      7  C   UNL     1      48.039   5.117  16.080  0.00  0.00    +0.000 A 
BRANCH   5   8
ATOM      8  C   UNL     1      50.301   3.617  18.762  0.00  0.00    +0.000 C 
BRANCH   8   9
ATOM      9  N   UNL     1      51.650   3.177  18.516  0.00  0.00    +0.000 N 
ATOM     10  C   UNL     1      51.891   2.035  17.787  0.00  0.00    +0.000 C 
ATOM     11  O   UNL     1      50.992   1.317  17.353  0.00  0.00    +0.000 OA
ATOM     12  H   UNL     1      52.452   3.768  18.720  0.00  0.00    +0.000 HD
BRANCH  10  13
ATOM     13  C   UNL     1      53.367   1.658  17.625  0.00  0.00    +0.000 C 
ATOM     14  C   UNL     1      53.528   0.294  16.985  0.00  0.00    +0.000 C 
ATOM     15  C   UNL     1      54.957  -0.071  17.334  0.00  0.00    +0.000 C 
ATOM     16  C   UNL     1      55.221   0.634  18.659  0.00  0.00    +0.000 C 
ATOM     17  N   UNL     1      54.053   1.483  18.930  0.00  0.00    +0.000 NA
ATOM     18  H   UNL     1      54.352   2.393  19.282  0.00  0.00    +0.000 HD
ENDBRANCH  10  13
ENDBRANCH   8   9
ENDBRANCH   5   8
ENDBRANCH   1   2
BRANCH   1  19
ATOM     19  N   UNL     1      47.032   6.690  13.991  0.00  0.00    +0.000 N 
ATOM     20  C   UNL     1      46.856   6.717  12.627  0.00  0.00    +0.000 C 
ATOM     21  O   UNL     1      47.745   7.113  11.874  0.00  0.00    +0.000 OA
ATOM     22  H   UNL     1      46.232   6.525  14.595  0.00  0.00    +0.000 HD
BRANCH  20  23
ATOM     23  C   UNL     1      45.585   6.217  12.090  0.00  0.00    +0.000 A 
ATOM     24  C   UNL     1      44.691   7.111  11.514  0.00  0.00    +0.000 A 
ATOM     25  S   UNL     1      43.245   6.388  10.975  0.00  0.00    +0.000 S 
ATOM     26  C   UNL     1      43.741   4.859  11.530  0.00  0.00    +0.000 A 
ATOM     27  N   UNL     1      42.921   3.780  11.424  0.00  0.00    +0.000 NA
ATOM     28  C   UNL     1      43.410   2.690  11.917  0.00  0.00    +0.000 A 
ATOM     29  N   UNL     1      44.649   2.581  12.492  0.00  0.00    +0.000 N 
ATOM     30  C   UNL     1      45.534   3.637  12.575  0.00  0.00    +0.000 A 
ATOM     31  O   UNL     1      46.666   3.496  13.019  0.00  0.00    +0.000 OA
ATOM     32  C   UNL     1      45.013   4.892  12.076  0.00  0.00    +0.000 A 
ATOM     33  H   UNL     1      44.979   1.692  12.835  0.00  0.00    +0.000 HD
ENDBRANCH  20  23
ENDBRANCH   1  19
BRANCH   1  34
ATOM     34  C   UNL     1      48.040   8.652  15.085  0.00  0.00    +0.000 C 
BRANCH  34  36
ATOM     35  N   UNL     1      48.699  10.968  14.666  0.00  0.00    +0.000 N 
ATOM     36  C   UNL     1      48.861   9.661  14.316  0.00  0.00    +0.000 C 
ATOM     37  O   UNL     1      49.660   9.344  13.442  0.00  0.00    +0.000 OA
ATOM     38  H   UNL     1      49.302  11.637  14.208  0.00  0.00    +0.000 HD
ATOM     39  H   UNL     1      48.257  11.247  15.534  0.00  0.00    +0.000 HD
ENDBRANCH  34  36
ENDBRANCH   1  34
TORSDOF 8
ENDMDL
MODEL 9
REMARK VINA RESULT:    -6.475      3.276      5.315
REMARK INTER + INTRA:         -11.075
REMARK INTER:                  -9.790
REMARK INTRA:                  -1.285
REMARK UNBOUND:                -1.572
REMARK  Name = 
REMARK  8 active torsions:
REMARK  status: ('A' for Active; 'I' for Inactive)
REMARK    1  A    between atoms: C_2  and  C_4
REMARK    2  A    between atoms: C_4  and  C_5
REMARK    3  A    between atoms: C_5  and  N_6
REMARK    4  A    between atoms: C_5  and  C_19
REMARK    5  A    between atoms: C_7  and  C_9
REMARK    6  A    between atoms: C_22  and  C_23
REMARK    7  A    between atoms: C_23  and  N_24
REMARK    8  A    between atoms: C_25  and  C_27
REMARK                            x       y       z     vdW  Elec       q    Type
REMARK                         _______ _______ _______ _____ _____    ______ ____
ROOT
ATOM      1  C   UNL     1      48.396   5.023  17.414  0.00  0.00    +0.000 C 
ENDROOT
BRANCH   1   2
ATOM      2  C   UNL     1      48.107   5.500  15.997  0.00  0.00    +0.000 A 
ATOM      3  C   UNL     1      47.240   4.745  15.187  0.00  0.00    +0.000 A 
ATOM      4  C   UNL     1      46.894   5.174  13.901  0.00  0.00    +0.000 A 
ATOM      5  C   UNL     1      47.423   6.360  13.380  0.00  0.00    +0.000 A 
ATOM      6  C   UNL     1      48.297   7.109  14.177  0.00  0.00    +0.000 A 
ATOM      7  C   UNL     1      48.649   6.675  15.462  0.00  0.00    +0.000 A 
BRANCH   5   8
ATOM      8  C   UNL     1      47.078   6.811  11.987  0.00  0.00    +0.000 C 
BRANCH   8   9
ATOM      9  N   UNL     1      46.393   5.806  11.215  0.00  0.00    +0.000 N 
ATOM     10  C   UNL     1      45.045   5.919  10.961  0.00  0.00    +0.000 C 
ATOM     11  O   UNL     1      44.356   6.837  11.404  0.00  0.00    +0.000 OA
ATOM     12  H   UNL     1      46.897   5.087  10.703  0.00  0.00    +0.000 HD
BRANCH  10  13
ATOM     13  C   UNL     1      44.429   4.769  10.158  0.00  0.00    +0.000 C 
ATOM     14  C   UNL     1      44.840   3.419  10.712  0.00  0.00    +0.000 C 
ATOM     15  C   UNL     1      44.538   2.481   9.561  0.00  0.00    +0.000 C 
ATOM     16  C   UNL     1      44.722   3.334   8.311  0.00  0.00    +0.000 C 
ATOM     17  N   UNL     1      44.942   4.713   8.766  0.00  0.00    +0.000 NA
ATOM     18  H   UNL     1      44.415   5.365   8.183  0.00  0.00    +0.000 HD
ENDBRANCH  10  13
ENDBRANCH   8   9
ENDBRANCH   5   8
ENDBRANCH   1   2
BRANCH   1  19
ATOM     19  N   UNL     1      49.743   4.458  17.489  0.00  0.00    +0.000 N 
ATOM     20  C   UNL     1      49.941   3.096  17.503  0.00  0.00    +0.000 C 
ATOM     21  O   UNL     1      49.001   2.312  17.384  0.00  0.00    +0.000 OA
ATOM     22  H   UNL     1      50.502   5.076  17.760  0.00  0.00    +0.000 HD
BRANCH  20  23
ATOM     23  C   UNL     1      51.319   2.606  17.623  0.00  0.00    +0.000 A 
ATOM     24  C   UNL     1      51.593   1.271  17.349  0.00  0.00    +0.000 A 
ATOM     25  S   UNL     1      53.227   0.844  17.572  0.00  0.00    +0.000 S 
ATOM     26  C   UNL     1      53.623   2.416  18.084  0.00  0.00    +0.000 A 
ATOM     27  N   UNL     1      54.886   2.721  18.486  0.00  0.00    +0.000 NA
ATOM     28  C   UNL     1      55.038   3.941  18.883  0.00  0.00    +0.000 A 
ATOM     29  N   UNL     1      54.045   4.886  18.898  0.00  0.00    +0.000 N 
ATOM     30  C   UNL     1      52.764   4.636  18.453  0.00  0.00    +0.000 A 
ATOM     31  O   UNL     1      51.916   5.518  18.400  0.00  0.00    +0.000 OA
ATOM     32  C   UNL     1      52.532   3.267  18.040  0.00  0.00    +0.000 A 
ATOM     33  H   UNL     1      54.240   5.829  19.197  0.00  0.00    +0.000 HD
ENDBRANCH  20  23
ENDBRANCH   1  19
BRANCH   1  34
ATOM     34  C   UNL     1      48.193   6.067  18.522  0.00  0.00    +0.000 C 
BRANCH  34  36
ATOM     35  N   UNL     1      47.121   5.552  20.657  0.00  0.00    +0.000 N 
ATOM     36  C   UNL     1      48.258   5.476  19.911  0.00  0.00    +0.000 C 
ATOM     37  O   UNL     1      49.260   4.925  20.356  0.00  0.00    +0.000 OA
ATOM     38  H   UNL     1      47.137   5.091  21.556  0.00  0.00    +0.000 HD
ATOM     39  H   UNL     1      46.217   5.760  20.250  0.00  0.00    +0.000 HD
ENDBRANCH  34  36
ENDBRANCH   1  34
TORSDOF 8
ENDMDL
