MODEL 1
REMARK VINA RESULT:    -9.136      0.000      0.000
REMARK INTER + INTRA:         -13.961
REMARK INTER:                 -12.874
REMARK INTRA:                  -1.087
REMARK UNBOUND:                -1.087
REMARK  Name = 
REMARK  7 active torsions:
REMARK  status: ('A' for Active; 'I' for Inactive)
REMARK    1  A    between atoms: C_2  and  C_4
REMARK    2  A    between atoms: C_7  and  N_8
REMARK    3  A    between atoms: N_8  and  C_9
REMARK    4  A    between atoms: C_9  and  C_10
REMARK    5  A    between atoms: C_10  and  C_13
REMARK    6  A    between atoms: C_18  and  O_19
REMARK    7  A    between atoms: O_19  and  C_20
REMARK                            x       y       z     vdW  Elec       q    Type
REMARK                         _______ _______ _______ _____ _____    ______ ____
ROOT
ATOM      1  C   UNL     1      44.018   4.776  12.516  0.00  0.00    +0.000 C 
ATOM      2  F   UNL     1      43.102   5.417  13.303  0.00  0.00    +0.000 F 
ATOM      3  F   UNL     1      43.893   3.451  12.831  0.00  0.00    +0.000 F 
ENDROOT
BRANCH   1   4
ATOM      4  C   UNL     1      45.423   5.291  12.770  0.00  0.00    +0.000 A 
ATOM      5  C   UNL     1      46.034   6.163  11.860  0.00  0.00    +0.000 A 
ATOM      6  C   UNL     1      47.315   6.644  12.111  0.00  0.00    +0.000 A 
ATOM      7  F   UNL     1      47.880   7.491  11.240  0.00  0.00    +0.000 F 
ATOM      8  C   UNL     1      48.022   6.270  13.250  0.00  0.00    +0.000 A 
ATOM      9  C   UNL     1      47.433   5.390  14.153  0.00  0.00    +0.000 A 
ATOM     10  C   UNL     1      46.138   4.911  13.918  0.00  0.00    +0.000 A 
BRANCH   9  11
ATOM     11  O   UNL     1      48.017   4.964  15.319  0.00  0.00    +0.000 OA
BRANCH  11  12
ATOM     12  C   UNL     1      47.239   4.156  16.234  0.00  0.00    +0.000 C 
ATOM     13  C   UNL     1      47.193   4.594  17.713  0.00  0.00    +0.000 C 
ATOM     14  N   UNL     1      47.560   3.234  18.139  0.00  0.00    +0.000 NA
ATOM     15  C   UNL     1      47.955   2.896  16.762  0.00  0.00    +0.000 C 
ATOM     16  H   UNL     1      46.778   2.682  18.492  0.00  0.00    +0.000 HD
ENDBRANCH  11  12
ENDBRANCH   9  11
ENDBRANCH   1   4
BRANCH   1  17
ATOM     17  C   UNL     1      43.614   4.956  11.029  0.00  0.00    +0.000 C 
BRANCH  17  18
ATOM     18  N   UNL     1      43.666   3.700  10.261  0.00  0.00    +0.000 N 
ATOM     19  H   UNL     1      43.296   2.885  10.750  0.00  0.00    +0.000 HD
BRANCH  18  23
ATOM     20  C   UNL     1      46.662   2.700   7.466  0.00  0.00    +0.000 A 
ATOM     21  C   UNL     1      46.300   4.038   7.639  0.00  0.00    +0.000 A 
ATOM     22  C   UNL     1      45.324   4.385   8.580  0.00  0.00    +0.000 A 
ATOM     23  C   UNL     1      44.709   3.419   9.386  0.00  0.00    +0.000 A 
ATOM     24  C   UNL     1      45.072   2.080   9.185  0.00  0.00    +0.000 A 
ATOM     25  C   UNL     1      46.034   1.717   8.232  0.00  0.00    +0.000 A 
BRANCH  20  27
ATOM     26  N   UNL     1      47.781   3.069   5.335  0.00  0.00    +0.000 N 
ATOM     27  C   UNL     1      47.665   2.287   6.450  0.00  0.00    +0.000 C 
ATOM     28  O   UNL     1      48.377   1.303   6.608  0.00  0.00    +0.000 OA
ATOM     29  H   UNL     1      48.532   2.832   4.698  0.00  0.00    +0.000 HD
ATOM     30  H   UNL     1      47.401   4.003   5.286  0.00  0.00    +0.000 HD
ENDBRANCH  20  27
ENDBRANCH  18  23
ENDBRANCH  17  18
ENDBRANCH   1  17
TORSDOF 7
ENDMDL
MODEL 2
REMARK VINA RESULT:    -8.367      2.630      3.624
REMARK INTER + INTRA:         -12.878
REMARK INTER:                 -11.839
REMARK INTRA:                  -1.038
REMARK UNBOUND:                -1.087
REMARK  Name = 
REMARK  7 active torsions:
REMARK  status: ('A' for Active; 'I' for Inactive)
REMARK    1  A    between atoms: C_2  and  C_4
REMARK    2  A    between atoms: C_7  and  N_8
REMARK    3  A    between atoms: N_8  and  C_9
REMARK    4  A    between atoms: C_9  and  C_10
REMARK    5  A    between atoms: C_10  and  C_13
REMARK    6  A    between atoms: C_18  and  O_19
REMARK    7  A    between atoms: O_19  and  C_20
REMARK                            x       y       z     vdW  Elec       q    Type
REMARK                         _______ _______ _______ _____ _____    ______ ____
ROOT
ATOM      1  C   UNL     1      43.533   5.532  12.205  0.00  0.00    +0.000 C 
ATOM      2  F   UNL     1      43.108   6.633  11.514  0.00  0.00    +0.000 F 
ATOM      3  F   UNL     1      42.721   5.466  13.304  0.00  0.00    +0.000 F 
ENDROOT
BRANCH   1   4
ATOM      4  C   UNL     1      44.997   5.648  12.586  0.00  0.00    +0.000 A 
ATOM      5  C   UNL     1      45.522   4.874  13.628  0.00  0.00    +0.000 A 
ATOM      6  C   UNL     1      46.871   4.973  13.957  0.00  0.00    +0.000 A 
ATOM      7  F   UNL     1      47.363   4.214  14.944  0.00  0.00    +0.000 F 
ATOM      8  C   UNL     1      47.722   5.841  13.279  0.00  0.00    +0.000 A 
ATOM      9  C   UNL     1      47.209   6.628  12.253  0.00  0.00    +0.000 A 
ATOM     10  C   UNL     1      45.856   6.526  11.903  0.00  0.00    +0.000 A 
BRANCH   9  11
ATOM     11  O   UNL     1      47.949   7.503  11.499  0.00  0.00    +0.000 OA
BRANCH  11  12
ATOM     12  C   UNL     1      49.191   8.012  12.041  0.00  0.00    +0.000 C 
ATOM     13  C   UNL     1      49.560   9.478  11.730  0.00  0.00    +0.000 C 
ATOM     14  N   UNL     1      50.896   9.059  11.279  0.00  0.00    +0.000 NA
ATOM     15  C   UNL     1      50.452   7.657  11.227  0.00  0.00    +0.000 C 
ATOM     16  H   UNL     1      51.638   9.231  11.958  0.00  0.00    +0.000 HD
ENDBRANCH  11  12
ENDBRANCH   9  11
ENDBRANCH   1   4
BRANCH   1  17
ATOM     17  C   UNL     1      43.274   4.268  11.342  0.00  0.00    +0.000 C 
BRANCH  17  18
ATOM     18  N   UNL     1      43.505   4.493   9.905  0.00  0.00    +0.000 N 
ATOM     19  H   UNL     1      42.658   4.620   9.352  0.00  0.00    +0.000 HD
BRANCH  18  23
ATOM     20  C   UNL     1      46.485   2.475   7.707  0.00  0.00    +0.000 A 
ATOM     21  C   UNL     1      46.379   3.864   7.608  0.00  0.00    +0.000 A 
ATOM     22  C   UNL     1      45.409   4.548   8.351  0.00  0.00    +0.000 A 
ATOM     23  C   UNL     1      44.547   3.873   9.224  0.00  0.00    +0.000 A 
ATOM     24  C   UNL     1      44.658   2.478   9.296  0.00  0.00    +0.000 A 
ATOM     25  C   UNL     1      45.611   1.780   8.543  0.00  0.00    +0.000 A 
BRANCH  20  27
ATOM     26  N   UNL     1      48.569   2.390   6.449  0.00  0.00    +0.000 N 
ATOM     27  C   UNL     1      47.475   1.709   6.905  0.00  0.00    +0.000 C 
ATOM     28  O   UNL     1      47.336   0.513   6.678  0.00  0.00    +0.000 OA
ATOM     29  H   UNL     1      49.281   1.837   5.988  0.00  0.00    +0.000 HD
ATOM     30  H   UNL     1      48.840   3.290   6.818  0.00  0.00    +0.000 HD
ENDBRANCH  20  27
ENDBRANCH  18  23
ENDBRANCH  17  18
ENDBRANCH   1  17
TORSDOF 7
ENDMDL
MODEL 3
REMARK VINA RESULT:    -8.280      2.827      4.411
REMARK INTER + INTRA:         -12.755
REMARK INTER:                 -11.829
REMARK INTRA:                  -0.926
REMARK UNBOUND:                -1.087
REMARK  Name = 
REMARK  7 active torsions:
REMARK  status: ('A' for Active; 'I' for Inactive)
REMARK    1  A    between atoms: C_2  and  C_4
REMARK    2  A    between atoms: C_7  and  N_8
REMARK    3  A    between atoms: N_8  and  C_9
REMARK    4  A    between atoms: C_9  and  C_10
REMARK    5  A    between atoms: C_10  and  C_13
REMARK    6  A    between atoms: C_18  and  O_19
REMARK    7  A    between atoms: O_19  and  C_20
REMARK                            x       y       z     vdW  Elec       q    Type
REMARK                         _______ _______ _______ _____ _____    ______ ____
ROOT
ATOM      1  C   UNL     1      43.908   4.335  12.550  0.00  0.00    +0.000 C 
ATOM      2  F   UNL     1      43.050   4.401  13.612  0.00  0.00    +0.000 F 
ATOM      3  F   UNL     1      44.502   3.106  12.648  0.00  0.00    +0.000 F 
ENDROOT
BRANCH   1   4
ATOM      4  C   UNL     1      44.924   5.461  12.588  0.00  0.00    +0.000 A 
ATOM      5  C   UNL     1      46.294   5.179  12.667  0.00  0.00    +0.000 A 
ATOM      6  C   UNL     1      47.218   6.219  12.682  0.00  0.00    +0.000 A 
ATOM      7  F   UNL     1      48.525   5.934  12.740  0.00  0.00    +0.000 F 
ATOM      8  C   UNL     1      46.815   7.550  12.632  0.00  0.00    +0.000 A 
ATOM      9  C   UNL     1      45.457   7.844  12.571  0.00  0.00    +0.000 A 
ATOM     10  C   UNL     1      44.517   6.806  12.541  0.00  0.00    +0.000 A 
BRANCH   9  11
ATOM     11  O   UNL     1      44.937   9.112  12.496  0.00  0.00    +0.000 OA
BRANCH  11  12
ATOM     12  C   UNL     1      44.587   9.646  11.197  0.00  0.00    +0.000 C 
ATOM     13  C   UNL     1      44.924  11.126  10.918  0.00  0.00    +0.000 C 
ATOM     14  N   UNL     1      43.546  11.366  10.462  0.00  0.00    +0.000 NA
ATOM     15  C   UNL     1      43.116  10.086  11.047  0.00  0.00    +0.000 C 
ATOM     16  H   UNL     1      43.444  11.412   9.448  0.00  0.00    +0.000 HD
ENDBRANCH  11  12
ENDBRANCH   9  11
ENDBRANCH   1   4
BRANCH   1  17
ATOM     17  C   UNL     1      43.083   4.365  11.236  0.00  0.00    +0.000 C 
BRANCH  17  18
ATOM     18  N   UNL     1      43.863   4.829  10.076  0.00  0.00    +0.000 N 
ATOM     19  H   UNL     1      43.433   5.591   9.551  0.00  0.00    +0.000 HD
BRANCH  18  23
ATOM     20  C   UNL     1      46.372   2.283   7.838  0.00  0.00    +0.000 A 
ATOM     21  C   UNL     1      45.460   1.732   8.741  0.00  0.00    +0.000 A 
ATOM     22  C   UNL     1      44.606   2.565   9.473  0.00  0.00    +0.000 A 
ATOM     23  C   UNL     1      44.618   3.955   9.303  0.00  0.00    +0.000 A 
ATOM     24  C   UNL     1      45.553   4.490   8.405  0.00  0.00    +0.000 A 
ATOM     25  C   UNL     1      46.427   3.668   7.682  0.00  0.00    +0.000 A 
BRANCH  20  27
ATOM     26  N   UNL     1      48.412   2.055   6.528  0.00  0.00    +0.000 N 
ATOM     27  C   UNL     1      47.323   1.435   7.073  0.00  0.00    +0.000 C 
ATOM     28  O   UNL     1      47.156   0.227   6.949  0.00  0.00    +0.000 OA
ATOM     29  H   UNL     1      49.099   1.452   6.093  0.00  0.00    +0.000 HD
ATOM     30  H   UNL     1      48.710   2.977   6.814  0.00  0.00    +0.000 HD
ENDBRANCH  20  27
ENDBRANCH  18  23
ENDBRANCH  17  18
ENDBRANCH   1  17
TORSDOF 7
ENDMDL
MODEL 4
REMARK VINA RESULT:    -7.841      1.690      2.070
REMARK INTER + INTRA:         -12.137
REMARK INTER:                 -11.169
REMARK INTRA:                  -0.968
REMARK UNBOUND:                -1.087
REMARK  Name = 
REMARK  7 active torsions:
REMARK  status: ('A' for Active; 'I' for Inactive)
REMARK    1  A    between atoms: C_2  and  C_4
REMARK    2  A    between atoms: C_7  and  N_8
REMARK    3  A    between atoms: N_8  and  C_9
REMARK    4  A    between atoms: C_9  and  C_10
REMARK    5  A    between atoms: C_10  and  C_13
REMARK    6  A    between atoms: C_18  and  O_19
REMARK    7  A    between atoms: O_19  and  C_20
REMARK                            x       y       z     vdW  Elec       q    Type
REMARK                         _______ _______ _______ _____ _____    ______ ____
ROOT
ATOM      1  C   UNL     1      44.473   5.355  12.265  0.00  0.00    +0.000 C 
ATOM      2  F   UNL     1      43.923   6.035  11.214  0.00  0.00    +0.000 F 
ATOM      3  F   UNL     1      43.624   5.575  13.315  0.00  0.00    +0.000 F 
ENDROOT
BRANCH   1   4
ATOM      4  C   UNL     1      45.881   5.837  12.560  0.00  0.00    +0.000 A 
ATOM      5  C   UNL     1      46.573   6.620  11.628  0.00  0.00    +0.000 A 
ATOM      6  C   UNL     1      47.857   7.073  11.917  0.00  0.00    +0.000 A 
ATOM      7  F   UNL     1      48.499   7.836  11.023  0.00  0.00    +0.000 F 
ATOM      8  C   UNL     1      48.487   6.755  13.116  0.00  0.00    +0.000 A 
ATOM      9  C   UNL     1      47.817   5.963  14.043  0.00  0.00    +0.000 A 
ATOM     10  C   UNL     1      46.518   5.513  13.770  0.00  0.00    +0.000 A 
BRANCH   9  11
ATOM     11  O   UNL     1      48.321   5.600  15.266  0.00  0.00    +0.000 OA
BRANCH  11  12
ATOM     12  C   UNL     1      49.303   6.456  15.897  0.00  0.00    +0.000 C 
ATOM     13  C   UNL     1      50.207   5.832  16.981  0.00  0.00    +0.000 C 
ATOM     14  N   UNL     1      49.881   6.931  17.903  0.00  0.00    +0.000 NA
ATOM     15  C   UNL     1      48.761   7.339  17.040  0.00  0.00    +0.000 C 
ATOM     16  H   UNL     1      50.614   7.635  17.989  0.00  0.00    +0.000 HD
ENDBRANCH  11  12
ENDBRANCH   9  11
ENDBRANCH   1   4
BRANCH   1  17
ATOM     17  C   UNL     1      44.453   3.837  11.944  0.00  0.00    +0.000 C 
BRANCH  17  18
ATOM     18  N   UNL     1      43.861   3.532  10.630  0.00  0.00    +0.000 N 
ATOM     19  H   UNL     1      42.979   3.022  10.668  0.00  0.00    +0.000 HD
BRANCH  18  23
ATOM     20  C   UNL     1      46.437   2.778   7.378  0.00  0.00    +0.000 A 
ATOM     21  C   UNL     1      45.978   1.712   8.154  0.00  0.00    +0.000 A 
ATOM     22  C   UNL     1      45.104   1.946   9.222  0.00  0.00    +0.000 A 
ATOM     23  C   UNL     1      44.647   3.235   9.523  0.00  0.00    +0.000 A 
ATOM     24  C   UNL     1      45.133   4.294   8.743  0.00  0.00    +0.000 A 
ATOM     25  C   UNL     1      46.024   4.075   7.684  0.00  0.00    +0.000 A 
BRANCH  20  27
ATOM     26  N   UNL     1      48.610   2.028   6.572  0.00  0.00    +0.000 N 
ATOM     27  C   UNL     1      47.397   2.574   6.261  0.00  0.00    +0.000 C 
ATOM     28  O   UNL     1      47.111   2.860   5.104  0.00  0.00    +0.000 OA
ATOM     29  H   UNL     1      49.215   1.806   5.792  0.00  0.00    +0.000 HD
ATOM     30  H   UNL     1      48.783   1.558   7.449  0.00  0.00    +0.000 HD
ENDBRANCH  20  27
ENDBRANCH  18  23
ENDBRANCH  17  18
ENDBRANCH   1  17
TORSDOF 7
ENDMDL
MODEL 5
REMARK VINA RESULT:    -7.630      2.030      8.007
REMARK INTER + INTRA:         -11.839
REMARK INTER:                 -11.100
REMARK INTRA:                  -0.739
REMARK UNBOUND:                -1.087
REMARK  Name = 
REMARK  7 active torsions:
REMARK  status: ('A' for Active; 'I' for Inactive)
REMARK    1  A    between atoms: C_2  and  C_4
REMARK    2  A    between atoms: C_7  and  N_8
REMARK    3  A    between atoms: N_8  and  C_9
REMARK    4  A    between atoms: C_9  and  C_10
REMARK    5  A    between atoms: C_10  and  C_13
REMARK    6  A    between atoms: C_18  and  O_19
REMARK    7  A    between atoms: O_19  and  C_20
REMARK                            x       y       z     vdW  Elec       q    Type
REMARK                         _______ _______ _______ _____ _____    ______ ____
ROOT
ATOM      1  C   UNL     1      45.809   6.274  11.353  0.00  0.00    +0.000 C 
ATOM      2  F   UNL     1      45.058   7.372  11.037  0.00  0.00    +0.000 F 
ATOM      3  F   UNL     1      47.093   6.614  11.024  0.00  0.00    +0.000 F 
ENDROOT
BRANCH   1   4
ATOM      4  C   UNL     1      45.336   5.045  10.600  0.00  0.00    +0.000 A 
ATOM      5  C   UNL     1      44.552   4.077  11.242  0.00  0.00    +0.000 A 
ATOM      6  C   UNL     1      44.107   2.963  10.537  0.00  0.00    +0.000 A 
ATOM      7  F   UNL     1      43.344   2.056  11.160  0.00  0.00    +0.000 F 
ATOM      8  C   UNL     1      44.434   2.772   9.198  0.00  0.00    +0.000 A 
ATOM      9  C   UNL     1      45.226   3.717   8.554  0.00  0.00    +0.000 A 
ATOM     10  C   UNL     1      45.668   4.850   9.248  0.00  0.00    +0.000 A 
BRANCH   9  11
ATOM     11  O   UNL     1      45.597   3.652   7.235  0.00  0.00    +0.000 OA
BRANCH  11  12
ATOM     12  C   UNL     1      46.979   3.364   6.912  0.00  0.00    +0.000 C 
ATOM     13  C   UNL     1      47.307   2.966   5.458  0.00  0.00    +0.000 C 
ATOM     14  N   UNL     1      48.043   1.784   5.935  0.00  0.00    +0.000 NA
ATOM     15  C   UNL     1      47.450   1.940   7.273  0.00  0.00    +0.000 C 
ATOM     16  H   UNL     1      49.057   1.890   5.917  0.00  0.00    +0.000 HD
ENDBRANCH  11  12
ENDBRANCH   9  11
ENDBRANCH   1   4
BRANCH   1  17
ATOM     17  C   UNL     1      45.751   6.051  12.888  0.00  0.00    +0.000 C 
BRANCH  17  18
ATOM     18  N   UNL     1      47.012   6.389  13.569  0.00  0.00    +0.000 N 
ATOM     19  H   UNL     1      47.758   6.708  12.951  0.00  0.00    +0.000 HD
BRANCH  18  23
ATOM     20  C   UNL     1      48.458   4.088  16.793  0.00  0.00    +0.000 A 
ATOM     21  C   UNL     1      48.889   5.407  16.642  0.00  0.00    +0.000 A 
ATOM     22  C   UNL     1      48.398   6.189  15.589  0.00  0.00    +0.000 A 
ATOM     23  C   UNL     1      47.452   5.688  14.686  0.00  0.00    +0.000 A 
ATOM     24  C   UNL     1      47.046   4.356  14.844  0.00  0.00    +0.000 A 
ATOM     25  C   UNL     1      47.544   3.557  15.882  0.00  0.00    +0.000 A 
BRANCH  20  27
ATOM     26  N   UNL     1      48.320   3.229  19.068  0.00  0.00    +0.000 N 
ATOM     27  C   UNL     1      48.985   3.214  17.874  0.00  0.00    +0.000 C 
ATOM     28  O   UNL     1      49.959   2.491  17.703  0.00  0.00    +0.000 OA
ATOM     29  H   UNL     1      48.631   2.560  19.762  0.00  0.00    +0.000 HD
ATOM     30  H   UNL     1      47.389   3.609  19.166  0.00  0.00    +0.000 HD
ENDBRANCH  20  27
ENDBRANCH  18  23
ENDBRANCH  17  18
ENDBRANCH   1  17
TORSDOF 7
ENDMDL
MODEL 6
REMARK VINA RESULT:    -6.757      3.327      4.756
REMARK INTER + INTRA:         -10.608
REMARK INTER:                  -9.447
REMARK INTRA:                  -1.162
REMARK UNBOUND:                -1.087
REMARK  Name = 
REMARK  7 active torsions:
REMARK  status: ('A' for Active; 'I' for Inactive)
REMARK    1  A    between atoms: C_2  and  C_4
REMARK    2  A    between atoms: C_7  and  N_8
REMARK    3  A    between atoms: N_8  and  C_9
REMARK    4  A    between atoms: C_9  and  C_10
REMARK    5  A    between atoms: C_10  and  C_13
REMARK    6  A    between atoms: C_18  and  O_19
REMARK    7  A    between atoms: O_19  and  C_20
REMARK                            x       y       z     vdW  Elec       q    Type
REMARK                         _______ _______ _______ _____ _____    ______ ____
ROOT
ATOM      1  C   UNL     1      48.066   8.464  12.713  0.00  0.00    +0.000 C 
ATOM      2  F   UNL     1      48.382   7.415  11.896  0.00  0.00    +0.000 F 
ATOM      3  F   UNL     1      48.817   9.511  12.255  0.00  0.00    +0.000 F 
ENDROOT
BRANCH   1   4
ATOM      4  C   UNL     1      48.362   8.143  14.166  0.00  0.00    +0.000 A 
ATOM      5  C   UNL     1      48.436   9.169  15.118  0.00  0.00    +0.000 A 
ATOM      6  C   UNL     1      48.689   8.862  16.451  0.00  0.00    +0.000 A 
ATOM      7  F   UNL     1      48.739   9.851  17.353  0.00  0.00    +0.000 F 
ATOM      8  C   UNL     1      48.887   7.551  16.871  0.00  0.00    +0.000 A 
ATOM      9  C   UNL     1      48.834   6.525  15.932  0.00  0.00    +0.000 A 
ATOM     10  C   UNL     1      48.565   6.819  14.590  0.00  0.00    +0.000 A 
BRANCH   9  11
ATOM     11  O   UNL     1      48.991   5.194  16.224  0.00  0.00    +0.000 OA
BRANCH  11  12
ATOM     12  C   UNL     1      47.816   4.351  16.290  0.00  0.00    +0.000 C 
ATOM     13  C   UNL     1      46.972   4.399  17.582  0.00  0.00    +0.000 C 
ATOM     14  N   UNL     1      47.007   2.931  17.673  0.00  0.00    +0.000 NA
ATOM     15  C   UNL     1      48.087   2.882  16.675  0.00  0.00    +0.000 C 
ATOM     16  H   UNL     1      46.146   2.474  17.372  0.00  0.00    +0.000 HD
ENDBRANCH  11  12
ENDBRANCH   9  11
ENDBRANCH   1   4
BRANCH   1  17
ATOM     17  C   UNL     1      46.569   8.823  12.510  0.00  0.00    +0.000 C 
BRANCH  17  18
ATOM     18  N   UNL     1      45.654   7.881  13.177  0.00  0.00    +0.000 N 
ATOM     19  H   UNL     1      45.752   7.837  14.191  0.00  0.00    +0.000 HD
BRANCH  18  23
ATOM     20  C   UNL     1      44.368   4.191  11.592  0.00  0.00    +0.000 A 
ATOM     21  C   UNL     1      44.058   5.374  10.919  0.00  0.00    +0.000 A 
ATOM     22  C   UNL     1      44.499   6.604  11.422  0.00  0.00    +0.000 A 
ATOM     23  C   UNL     1      45.278   6.682  12.584  0.00  0.00    +0.000 A 
ATOM     24  C   UNL     1      45.562   5.484  13.255  0.00  0.00    +0.000 A 
ATOM     25  C   UNL     1      45.110   4.249  12.772  0.00  0.00    +0.000 A 
BRANCH  20  27
ATOM     26  N   UNL     1      44.560   2.300  10.070  0.00  0.00    +0.000 N 
ATOM     27  C   UNL     1      43.884   2.870  11.112  0.00  0.00    +0.000 C 
ATOM     28  O   UNL     1      42.935   2.300  11.636  0.00  0.00    +0.000 OA
ATOM     29  H   UNL     1      44.282   1.360   9.816  0.00  0.00    +0.000 HD
ATOM     30  H   UNL     1      45.478   2.611   9.784  0.00  0.00    +0.000 HD
ENDBRANCH  20  27
ENDBRANCH  18  23
ENDBRANCH  17  18
ENDBRANCH   1  17
TORSDOF 7
ENDMDL
MODEL 7
REMARK VINA RESULT:    -6.665      2.850      7.258
REMARK INTER + INTRA:         -10.480
REMARK INTER:                  -9.676
REMARK INTRA:                  -0.804
REMARK UNBOUND:                -1.087
REMARK  Name = 
REMARK  7 active torsions:
REMARK  status: ('A' for Active; 'I' for Inactive)
REMARK    1  A    between atoms: C_2  and  C_4
REMARK    2  A    between atoms: C_7  and  N_8
REMARK    3  A    between atoms: N_8  and  C_9
REMARK    4  A    between atoms: C_9  and  C_10
REMARK    5  A    between atoms: C_10  and  C_13
REMARK    6  A    between atoms: C_18  and  O_19
REMARK    7  A    between atoms: O_19  and  C_20
REMARK                            x       y       z     vdW  Elec       q    Type
REMARK                         _______ _______ _______ _____ _____    ______ ____
ROOT
ATOM      1  C   UNL     1      44.310   6.316  11.364  0.00  0.00    +0.000 C 
ATOM      2  F   UNL     1      43.053   6.854  11.384  0.00  0.00    +0.000 F 
ATOM      3  F   UNL     1      45.055   7.181  10.610  0.00  0.00    +0.000 F 
ENDROOT
BRANCH   1   4
ATOM      4  C   UNL     1      44.303   4.915  10.783  0.00  0.00    +0.000 A 
ATOM      5  C   UNL     1      43.691   3.863  11.476  0.00  0.00    +0.000 A 
ATOM      6  C   UNL     1      43.674   2.585  10.925  0.00  0.00    +0.000 A 
ATOM      7  F   UNL     1      43.069   1.592  11.591  0.00  0.00    +0.000 F 
ATOM      8  C   UNL     1      44.266   2.315   9.696  0.00  0.00    +0.000 A 
ATOM      9  C   UNL     1      44.893   3.348   9.005  0.00  0.00    +0.000 A 
ATOM     10  C   UNL     1      44.904   4.642   9.542  0.00  0.00    +0.000 A 
BRANCH   9  11
ATOM     11  O   UNL     1      45.493   3.214   7.779  0.00  0.00    +0.000 OA
BRANCH  11  12
ATOM     12  C   UNL     1      46.830   2.661   7.713  0.00  0.00    +0.000 C 
ATOM     13  C   UNL     1      47.580   2.761   6.369  0.00  0.00    +0.000 C 
ATOM     14  N   UNL     1      47.889   1.323   6.421  0.00  0.00    +0.000 NA
ATOM     15  C   UNL     1      46.896   1.136   7.491  0.00  0.00    +0.000 C 
ATOM     16  H   UNL     1      48.846   1.112   6.705  0.00  0.00    +0.000 HD
ENDBRANCH  11  12
ENDBRANCH   9  11
ENDBRANCH   1   4
BRANCH   1  17
ATOM     17  C   UNL     1      44.882   6.325  12.807  0.00  0.00    +0.000 C 
BRANCH  17  18
ATOM     18  N   UNL     1      46.209   5.695  12.905  0.00  0.00    +0.000 N 
ATOM     19  H   UNL     1      46.238   4.846  13.470  0.00  0.00    +0.000 HD
BRANCH  18  23
ATOM     20  C   UNL     1      49.881   7.760  13.085  0.00  0.00    +0.000 A 
ATOM     21  C   UNL     1      49.186   7.696  11.876  0.00  0.00    +0.000 A 
ATOM     22  C   UNL     1      47.955   7.033  11.808  0.00  0.00    +0.000 A 
ATOM     23  C   UNL     1      47.377   6.448  12.941  0.00  0.00    +0.000 A 
ATOM     24  C   UNL     1      48.099   6.507  14.142  0.00  0.00    +0.000 A 
ATOM     25  C   UNL     1      49.341   7.151  14.218  0.00  0.00    +0.000 A 
BRANCH  20  27
ATOM     26  N   UNL     1      52.119   8.149  12.204  0.00  0.00    +0.000 N 
ATOM     27  C   UNL     1      51.210   8.420  13.188  0.00  0.00    +0.000 C 
ATOM     28  O   UNL     1      51.478   9.193  14.100  0.00  0.00    +0.000 OA
ATOM     29  H   UNL     1      52.982   8.677  12.234  0.00  0.00    +0.000 HD
ATOM     30  H   UNL     1      51.856   7.728  11.325  0.00  0.00    +0.000 HD
ENDBRANCH  20  27
ENDBRANCH  18  23
ENDBRANCH  17  18
ENDBRANCH   1  17
TORSDOF 7
ENDMDL
MODEL 8
REMARK VINA RESULT:    -6.423      3.401      7.661
REMARK INTER + INTRA:         -10.137
REMARK INTER:                  -9.205
REMARK INTRA:                  -0.932
REMARK UNBOUND:                -1.087
REMARK  Name = 
REMARK  7 active torsions:
REMARK  status: ('A' for Active; 'I' for Inactive)
REMARK    1  A    between atoms: C_2  and  C_4
REMARK    2  A    between atoms: C_7  and  N_8
REMARK    3  A    between atoms: N_8  and  C_9
REMARK    4  A    between atoms: C_9  and  C_10
REMARK    5  A    between atoms: C_10  and  C_13
REMARK    6  A    between atoms: C_18  and  O_19
REMARK    7  A    between atoms: O_19  and  C_20
REMARK                            x       y       z     vdW  Elec       q    Type
REMARK                         _______ _______ _______ _____ _____    ______ ____
ROOT
ATOM      1  C   UNL     1      48.926   7.853  12.416  0.00  0.00    +0.000 C 
ATOM      2  F   UNL     1      49.597   8.624  11.507  0.00  0.00    +0.000 F 
ATOM      3  F   UNL     1      49.508   6.618  12.333  0.00  0.00    +0.000 F 
ENDROOT
BRANCH   1   4
ATOM      4  C   UNL     1      47.440   7.804  12.110  0.00  0.00    +0.000 A 
ATOM      5  C   UNL     1      46.616   8.894  12.420  0.00  0.00    +0.000 A 
ATOM      6  C   UNL     1      45.258   8.845  12.118  0.00  0.00    +0.000 A 
ATOM      7  F   UNL     1      44.486   9.902  12.403  0.00  0.00    +0.000 F 
ATOM      8  C   UNL     1      44.685   7.726  11.522  0.00  0.00    +0.000 A 
ATOM      9  C   UNL     1      45.490   6.631  11.226  0.00  0.00    +0.000 A 
ATOM     10  C   UNL     1      46.861   6.673  11.511  0.00  0.00    +0.000 A 
BRANCH   9  11
ATOM     11  O   UNL     1      45.049   5.481  10.621  0.00  0.00    +0.000 OA
BRANCH  11  12
ATOM     12  C   UNL     1      44.609   4.381  11.453  0.00  0.00    +0.000 C 
ATOM     13  C   UNL     1      44.249   3.053  10.752  0.00  0.00    +0.000 C 
ATOM     14  N   UNL     1      42.962   3.013  11.464  0.00  0.00    +0.000 NA
ATOM     15  C   UNL     1      43.121   4.422  11.857  0.00  0.00    +0.000 C 
ATOM     16  H   UNL     1      42.942   2.364  12.252  0.00  0.00    +0.000 HD
ENDBRANCH  11  12
ENDBRANCH   9  11
ENDBRANCH   1   4
BRANCH   1  17
ATOM     17  C   UNL     1      49.189   8.413  13.839  0.00  0.00    +0.000 C 
BRANCH  17  18
ATOM     18  N   UNL     1      50.018   7.520  14.667  0.00  0.00    +0.000 N 
ATOM     19  H   UNL     1      50.884   7.211  14.225  0.00  0.00    +0.000 HD
BRANCH  18  23
ATOM     20  C   UNL     1      48.306   4.529  17.098  0.00  0.00    +0.000 A 
ATOM     21  C   UNL     1      49.551   5.064  17.438  0.00  0.00    +0.000 A 
ATOM     22  C   UNL     1      50.119   6.073  16.652  0.00  0.00    +0.000 A 
ATOM     23  C   UNL     1      49.453   6.591  15.534  0.00  0.00    +0.000 A 
ATOM     24  C   UNL     1      48.214   6.028  15.199  0.00  0.00    +0.000 A 
ATOM     25  C   UNL     1      47.644   5.004  15.966  0.00  0.00    +0.000 A 
BRANCH  20  27
ATOM     26  N   UNL     1      48.245   3.141  19.098  0.00  0.00    +0.000 N 
ATOM     27  C   UNL     1      47.688   3.429  17.884  0.00  0.00    +0.000 C 
ATOM     28  O   UNL     1      46.708   2.817  17.478  0.00  0.00    +0.000 OA
ATOM     29  H   UNL     1      47.758   2.457  19.664  0.00  0.00    +0.000 HD
ATOM     30  H   UNL     1      48.879   3.773  19.567  0.00  0.00    +0.000 HD
ENDBRANCH  20  27
ENDBRANCH  18  23
ENDBRANCH  17  18
ENDBRANCH   1  17
TORSDOF 7
ENDMDL
MODEL 9
REMARK VINA RESULT:    -6.420      2.159      8.084
REMARK INTER + INTRA:         -10.134
REMARK INTER:                  -9.786
REMARK INTRA:                  -0.347
REMARK UNBOUND:                -1.087
REMARK  Name = 
REMARK  7 active torsions:
REMARK  status: ('A' for Active; 'I' for Inactive)
REMARK    1  A    between atoms: C_2  and  C_4
REMARK    2  A    between atoms: C_7  and  N_8
REMARK    3  A    between atoms: N_8  and  C_9
REMARK    4  A    between atoms: C_9  and  C_10
REMARK    5  A    between atoms: C_10  and  C_13
REMARK    6  A    between atoms: C_18  and  O_19
REMARK    7  A    between atoms: O_19  and  C_20
REMARK                            x       y       z     vdW  Elec       q    Type
REMARK                         _______ _______ _______ _____ _____    ______ ____
ROOT
ATOM      1  C   UNL     1      46.479   6.973  11.910  0.00  0.00    +0.000 C 
ATOM      2  F   UNL     1      46.076   8.257  11.672  0.00  0.00    +0.000 F 
ATOM      3  F   UNL     1      47.556   6.779  11.088  0.00  0.00    +0.000 F 
ENDROOT
BRANCH   1   4
ATOM      4  C   UNL     1      45.365   5.982  11.629  0.00  0.00    +0.000 A 
ATOM      5  C   UNL     1      44.031   6.321  11.891  0.00  0.00    +0.000 A 
ATOM      6  C   UNL     1      43.015   5.412  11.612  0.00  0.00    +0.000 A 
ATOM      7  F   UNL     1      41.743   5.757  11.852  0.00  0.00    +0.000 F 
ATOM      8  C   UNL     1      43.290   4.154  11.085  0.00  0.00    +0.000 A 
ATOM      9  C   UNL     1      44.612   3.798  10.837  0.00  0.00    +0.000 A 
ATOM     10  C   UNL     1      45.642   4.710  11.099  0.00  0.00    +0.000 A 
BRANCH   9  11
ATOM     11  O   UNL     1      45.007   2.599  10.300  0.00  0.00    +0.000 OA
BRANCH  11  12
ATOM     12  C   UNL     1      44.944   2.423   8.865  0.00  0.00    +0.000 C 
ATOM     13  C   UNL     1      46.216   1.920   8.149  0.00  0.00    +0.000 C 
ATOM     14  N   UNL     1      46.121   3.023   7.180  0.00  0.00    +0.000 NA
ATOM     15  C   UNL     1      45.144   3.711   8.040  0.00  0.00    +0.000 C 
ATOM     16  H   UNL     1      45.749   2.749   6.270  0.00  0.00    +0.000 HD
ENDBRANCH  11  12
ENDBRANCH   9  11
ENDBRANCH   1   4
BRANCH   1  17
ATOM     17  C   UNL     1      46.971   6.865  13.378  0.00  0.00    +0.000 C 
BRANCH  17  18
ATOM     18  N   UNL     1      47.313   5.487  13.772  0.00  0.00    +0.000 N 
ATOM     19  H   UNL     1      46.799   4.761  13.275  0.00  0.00    +0.000 HD
BRANCH  18  23
ATOM     20  C   UNL     1      48.207   4.726  17.823  0.00  0.00    +0.000 A 
ATOM     21  C   UNL     1      47.355   3.862  17.131  0.00  0.00    +0.000 A 
ATOM     22  C   UNL     1      47.069   4.091  15.780  0.00  0.00    +0.000 A 
ATOM     23  C   UNL     1      47.643   5.161  15.083  0.00  0.00    +0.000 A 
ATOM     24  C   UNL     1      48.480   6.027  15.799  0.00  0.00    +0.000 A 
ATOM     25  C   UNL     1      48.759   5.820  17.156  0.00  0.00    +0.000 A 
BRANCH  20  27
ATOM     26  N   UNL     1      48.481   3.261  19.749  0.00  0.00    +0.000 N 
ATOM     27  C   UNL     1      48.504   4.540  19.267  0.00  0.00    +0.000 C 
ATOM     28  O   UNL     1      48.780   5.485  19.997  0.00  0.00    +0.000 OA
ATOM     29  H   UNL     1      48.778   3.139  20.709  0.00  0.00    +0.000 HD
ATOM     30  H   UNL     1      48.506   2.453  19.143  0.00  0.00    +0.000 HD
ENDBRANCH  20  27
ENDBRANCH  18  23
ENDBRANCH  17  18
ENDBRANCH   1  17
TORSDOF 7
ENDMDL
