MODEL 1
REMARK VINA RESULT:    -7.003      0.000      0.000
REMARK INTER + INTRA:          -9.587
REMARK INTER:                  -8.845
REMARK INTRA:                  -0.741
REMARK UNBOUND:                -0.741
REMARK  Name = 
REMARK  8 active torsions:
REMARK  status: ('A' for Active; 'I' for Inactive)
REMARK    1  A    between atoms: C_1  and  C_2
REMARK    2  A    between atoms: C_2  and  C_3
REMARK    3  A    between atoms: C_2  and  C_4
REMARK    4  A    between atoms: C_2  and  C_5
REMARK    5  A    between atoms: N_7  and  C_8
REMARK    6  A    between atoms: C_8  and  C_9
REMARK    7  A    between atoms: C_12  and  C_13
REMARK    8  A    between atoms: C_13  and  N_14
REMARK                            x       y       z     vdW  Elec       q    Type
REMARK                         _______ _______ _______ _____ _____    ______ ____
ROOT
ATOM      1  C   UNL     1      46.350   7.176  12.236  0.00  0.00    +0.000 A 
ATOM      2  N   UNL     1      45.491   6.884  11.240  0.00  0.00    +0.000 NA
ATOM      3  N   UNL     1      45.268   5.561  11.349  0.00  0.00    +0.000 N 
ATOM      4  C   UNL     1      45.922   4.979  12.408  0.00  0.00    +0.000 A 
ATOM      5  C   UNL     1      45.921   3.662  12.903  0.00  0.00    +0.000 A 
ATOM      6  C   UNL     1      46.719   3.377  14.009  0.00  0.00    +0.000 A 
ATOM      7  C   UNL     1      47.493   4.365  14.602  0.00  0.00    +0.000 A 
ATOM      8  C   UNL     1      47.476   5.675  14.104  0.00  0.00    +0.000 A 
ATOM      9  C   UNL     1      46.670   6.001  12.992  0.00  0.00    +0.000 A 
ENDROOT
BRANCH   1  11
ATOM     10  C   UNL     1      45.678   9.573  11.883  0.00  0.00    +0.000 C 
ATOM     11  C   UNL     1      46.782   8.634  12.421  0.00  0.00    +0.000 C 
ATOM     12  C   UNL     1      48.090   8.910  11.648  0.00  0.00    +0.000 C 
ATOM     13  C   UNL     1      47.035   9.027  13.888  0.00  0.00    +0.000 C 
ENDBRANCH   1  11
BRANCH   3  14
ATOM     14  C   UNL     1      44.323   4.907  10.446  0.00  0.00    +0.000 C 
BRANCH  14  15
ATOM     15  C   UNL     1      45.014   4.058   9.414  0.00  0.00    +0.000 A 
ATOM     16  C   UNL     1      45.005   2.662   9.471  0.00  0.00    +0.000 A 
ATOM     17  C   UNL     1      45.731   1.923   8.540  0.00  0.00    +0.000 A 
ATOM     18  C   UNL     1      46.460   2.596   7.563  0.00  0.00    +0.000 A 
ATOM     19  N   UNL     1      46.441   3.948   7.455  0.00  0.00    +0.000 NA
ATOM     20  C   UNL     1      45.729   4.642   8.375  0.00  0.00    +0.000 A 
BRANCH  18  21
ATOM     21  C   UNL     1      47.350   1.837   6.600  0.00  0.00    +0.000 C 
BRANCH  21  22
ATOM     22  N   UNL     1      48.640   2.500   6.366  0.00  0.00    +0.000 NA
ATOM     23  H   UNL     1      49.356   1.772   6.317  0.00  0.00    +0.000 HD
ATOM     24  H   UNL     1      48.870   3.056   7.187  0.00  0.00    +0.000 HD
ENDBRANCH  21  22
ENDBRANCH  18  21
ENDBRANCH  14  15
ENDBRANCH   3  14
TORSDOF 5
ENDMDL
MODEL 2
REMARK VINA RESULT:    -6.549      4.004      7.140
REMARK INTER + INTRA:          -9.014
REMARK INTER:                  -8.462
REMARK INTRA:                  -0.551
REMARK UNBOUND:                -0.741
REMARK  Name = 
REMARK  8 active torsions:
REMARK  status: ('A' for Active; 'I' for Inactive)
REMARK    1  A    between atoms: C_1  and  C_2
REMARK    2  A    between atoms: C_2  and  C_3
REMARK    3  A    between atoms: C_2  and  C_4
REMARK    4  A    between atoms: C_2  and  C_5
REMARK    5  A    between atoms: N_7  and  C_8
REMARK    6  A    between atoms: C_8  and  C_9
REMARK    7  A    between atoms: C_12  and  C_13
REMARK    8  A    between atoms: C_13  and  N_14
REMARK                            x       y       z     vdW  Elec       q    Type
REMARK                         _______ _______ _______ _____ _____    ______ ____
ROOT
ATOM      1  C   UNL     1      46.248   5.025  13.320  0.00  0.00    +0.000 A 
ATOM      2  N   UNL     1      46.102   4.429  14.519  0.00  0.00    +0.000 NA
ATOM      3  N   UNL     1      47.092   4.932  15.281  0.00  0.00    +0.000 N 
ATOM      4  C   UNL     1      47.862   5.868  14.634  0.00  0.00    +0.000 A 
ATOM      5  C   UNL     1      48.939   6.661  15.069  0.00  0.00    +0.000 A 
ATOM      6  C   UNL     1      49.532   7.524  14.150  0.00  0.00    +0.000 A 
ATOM      7  C   UNL     1      49.072   7.595  12.842  0.00  0.00    +0.000 A 
ATOM      8  C   UNL     1      47.992   6.806  12.425  0.00  0.00    +0.000 A 
ATOM      9  C   UNL     1      47.360   5.930  13.334  0.00  0.00    +0.000 A 
ENDROOT
BRANCH   1  11
ATOM     10  C   UNL     1      43.820   5.118  12.673  0.00  0.00    +0.000 C 
ATOM     11  C   UNL     1      45.237   4.699  12.217  0.00  0.00    +0.000 C 
ATOM     12  C   UNL     1      45.236   3.185  11.919  0.00  0.00    +0.000 C 
ATOM     13  C   UNL     1      45.515   5.420  10.885  0.00  0.00    +0.000 C 
ENDBRANCH   1  11
BRANCH   3  14
ATOM     14  C   UNL     1      47.200   4.538  16.684  0.00  0.00    +0.000 C 
BRANCH  14  15
ATOM     15  C   UNL     1      48.413   3.689  16.948  0.00  0.00    +0.000 A 
ATOM     16  C   UNL     1      49.457   4.118  17.772  0.00  0.00    +0.000 A 
ATOM     17  C   UNL     1      50.598   3.332  17.916  0.00  0.00    +0.000 A 
ATOM     18  C   UNL     1      50.677   2.123  17.229  0.00  0.00    +0.000 A 
ATOM     19  N   UNL     1      49.655   1.661  16.466  0.00  0.00    +0.000 NA
ATOM     20  C   UNL     1      48.559   2.447  16.340  0.00  0.00    +0.000 A 
BRANCH  18  21
ATOM     21  C   UNL     1      51.942   1.290  17.269  0.00  0.00    +0.000 C 
BRANCH  21  22
ATOM     22  N   UNL     1      51.815   0.094  18.112  0.00  0.00    +0.000 NA
ATOM     23  H   UNL     1      52.503  -0.588  17.784  0.00  0.00    +0.000 HD
ATOM     24  H   UNL     1      50.906  -0.329  17.936  0.00  0.00    +0.000 HD
ENDBRANCH  21  22
ENDBRANCH  18  21
ENDBRANCH  14  15
ENDBRANCH   3  14
TORSDOF 5
ENDMDL
MODEL 3
REMARK VINA RESULT:    -6.407      1.389      3.343
REMARK INTER + INTRA:          -8.834
REMARK INTER:                  -8.238
REMARK INTRA:                  -0.596
REMARK UNBOUND:                -0.741
REMARK  Name = 
REMARK  8 active torsions:
REMARK  status: ('A' for Active; 'I' for Inactive)
REMARK    1  A    between atoms: C_1  and  C_2
REMARK    2  A    between atoms: C_2  and  C_3
REMARK    3  A    between atoms: C_2  and  C_4
REMARK    4  A    between atoms: C_2  and  C_5
REMARK    5  A    between atoms: N_7  and  C_8
REMARK    6  A    between atoms: C_8  and  C_9
REMARK    7  A    between atoms: C_12  and  C_13
REMARK    8  A    between atoms: C_13  and  N_14
REMARK                            x       y       z     vdW  Elec       q    Type
REMARK                         _______ _______ _______ _____ _____    ______ ____
ROOT
ATOM      1  C   UNL     1      46.335   6.792  12.630  0.00  0.00    +0.000 A 
ATOM      2  N   UNL     1      45.818   5.645  12.148  0.00  0.00    +0.000 NA
ATOM      3  N   UNL     1      44.735   6.020  11.443  0.00  0.00    +0.000 N 
ATOM      4  C   UNL     1      44.543   7.380  11.411  0.00  0.00    +0.000 A 
ATOM      5  C   UNL     1      43.587   8.179  10.758  0.00  0.00    +0.000 A 
ATOM      6  C   UNL     1      43.651   9.558  10.940  0.00  0.00    +0.000 A 
ATOM      7  C   UNL     1      44.630  10.125  11.744  0.00  0.00    +0.000 A 
ATOM      8  C   UNL     1      45.582   9.318  12.380  0.00  0.00    +0.000 A 
ATOM      9  C   UNL     1      45.553   7.918  12.208  0.00  0.00    +0.000 A 
ENDROOT
BRANCH   1  11
ATOM     10  C   UNL     1      48.843   6.663  12.510  0.00  0.00    +0.000 C 
ATOM     11  C   UNL     1      47.622   6.720  13.456  0.00  0.00    +0.000 C 
ATOM     12  C   UNL     1      47.621   5.457  14.344  0.00  0.00    +0.000 C 
ATOM     13  C   UNL     1      47.830   7.926  14.391  0.00  0.00    +0.000 C 
ENDBRANCH   1  11
BRANCH   3  14
ATOM     14  C   UNL     1      43.953   5.016  10.724  0.00  0.00    +0.000 C 
BRANCH  14  15
ATOM     15  C   UNL     1      44.800   4.189   9.796  0.00  0.00    +0.000 A 
ATOM     16  C   UNL     1      45.576   4.764   8.786  0.00  0.00    +0.000 A 
ATOM     17  C   UNL     1      46.276   3.951   7.897  0.00  0.00    +0.000 A 
ATOM     18  C   UNL     1      46.187   2.568   8.033  0.00  0.00    +0.000 A 
ATOM     19  N   UNL     1      45.484   1.988   9.038  0.00  0.00    +0.000 NA
ATOM     20  C   UNL     1      44.810   2.802   9.885  0.00  0.00    +0.000 A 
BRANCH  18  21
ATOM     21  C   UNL     1      46.842   1.646   7.025  0.00  0.00    +0.000 C 
BRANCH  21  22
ATOM     22  N   UNL     1      48.253   1.971   6.781  0.00  0.00    +0.000 NA
ATOM     23  H   UNL     1      48.290   2.918   6.399  0.00  0.00    +0.000 HD
ATOM     24  H   UNL     1      48.600   1.364   6.041  0.00  0.00    +0.000 HD
ENDBRANCH  21  22
ENDBRANCH  18  21
ENDBRANCH  14  15
ENDBRANCH   3  14
TORSDOF 5
ENDMDL
MODEL 4
REMARK VINA RESULT:    -6.304      4.057      6.726
REMARK INTER + INTRA:          -8.704
REMARK INTER:                  -8.207
REMARK INTRA:                  -0.498
REMARK UNBOUND:                -0.741
REMARK  Name = 
REMARK  8 active torsions:
REMARK  status: ('A' for Active; 'I' for Inactive)
REMARK    1  A    between atoms: C_1  and  C_2
REMARK    2  A    between atoms: C_2  and  C_3
REMARK    3  A    between atoms: C_2  and  C_4
REMARK    4  A    between atoms: C_2  and  C_5
REMARK    5  A    between atoms: N_7  and  C_8
REMARK    6  A    between atoms: C_8  and  C_9
REMARK    7  A    between atoms: C_12  and  C_13
REMARK    8  A    between atoms: C_13  and  N_14
REMARK                            x       y       z     vdW  Elec       q    Type
REMARK                         _______ _______ _______ _____ _____    ______ ____
ROOT
ATOM      1  C   UNL     1      48.274   6.592  13.884  0.00  0.00    +0.000 A 
ATOM      2  N   UNL     1      48.289   5.971  15.079  0.00  0.00    +0.000 NA
ATOM      3  N   UNL     1      47.277   5.084  15.023  0.00  0.00    +0.000 N 
ATOM      4  C   UNL     1      46.622   5.074  13.815  0.00  0.00    +0.000 A 
ATOM      5  C   UNL     1      45.567   4.282  13.325  0.00  0.00    +0.000 A 
ATOM      6  C   UNL     1      45.104   4.531  12.036  0.00  0.00    +0.000 A 
ATOM      7  C   UNL     1      45.668   5.534  11.259  0.00  0.00    +0.000 A 
ATOM      8  C   UNL     1      46.724   6.309  11.756  0.00  0.00    +0.000 A 
ATOM      9  C   UNL     1      47.225   6.075  13.054  0.00  0.00    +0.000 A 
ENDROOT
BRANCH   1  11
ATOM     10  C   UNL     1      48.709   9.058  13.655  0.00  0.00    +0.000 C 
ATOM     11  C   UNL     1      49.345   7.650  13.600  0.00  0.00    +0.000 C 
ATOM     12  C   UNL     1      49.957   7.434  12.200  0.00  0.00    +0.000 C 
ATOM     13  C   UNL     1      50.511   7.641  14.607  0.00  0.00    +0.000 C 
ENDBRANCH   1  11
BRANCH   3  14
ATOM     14  C   UNL     1      47.037   4.185  16.149  0.00  0.00    +0.000 C 
BRANCH  14  15
ATOM     15  C   UNL     1      48.290   3.487  16.601  0.00  0.00    +0.000 A 
ATOM     16  C   UNL     1      49.170   4.060  17.523  0.00  0.00    +0.000 A 
ATOM     17  C   UNL     1      50.361   3.413  17.844  0.00  0.00    +0.000 A 
ATOM     18  C   UNL     1      50.655   2.197  17.233  0.00  0.00    +0.000 A 
ATOM     19  N   UNL     1      49.792   1.595  16.376  0.00  0.00    +0.000 NA
ATOM     20  C   UNL     1      48.643   2.248  16.079  0.00  0.00    +0.000 A 
BRANCH  18  21
ATOM     21  C   UNL     1      51.986   1.512  17.468  0.00  0.00    +0.000 C 
BRANCH  21  22
ATOM     22  N   UNL     1      51.850   0.195  18.103  0.00  0.00    +0.000 NA
ATOM     23  H   UNL     1      52.786  -0.112  18.378  0.00  0.00    +0.000 HD
ATOM     24  H   UNL     1      51.540  -0.471  17.399  0.00  0.00    +0.000 HD
ENDBRANCH  21  22
ENDBRANCH  18  21
ENDBRANCH  14  15
ENDBRANCH   3  14
TORSDOF 5
ENDMDL
MODEL 5
REMARK VINA RESULT:    -5.663      4.045      6.674
REMARK INTER + INTRA:          -7.894
REMARK INTER:                  -7.159
REMARK INTRA:                  -0.734
REMARK UNBOUND:                -0.741
REMARK  Name = 
REMARK  8 active torsions:
REMARK  status: ('A' for Active; 'I' for Inactive)
REMARK    1  A    between atoms: C_1  and  C_2
REMARK    2  A    between atoms: C_2  and  C_3
REMARK    3  A    between atoms: C_2  and  C_4
REMARK    4  A    between atoms: C_2  and  C_5
REMARK    5  A    between atoms: N_7  and  C_8
REMARK    6  A    between atoms: C_8  and  C_9
REMARK    7  A    between atoms: C_12  and  C_13
REMARK    8  A    between atoms: C_13  and  N_14
REMARK                            x       y       z     vdW  Elec       q    Type
REMARK                         _______ _______ _______ _____ _____    ______ ____
ROOT
ATOM      1  C   UNL     1      49.132   5.734  17.208  0.00  0.00    +0.000 A 
ATOM      2  N   UNL     1      48.981   5.377  15.918  0.00  0.00    +0.000 NA
ATOM      3  N   UNL     1      48.620   6.508  15.284  0.00  0.00    +0.000 N 
ATOM      4  C   UNL     1      48.566   7.607  16.107  0.00  0.00    +0.000 A 
ATOM      5  C   UNL     1      48.291   8.962  15.848  0.00  0.00    +0.000 A 
ATOM      6  C   UNL     1      48.299   9.849  16.921  0.00  0.00    +0.000 A 
ATOM      7  C   UNL     1      48.568   9.406  18.209  0.00  0.00    +0.000 A 
ATOM      8  C   UNL     1      48.849   8.055  18.451  0.00  0.00    +0.000 A 
ATOM      9  C   UNL     1      48.862   7.131  17.384  0.00  0.00    +0.000 A 
ENDROOT
BRANCH   1  11
ATOM     10  C   UNL     1      51.001   5.021  18.732  0.00  0.00    +0.000 C 
ATOM     11  C   UNL     1      49.589   4.669  18.209  0.00  0.00    +0.000 C 
ATOM     12  C   UNL     1      49.640   3.282  17.533  0.00  0.00    +0.000 C 
ATOM     13  C   UNL     1      48.672   4.536  19.439  0.00  0.00    +0.000 C 
ENDBRANCH   1  11
BRANCH   3  14
ATOM     14  C   UNL     1      48.424   6.498  13.835  0.00  0.00    +0.000 C 
BRANCH  14  15
ATOM     15  C   UNL     1      47.007   6.167  13.453  0.00  0.00    +0.000 A 
ATOM     16  C   UNL     1      46.170   7.094  12.825  0.00  0.00    +0.000 A 
ATOM     17  C   UNL     1      44.840   6.768  12.569  0.00  0.00    +0.000 A 
ATOM     18  C   UNL     1      44.366   5.515  12.949  0.00  0.00    +0.000 A 
ATOM     19  N   UNL     1      45.173   4.580  13.510  0.00  0.00    +0.000 NA
ATOM     20  C   UNL     1      46.461   4.924  13.751  0.00  0.00    +0.000 A 
BRANCH  18  21
ATOM     21  C   UNL     1      42.902   5.160  12.790  0.00  0.00    +0.000 C 
BRANCH  21  22
ATOM     22  N   UNL     1      42.195   6.042  11.853  0.00  0.00    +0.000 NA
ATOM     23  H   UNL     1      42.086   5.533  10.973  0.00  0.00    +0.000 HD
ATOM     24  H   UNL     1      42.797   6.833  11.638  0.00  0.00    +0.000 HD
ENDBRANCH  21  22
ENDBRANCH  18  21
ENDBRANCH  14  15
ENDBRANCH   3  14
TORSDOF 5
ENDMDL
MODEL 6
REMARK VINA RESULT:    -5.535      3.984      7.377
REMARK INTER + INTRA:          -7.732
REMARK INTER:                  -7.158
REMARK INTRA:                  -0.574
REMARK UNBOUND:                -0.741
REMARK  Name = 
REMARK  8 active torsions:
REMARK  status: ('A' for Active; 'I' for Inactive)
REMARK    1  A    between atoms: C_1  and  C_2
REMARK    2  A    between atoms: C_2  and  C_3
REMARK    3  A    between atoms: C_2  and  C_4
REMARK    4  A    between atoms: C_2  and  C_5
REMARK    5  A    between atoms: N_7  and  C_8
REMARK    6  A    between atoms: C_8  and  C_9
REMARK    7  A    between atoms: C_12  and  C_13
REMARK    8  A    between atoms: C_13  and  N_14
REMARK                            x       y       z     vdW  Elec       q    Type
REMARK                         _______ _______ _______ _____ _____    ______ ____
ROOT
ATOM      1  C   UNL     1      47.975   6.491  13.488  0.00  0.00    +0.000 A 
ATOM      2  N   UNL     1      48.163   5.682  14.548  0.00  0.00    +0.000 NA
ATOM      3  N   UNL     1      47.249   4.704  14.407  0.00  0.00    +0.000 N 
ATOM      4  C   UNL     1      46.491   4.821  13.266  0.00  0.00    +0.000 A 
ATOM      5  C   UNL     1      45.485   4.003  12.719  0.00  0.00    +0.000 A 
ATOM      6  C   UNL     1      44.884   4.411  11.531  0.00  0.00    +0.000 A 
ATOM      7  C   UNL     1      45.267   5.591  10.908  0.00  0.00    +0.000 A 
ATOM      8  C   UNL     1      46.277   6.390  11.458  0.00  0.00    +0.000 A 
ATOM      9  C   UNL     1      46.915   6.001  12.655  0.00  0.00    +0.000 A 
ENDROOT
BRANCH   1  11
ATOM     10  C   UNL     1      49.658   7.594  11.980  0.00  0.00    +0.000 C 
ATOM     11  C   UNL     1      48.899   7.701  13.323  0.00  0.00    +0.000 C 
ATOM     12  C   UNL     1      49.928   7.753  14.473  0.00  0.00    +0.000 C 
ATOM     13  C   UNL     1      48.161   9.052  13.319  0.00  0.00    +0.000 C 
ENDBRANCH   1  11
BRANCH   3  14
ATOM     14  C   UNL     1      47.206   3.605  15.369  0.00  0.00    +0.000 C 
BRANCH  14  15
ATOM     15  C   UNL     1      47.817   3.979  16.691  0.00  0.00    +0.000 A 
ATOM     16  C   UNL     1      49.065   3.499  17.097  0.00  0.00    +0.000 A 
ATOM     17  C   UNL     1      49.549   3.806  18.368  0.00  0.00    +0.000 A 
ATOM     18  C   UNL     1      48.772   4.590  19.215  0.00  0.00    +0.000 A 
ATOM     19  N   UNL     1      47.583   5.112  18.824  0.00  0.00    +0.000 NA
ATOM     20  C   UNL     1      47.134   4.795  17.586  0.00  0.00    +0.000 A 
BRANCH  18  21
ATOM     21  C   UNL     1      49.209   4.857  20.641  0.00  0.00    +0.000 C 
BRANCH  21  22
ATOM     22  N   UNL     1      50.615   4.511  20.886  0.00  0.00    +0.000 NA
ATOM     23  H   UNL     1      51.191   5.197  20.394  0.00  0.00    +0.000 HD
ATOM     24  H   UNL     1      50.810   3.618  20.438  0.00  0.00    +0.000 HD
ENDBRANCH  21  22
ENDBRANCH  18  21
ENDBRANCH  14  15
ENDBRANCH   3  14
TORSDOF 5
ENDMDL
MODEL 7
REMARK VINA RESULT:    -5.179      3.660      6.137
REMARK INTER + INTRA:          -7.283
REMARK INTER:                  -7.360
REMARK INTRA:                   0.077
REMARK UNBOUND:                -0.741
REMARK  Name = 
REMARK  8 active torsions:
REMARK  status: ('A' for Active; 'I' for Inactive)
REMARK    1  A    between atoms: C_1  and  C_2
REMARK    2  A    between atoms: C_2  and  C_3
REMARK    3  A    between atoms: C_2  and  C_4
REMARK    4  A    between atoms: C_2  and  C_5
REMARK    5  A    between atoms: N_7  and  C_8
REMARK    6  A    between atoms: C_8  and  C_9
REMARK    7  A    between atoms: C_12  and  C_13
REMARK    8  A    between atoms: C_13  and  N_14
REMARK                            x       y       z     vdW  Elec       q    Type
REMARK                         _______ _______ _______ _____ _____    ______ ____
ROOT
ATOM      1  C   UNL     1      48.754   5.134  16.637  0.00  0.00    +0.000 A 
ATOM      2  N   UNL     1      47.936   5.266  15.575  0.00  0.00    +0.000 NA
ATOM      3  N   UNL     1      48.389   6.350  14.918  0.00  0.00    +0.000 N 
ATOM      4  C   UNL     1      49.504   6.913  15.491  0.00  0.00    +0.000 A 
ATOM      5  C   UNL     1      50.311   7.999  15.105  0.00  0.00    +0.000 A 
ATOM      6  C   UNL     1      51.384   8.342  15.924  0.00  0.00    +0.000 A 
ATOM      7  C   UNL     1      51.647   7.631  17.087  0.00  0.00    +0.000 A 
ATOM      8  C   UNL     1      50.841   6.545  17.454  0.00  0.00    +0.000 A 
ATOM      9  C   UNL     1      49.752   6.164  16.641  0.00  0.00    +0.000 A 
ENDROOT
BRANCH   1  11
ATOM     10  C   UNL     1      47.197   3.254  17.240  0.00  0.00    +0.000 C 
ATOM     11  C   UNL     1      48.534   3.951  17.583  0.00  0.00    +0.000 C 
ATOM     12  C   UNL     1      48.479   4.436  19.048  0.00  0.00    +0.000 C 
ATOM     13  C   UNL     1      49.636   2.878  17.506  0.00  0.00    +0.000 C 
ENDBRANCH   1  11
BRANCH   3  14
ATOM     14  C   UNL     1      47.758   6.756  13.664  0.00  0.00    +0.000 C 
BRANCH  14  15
ATOM     15  C   UNL     1      46.629   5.843  13.271  0.00  0.00    +0.000 A 
ATOM     16  C   UNL     1      45.358   6.327  12.949  0.00  0.00    +0.000 A 
ATOM     17  C   UNL     1      44.322   5.437  12.675  0.00  0.00    +0.000 A 
ATOM     18  C   UNL     1      44.575   4.069  12.732  0.00  0.00    +0.000 A 
ATOM     19  N   UNL     1      45.812   3.576  12.990  0.00  0.00    +0.000 NA
ATOM     20  C   UNL     1      46.800   4.464  13.256  0.00  0.00    +0.000 A 
BRANCH  18  21
ATOM     21  C   UNL     1      43.455   3.065  12.550  0.00  0.00    +0.000 C 
BRANCH  21  22
ATOM     22  N   UNL     1      43.520   2.356  11.266  0.00  0.00    +0.000 NA
ATOM     23  H   UNL     1      42.903   1.544  11.330  0.00  0.00    +0.000 HD
ATOM     24  H   UNL     1      44.459   1.979  11.154  0.00  0.00    +0.000 HD
ENDBRANCH  21  22
ENDBRANCH  18  21
ENDBRANCH  14  15
ENDBRANCH   3  14
TORSDOF 5
ENDMDL
MODEL 8
REMARK VINA RESULT:    -4.831      2.878      5.958
REMARK INTER + INTRA:          -6.843
REMARK INTER:                  -6.314
REMARK INTRA:                  -0.530
REMARK UNBOUND:                -0.741
REMARK  Name = 
REMARK  8 active torsions:
REMARK  status: ('A' for Active; 'I' for Inactive)
REMARK    1  A    between atoms: C_1  and  C_2
REMARK    2  A    between atoms: C_2  and  C_3
REMARK    3  A    between atoms: C_2  and  C_4
REMARK    4  A    between atoms: C_2  and  C_5
REMARK    5  A    between atoms: N_7  and  C_8
REMARK    6  A    between atoms: C_8  and  C_9
REMARK    7  A    between atoms: C_12  and  C_13
REMARK    8  A    between atoms: C_13  and  N_14
REMARK                            x       y       z     vdW  Elec       q    Type
REMARK                         _______ _______ _______ _____ _____    ______ ____
ROOT
ATOM      1  C   UNL     1      45.727   5.556  11.827  0.00  0.00    +0.000 A 
ATOM      2  N   UNL     1      46.029   6.830  11.513  0.00  0.00    +0.000 NA
ATOM      3  N   UNL     1      46.807   7.263  12.523  0.00  0.00    +0.000 N 
ATOM      4  C   UNL     1      47.059   6.302  13.473  0.00  0.00    +0.000 A 
ATOM      5  C   UNL     1      47.850   6.316  14.636  0.00  0.00    +0.000 A 
ATOM      6  C   UNL     1      47.890   5.163  15.416  0.00  0.00    +0.000 A 
ATOM      7  C   UNL     1      47.167   4.034  15.054  0.00  0.00    +0.000 A 
ATOM      8  C   UNL     1      46.392   4.031  13.888  0.00  0.00    +0.000 A 
ATOM      9  C   UNL     1      46.338   5.179  13.068  0.00  0.00    +0.000 A 
ENDROOT
BRANCH   1  11
ATOM     10  C   UNL     1      45.420   4.931   9.411  0.00  0.00    +0.000 C 
ATOM     11  C   UNL     1      44.874   4.747  10.845  0.00  0.00    +0.000 C 
ATOM     12  C   UNL     1      43.407   5.227  10.885  0.00  0.00    +0.000 C 
ATOM     13  C   UNL     1      44.859   3.234  11.133  0.00  0.00    +0.000 C 
ENDBRANCH   1  11
BRANCH   3  14
ATOM     14  C   UNL     1      47.371   8.610  12.479  0.00  0.00    +0.000 C 
BRANCH  14  15
ATOM     15  C   UNL     1      48.857   8.599  12.243  0.00  0.00    +0.000 A 
ATOM     16  C   UNL     1      49.453   7.766  11.293  0.00  0.00    +0.000 A 
ATOM     17  C   UNL     1      50.840   7.730  11.171  0.00  0.00    +0.000 A 
ATOM     18  C   UNL     1      51.613   8.531  12.007  0.00  0.00    +0.000 A 
ATOM     19  N   UNL     1      51.055   9.388  12.899  0.00  0.00    +0.000 NA
ATOM     20  C   UNL     1      49.705   9.400  12.999  0.00  0.00    +0.000 A 
BRANCH  18  21
ATOM     21  C   UNL     1      53.125   8.443  11.984  0.00  0.00    +0.000 C 
BRANCH  21  22
ATOM     22  N   UNL     1      53.667   7.597  13.055  0.00  0.00    +0.000 NA
ATOM     23  H   UNL     1      53.724   8.167  13.901  0.00  0.00    +0.000 HD
ATOM     24  H   UNL     1      54.629   7.358  12.821  0.00  0.00    +0.000 HD
ENDBRANCH  21  22
ENDBRANCH  18  21
ENDBRANCH  14  15
ENDBRANCH   3  14
TORSDOF 5
ENDMDL
MODEL 9
REMARK VINA RESULT:    -4.814      3.803      6.434
REMARK INTER + INTRA:          -6.821
REMARK INTER:                  -6.049
REMARK INTRA:                  -0.772
REMARK UNBOUND:                -0.741
REMARK  Name = 
REMARK  8 active torsions:
REMARK  status: ('A' for Active; 'I' for Inactive)
REMARK    1  A    between atoms: C_1  and  C_2
REMARK    2  A    between atoms: C_2  and  C_3
REMARK    3  A    between atoms: C_2  and  C_4
REMARK    4  A    between atoms: C_2  and  C_5
REMARK    5  A    between atoms: N_7  and  C_8
REMARK    6  A    between atoms: C_8  and  C_9
REMARK    7  A    between atoms: C_12  and  C_13
REMARK    8  A    between atoms: C_13  and  N_14
REMARK                            x       y       z     vdW  Elec       q    Type
REMARK                         _______ _______ _______ _____ _____    ______ ____
ROOT
ATOM      1  C   UNL     1      48.011   5.168  15.487  0.00  0.00    +0.000 A 
ATOM      2  N   UNL     1      48.622   6.365  15.394  0.00  0.00    +0.000 NA
ATOM      3  N   UNL     1      48.188   6.889  14.233  0.00  0.00    +0.000 N 
ATOM      4  C   UNL     1      47.281   6.093  13.576  0.00  0.00    +0.000 A 
ATOM      5  C   UNL     1      46.554   6.282  12.386  0.00  0.00    +0.000 A 
ATOM      6  C   UNL     1      45.707   5.259  11.966  0.00  0.00    +0.000 A 
ATOM      7  C   UNL     1      45.585   4.089  12.702  0.00  0.00    +0.000 A 
ATOM      8  C   UNL     1      46.307   3.919  13.890  0.00  0.00    +0.000 A 
ATOM      9  C   UNL     1      47.166   4.939  14.351  0.00  0.00    +0.000 A 
ENDROOT
BRANCH   1  11
ATOM     10  C   UNL     1      47.119   4.543  17.753  0.00  0.00    +0.000 C 
ATOM     11  C   UNL     1      48.261   4.318  16.735  0.00  0.00    +0.000 C 
ATOM     12  C   UNL     1      49.600   4.711  17.395  0.00  0.00    +0.000 C 
ATOM     13  C   UNL     1      48.326   2.805  16.455  0.00  0.00    +0.000 C 
ENDBRANCH   1  11
BRANCH   3  14
ATOM     14  C   UNL     1      48.614   8.230  13.837  0.00  0.00    +0.000 C 
BRANCH  14  15
ATOM     15  C   UNL     1      49.862   8.208  12.998  0.00  0.00    +0.000 A 
ATOM     16  C   UNL     1      49.850   7.817  11.657  0.00  0.00    +0.000 A 
ATOM     17  C   UNL     1      51.046   7.731  10.946  0.00  0.00    +0.000 A 
ATOM     18  C   UNL     1      52.240   8.038  11.594  0.00  0.00    +0.000 A 
ATOM     19  N   UNL     1      52.271   8.471  12.879  0.00  0.00    +0.000 NA
ATOM     20  C   UNL     1      51.095   8.542  13.547  0.00  0.00    +0.000 A 
BRANCH  18  21
ATOM     21  C   UNL     1      53.571   7.852  10.894  0.00  0.00    +0.000 C 
BRANCH  21  22
ATOM     22  N   UNL     1      54.065   6.471  10.955  0.00  0.00    +0.000 NA
ATOM     23  H   UNL     1      55.070   6.511  11.135  0.00  0.00    +0.000 HD
ATOM     24  H   UNL     1      53.969   6.053  10.031  0.00  0.00    +0.000 HD
ENDBRANCH  21  22
ENDBRANCH  18  21
ENDBRANCH  14  15
ENDBRANCH   3  14
TORSDOF 5
ENDMDL
