MODEL 1
REMARK VINA RESULT:    -8.210      0.000      0.000
REMARK INTER + INTRA:         -12.058
REMARK INTER:                 -11.089
REMARK INTRA:                  -0.969
REMARK UNBOUND:                -0.969
REMARK  Name = 
REMARK  7 active torsions:
REMARK  status: ('A' for Active; 'I' for Inactive)
REMARK    1  A    between atoms: C_1  and  C_2
REMARK    2  A    between atoms: C_2  and  C_3
REMARK    3  A    between atoms: C_7  and  C_8
REMARK    4  A    between atoms: C_8  and  C_9
REMARK    5  A    between atoms: C_9  and  N_10
REMARK    6  A    between atoms: N_10  and  C_11
REMARK    7  A    between atoms: C_14  and  C_15
REMARK                            x       y       z     vdW  Elec       q    Type
REMARK                         _______ _______ _______ _____ _____    ______ ____
ROOT
ATOM      1  C   UNL     1      43.243   5.258  12.422  0.00  0.00    +0.000 C 
ENDROOT
BRANCH   1   6
ATOM      2  C   UNL     1      46.512   7.203  12.915  0.00  0.00    +0.000 A 
ATOM      3  C   UNL     1      47.318   6.200  13.480  0.00  0.00    +0.000 A 
ATOM      4  C   UNL     1      46.833   4.900  13.658  0.00  0.00    +0.000 A 
ATOM      5  C   UNL     1      45.527   4.578  13.290  0.00  0.00    +0.000 A 
ATOM      6  C   UNL     1      44.695   5.551  12.731  0.00  0.00    +0.000 A 
ATOM      7  C   UNL     1      45.201   6.849  12.543  0.00  0.00    +0.000 A 
BRANCH   2   9
ATOM      8  C   UNL     1      45.930   9.566  12.215  0.00  0.00    +0.000 C 
ATOM      9  C   UNL     1      47.037   8.636  12.761  0.00  0.00    +0.000 C 
ATOM     10  C   UNL     1      48.282   8.683  11.853  0.00  0.00    +0.000 C 
ATOM     11  C   UNL     1      49.236   9.687  12.493  0.00  0.00    +0.000 C 
ATOM     12  C   UNL     1      48.525  10.207  13.724  0.00  0.00    +0.000 C 
ATOM     13  N   UNL     1      47.545   9.180  14.037  0.00  0.00    +0.000 NA
ATOM     14  H   UNL     1      46.782   9.554  14.597  0.00  0.00    +0.000 HD
ENDBRANCH   2   9
ENDBRANCH   1   6
BRANCH   1  15
ATOM     15  C   UNL     1      43.136   4.277  11.247  0.00  0.00    +0.000 C 
BRANCH  15  16
ATOM     16  N   UNL     1      43.742   4.818  10.021  0.00  0.00    +0.000 N 
ATOM     17  H   UNL     1      44.139   5.746  10.160  0.00  0.00    +0.000 HD
BRANCH  16  18
ATOM     18  C   UNL     1      44.638   3.967   9.344  0.00  0.00    +0.000 A 
ATOM     19  C   UNL     1      44.585   2.573   9.443  0.00  0.00    +0.000 A 
ATOM     20  C   UNL     1      45.462   1.768   8.721  0.00  0.00    +0.000 A 
ATOM     21  C   UNL     1      46.366   2.381   7.871  0.00  0.00    +0.000 A 
ATOM     22  N   UNL     1      46.436   3.729   7.686  0.00  0.00    +0.000 NA
ATOM     23  C   UNL     1      45.556   4.472   8.412  0.00  0.00    +0.000 A 
BRANCH  21  24
ATOM     24  C   UNL     1      47.324   1.529   7.094  0.00  0.00    +0.000 C 
ATOM     25  N   UNL     1      48.406   2.181   6.575  0.00  0.00    +0.000 N 
ATOM     26  O   UNL     1      47.156   0.326   6.927  0.00  0.00    +0.000 OA
ATOM     27  H   UNL     1      48.497   3.183   6.712  0.00  0.00    +0.000 HD
ATOM     28  H   UNL     1      49.075   1.671   6.018  0.00  0.00    +0.000 HD
ENDBRANCH  21  24
ENDBRANCH  16  18
ENDBRANCH  15  16
ENDBRANCH   1  15
TORSDOF 6
ENDMDL
MODEL 2
REMARK VINA RESULT:    -7.979      2.436      3.789
REMARK INTER + INTRA:         -11.747
REMARK INTER:                 -11.054
REMARK INTRA:                  -0.693
REMARK UNBOUND:                -0.969
REMARK  Name = 
REMARK  7 active torsions:
REMARK  status: ('A' for Active; 'I' for Inactive)
REMARK    1  A    between atoms: C_1  and  C_2
REMARK    2  A    between atoms: C_2  and  C_3
REMARK    3  A    between atoms: C_7  and  C_8
REMARK    4  A    between atoms: C_8  and  C_9
REMARK    5  A    between atoms: C_9  and  N_10
REMARK    6  A    between atoms: N_10  and  C_11
REMARK    7  A    between atoms: C_14  and  C_15
REMARK                            x       y       z     vdW  Elec       q    Type
REMARK                         _______ _______ _______ _____ _____    ______ ____
ROOT
ATOM      1  C   UNL     1      45.453   5.455  11.596  0.00  0.00    +0.000 C 
ENDROOT
BRANCH   1   6
ATOM      2  C   UNL     1      44.380   9.135  11.426  0.00  0.00    +0.000 A 
ATOM      3  C   UNL     1      45.359   9.720  12.248  0.00  0.00    +0.000 A 
ATOM      4  C   UNL     1      46.379   8.949  12.813  0.00  0.00    +0.000 A 
ATOM      5  C   UNL     1      46.436   7.574  12.583  0.00  0.00    +0.000 A 
ATOM      6  C   UNL     1      45.477   6.958  11.776  0.00  0.00    +0.000 A 
ATOM      7  C   UNL     1      44.467   7.747  11.201  0.00  0.00    +0.000 A 
BRANCH   2   9
ATOM      8  C   UNL     1      43.536  10.355   9.374  0.00  0.00    +0.000 C 
ATOM      9  C   UNL     1      43.239   9.979  10.842  0.00  0.00    +0.000 C 
ATOM     10  C   UNL     1      42.989  11.243  11.687  0.00  0.00    +0.000 C 
ATOM     11  C   UNL     1      41.475  11.421  11.748  0.00  0.00    +0.000 C 
ATOM     12  C   UNL     1      40.893  10.285  10.933  0.00  0.00    +0.000 C 
ATOM     13  N   UNL     1      41.940   9.278  10.914  0.00  0.00    +0.000 NA
ATOM     14  H   UNL     1      41.831   8.644  10.126  0.00  0.00    +0.000 HD
ENDBRANCH   2   9
ENDBRANCH   1   6
BRANCH   1  15
ATOM     15  C   UNL     1      44.022   4.975  11.324  0.00  0.00    +0.000 C 
BRANCH  15  16
ATOM     16  N   UNL     1      43.757   4.817   9.887  0.00  0.00    +0.000 N 
ATOM     17  H   UNL     1      43.707   5.711   9.400  0.00  0.00    +0.000 HD
BRANCH  16  18
ATOM     18  C   UNL     1      44.577   3.899   9.201  0.00  0.00    +0.000 A 
ATOM     19  C   UNL     1      45.509   4.286   8.233  0.00  0.00    +0.000 A 
ATOM     20  C   UNL     1      46.330   3.349   7.612  0.00  0.00    +0.000 A 
ATOM     21  C   UNL     1      46.229   2.025   8.003  0.00  0.00    +0.000 A 
ATOM     22  N   UNL     1      45.382   1.589   8.976  0.00  0.00    +0.000 NA
ATOM     23  C   UNL     1      44.602   2.542   9.555  0.00  0.00    +0.000 A 
BRANCH  21  24
ATOM     24  C   UNL     1      47.099   1.003   7.337  0.00  0.00    +0.000 C 
ATOM     25  N   UNL     1      46.797  -0.299   7.616  0.00  0.00    +0.000 N 
ATOM     26  O   UNL     1      48.025   1.305   6.592  0.00  0.00    +0.000 OA
ATOM     27  H   UNL     1      46.040  -0.510   8.258  0.00  0.00    +0.000 HD
ATOM     28  H   UNL     1      47.362  -1.037   7.221  0.00  0.00    +0.000 HD
ENDBRANCH  21  24
ENDBRANCH  16  18
ENDBRANCH  15  16
ENDBRANCH   1  15
TORSDOF 6
ENDMDL
MODEL 3
REMARK VINA RESULT:    -7.974      1.525      2.009
REMARK INTER + INTRA:         -11.740
REMARK INTER:                 -10.846
REMARK INTRA:                  -0.894
REMARK UNBOUND:                -0.969
REMARK  Name = 
REMARK  7 active torsions:
REMARK  status: ('A' for Active; 'I' for Inactive)
REMARK    1  A    between atoms: C_1  and  C_2
REMARK    2  A    between atoms: C_2  and  C_3
REMARK    3  A    between atoms: C_7  and  C_8
REMARK    4  A    between atoms: C_8  and  C_9
REMARK    5  A    between atoms: C_9  and  N_10
REMARK    6  A    between atoms: N_10  and  C_11
REMARK    7  A    between atoms: C_14  and  C_15
REMARK                            x       y       z     vdW  Elec       q    Type
REMARK                         _______ _______ _______ _____ _____    ______ ____
ROOT
ATOM      1  C   UNL     1      44.109   6.010  11.991  0.00  0.00    +0.000 C 
ENDROOT
BRANCH   1   6
ATOM      2  C   UNL     1      47.682   6.514  13.293  0.00  0.00    +0.000 A 
ATOM      3  C   UNL     1      47.763   5.460  14.218  0.00  0.00    +0.000 A 
ATOM      4  C   UNL     1      46.699   4.568  14.390  0.00  0.00    +0.000 A 
ATOM      5  C   UNL     1      45.525   4.719  13.652  0.00  0.00    +0.000 A 
ATOM      6  C   UNL     1      45.407   5.759  12.727  0.00  0.00    +0.000 A 
ATOM      7  C   UNL     1      46.490   6.638  12.554  0.00  0.00    +0.000 A 
BRANCH   2   9
ATOM      8  C   UNL     1      49.526   7.762  14.499  0.00  0.00    +0.000 C 
ATOM      9  C   UNL     1      48.836   7.513  13.139  0.00  0.00    +0.000 C 
ATOM     10  C   UNL     1      48.350   8.841  12.526  0.00  0.00    +0.000 C 
ATOM     11  C   UNL     1      49.436   9.279  11.548  0.00  0.00    +0.000 C 
ATOM     12  C   UNL     1      50.518   8.224  11.631  0.00  0.00    +0.000 C 
ATOM     13  N   UNL     1      49.841   7.051  12.160  0.00  0.00    +0.000 NA
ATOM     14  H   UNL     1      50.498   6.409  12.596  0.00  0.00    +0.000 HD
ENDBRANCH   2   9
ENDBRANCH   1   6
BRANCH   1  15
ATOM     15  C   UNL     1      43.653   4.738  11.266  0.00  0.00    +0.000 C 
BRANCH  15  16
ATOM     16  N   UNL     1      43.737   4.876   9.805  0.00  0.00    +0.000 N 
ATOM     17  H   UNL     1      43.940   5.832   9.516  0.00  0.00    +0.000 HD
BRANCH  16  18
ATOM     18  C   UNL     1      44.562   3.947   9.140  0.00  0.00    +0.000 A 
ATOM     19  C   UNL     1      45.567   4.327   8.245  0.00  0.00    +0.000 A 
ATOM     20  C   UNL     1      46.389   3.378   7.643  0.00  0.00    +0.000 A 
ATOM     21  C   UNL     1      46.212   2.047   7.982  0.00  0.00    +0.000 A 
ATOM     22  N   UNL     1      45.289   1.615   8.885  0.00  0.00    +0.000 NA
ATOM     23  C   UNL     1      44.512   2.580   9.447  0.00  0.00    +0.000 A 
BRANCH  21  24
ATOM     24  C   UNL     1      47.082   1.012   7.336  0.00  0.00    +0.000 C 
ATOM     25  N   UNL     1      46.812  -0.282   7.678  0.00  0.00    +0.000 N 
ATOM     26  O   UNL     1      47.980   1.297   6.551  0.00  0.00    +0.000 OA
ATOM     27  H   UNL     1      46.077  -0.477   8.351  0.00  0.00    +0.000 HD
ATOM     28  H   UNL     1      47.379  -1.026   7.300  0.00  0.00    +0.000 HD
ENDBRANCH  21  24
ENDBRANCH  16  18
ENDBRANCH  15  16
ENDBRANCH   1  15
TORSDOF 6
ENDMDL
MODEL 4
REMARK VINA RESULT:    -7.919      2.616      3.953
REMARK INTER + INTRA:         -11.665
REMARK INTER:                 -10.900
REMARK INTRA:                  -0.766
REMARK UNBOUND:                -0.969
REMARK  Name = 
REMARK  7 active torsions:
REMARK  status: ('A' for Active; 'I' for Inactive)
REMARK    1  A    between atoms: C_1  and  C_2
REMARK    2  A    between atoms: C_2  and  C_3
REMARK    3  A    between atoms: C_7  and  C_8
REMARK    4  A    between atoms: C_8  and  C_9
REMARK    5  A    between atoms: C_9  and  N_10
REMARK    6  A    between atoms: N_10  and  C_11
REMARK    7  A    between atoms: C_14  and  C_15
REMARK                            x       y       z     vdW  Elec       q    Type
REMARK                         _______ _______ _______ _____ _____    ______ ____
ROOT
ATOM      1  C   UNL     1      45.071   4.354  12.531  0.00  0.00    +0.000 C 
ENDROOT
BRANCH   1   6
ATOM      2  C   UNL     1      47.667   5.048  15.269  0.00  0.00    +0.000 A 
ATOM      3  C   UNL     1      48.283   6.197  14.746  0.00  0.00    +0.000 A 
ATOM      4  C   UNL     1      47.839   6.771  13.550  0.00  0.00    +0.000 A 
ATOM      5  C   UNL     1      46.781   6.201  12.843  0.00  0.00    +0.000 A 
ATOM      6  C   UNL     1      46.149   5.054  13.330  0.00  0.00    +0.000 A 
ATOM      7  C   UNL     1      46.595   4.497  14.541  0.00  0.00    +0.000 A 
BRANCH   2   9
ATOM      8  C   UNL     1      47.079   4.370  17.637  0.00  0.00    +0.000 C 
ATOM      9  C   UNL     1      48.185   4.399  16.559  0.00  0.00    +0.000 C 
ATOM     10  C   UNL     1      49.439   5.123  17.087  0.00  0.00    +0.000 C 
ATOM     11  C   UNL     1      50.381   4.033  17.587  0.00  0.00    +0.000 C 
ATOM     12  C   UNL     1      49.655   2.724  17.361  0.00  0.00    +0.000 C 
ATOM     13  N   UNL     1      48.677   3.025  16.329  0.00  0.00    +0.000 NA
ATOM     14  H   UNL     1      47.907   2.361  16.343  0.00  0.00    +0.000 HD
ENDBRANCH   2   9
ENDBRANCH   1   6
BRANCH   1  15
ATOM     15  C   UNL     1      44.558   5.269  11.412  0.00  0.00    +0.000 C 
BRANCH  15  16
ATOM     16  N   UNL     1      43.895   4.512  10.341  0.00  0.00    +0.000 N 
ATOM     17  H   UNL     1      43.182   5.060   9.861  0.00  0.00    +0.000 HD
BRANCH  16  18
ATOM     18  C   UNL     1      44.744   3.853   9.429  0.00  0.00    +0.000 A 
ATOM     19  C   UNL     1      45.582   4.534   8.542  0.00  0.00    +0.000 A 
ATOM     20  C   UNL     1      46.438   3.843   7.688  0.00  0.00    +0.000 A 
ATOM     21  C   UNL     1      46.467   2.461   7.766  0.00  0.00    +0.000 A 
ATOM     22  N   UNL     1      45.716   1.738   8.643  0.00  0.00    +0.000 NA
ATOM     23  C   UNL     1      44.898   2.459   9.458  0.00  0.00    +0.000 A 
BRANCH  21  24
ATOM     24  C   UNL     1      47.375   1.702   6.847  0.00  0.00    +0.000 C 
ATOM     25  N   UNL     1      48.450   2.397   6.374  0.00  0.00    +0.000 N 
ATOM     26  O   UNL     1      47.174   0.533   6.533  0.00  0.00    +0.000 OA
ATOM     27  H   UNL     1      48.569   3.371   6.635  0.00  0.00    +0.000 HD
ATOM     28  H   UNL     1      49.086   1.953   5.729  0.00  0.00    +0.000 HD
ENDBRANCH  21  24
ENDBRANCH  16  18
ENDBRANCH  15  16
ENDBRANCH   1  15
TORSDOF 6
ENDMDL
MODEL 5
REMARK VINA RESULT:    -7.626      1.284      2.120
REMARK INTER + INTRA:         -11.271
REMARK INTER:                 -10.631
REMARK INTRA:                  -0.640
REMARK UNBOUND:                -0.969
REMARK  Name = 
REMARK  7 active torsions:
REMARK  status: ('A' for Active; 'I' for Inactive)
REMARK    1  A    between atoms: C_1  and  C_2
REMARK    2  A    between atoms: C_2  and  C_3
REMARK    3  A    between atoms: C_7  and  C_8
REMARK    4  A    between atoms: C_8  and  C_9
REMARK    5  A    between atoms: C_9  and  N_10
REMARK    6  A    between atoms: N_10  and  C_11
REMARK    7  A    between atoms: C_14  and  C_15
REMARK                            x       y       z     vdW  Elec       q    Type
REMARK                         _______ _______ _______ _____ _____    ______ ____
ROOT
ATOM      1  C   UNL     1      45.264   5.019  11.880  0.00  0.00    +0.000 C 
ENDROOT
BRANCH   1   6
ATOM      2  C   UNL     1      46.802   8.233  13.303  0.00  0.00    +0.000 A 
ATOM      3  C   UNL     1      46.038   9.198  12.626  0.00  0.00    +0.000 A 
ATOM      4  C   UNL     1      45.008   8.822  11.757  0.00  0.00    +0.000 A 
ATOM      5  C   UNL     1      44.730   7.474  11.533  0.00  0.00    +0.000 A 
ATOM      6  C   UNL     1      45.473   6.487  12.185  0.00  0.00    +0.000 A 
ATOM      7  C   UNL     1      46.494   6.879  13.067  0.00  0.00    +0.000 A 
BRANCH   2   9
ATOM      8  C   UNL     1      48.801   9.764  13.566  0.00  0.00    +0.000 C 
ATOM      9  C   UNL     1      47.957   8.650  14.223  0.00  0.00    +0.000 C 
ATOM     10  C   UNL     1      48.843   7.445  14.593  0.00  0.00    +0.000 C 
ATOM     11  C   UNL     1      49.202   7.618  16.066  0.00  0.00    +0.000 C 
ATOM     12  C   UNL     1      48.544   8.910  16.503  0.00  0.00    +0.000 C 
ATOM     13  N   UNL     1      47.475   9.117  15.540  0.00  0.00    +0.000 NA
ATOM     14  H   UNL     1      47.200  10.094  15.495  0.00  0.00    +0.000 HD
ENDBRANCH   2   9
ENDBRANCH   1   6
BRANCH   1  15
ATOM     15  C   UNL     1      43.822   4.771  11.419  0.00  0.00    +0.000 C 
BRANCH  15  16
ATOM     16  N   UNL     1      43.703   4.778   9.954  0.00  0.00    +0.000 N 
ATOM     17  H   UNL     1      43.634   5.721   9.574  0.00  0.00    +0.000 HD
BRANCH  16  18
ATOM     18  C   UNL     1      44.646   4.003   9.250  0.00  0.00    +0.000 A 
ATOM     19  C   UNL     1      44.676   2.606   9.307  0.00  0.00    +0.000 A 
ATOM     20  C   UNL     1      45.598   1.877   8.560  0.00  0.00    +0.000 A 
ATOM     21  C   UNL     1      46.461   2.568   7.727  0.00  0.00    +0.000 A 
ATOM     22  N   UNL     1      46.449   3.922   7.584  0.00  0.00    +0.000 NA
ATOM     23  C   UNL     1      45.529   4.590   8.333  0.00  0.00    +0.000 A 
BRANCH  21  24
ATOM     24  C   UNL     1      47.465   1.799   6.924  0.00  0.00    +0.000 C 
ATOM     25  N   UNL     1      48.516   2.525   6.443  0.00  0.00    +0.000 N 
ATOM     26  O   UNL     1      47.359   0.596   6.705  0.00  0.00    +0.000 OA
ATOM     27  H   UNL     1      48.557   3.523   6.622  0.00  0.00    +0.000 HD
ATOM     28  H   UNL     1      49.214   2.073   5.871  0.00  0.00    +0.000 HD
ENDBRANCH  21  24
ENDBRANCH  16  18
ENDBRANCH  15  16
ENDBRANCH   1  15
TORSDOF 6
ENDMDL
MODEL 6
REMARK VINA RESULT:    -7.519      1.504      2.481
REMARK INTER + INTRA:         -11.125
REMARK INTER:                 -10.434
REMARK INTRA:                  -0.692
REMARK UNBOUND:                -0.969
REMARK  Name = 
REMARK  7 active torsions:
REMARK  status: ('A' for Active; 'I' for Inactive)
REMARK    1  A    between atoms: C_1  and  C_2
REMARK    2  A    between atoms: C_2  and  C_3
REMARK    3  A    between atoms: C_7  and  C_8
REMARK    4  A    between atoms: C_8  and  C_9
REMARK    5  A    between atoms: C_9  and  N_10
REMARK    6  A    between atoms: N_10  and  C_11
REMARK    7  A    between atoms: C_14  and  C_15
REMARK                            x       y       z     vdW  Elec       q    Type
REMARK                         _______ _______ _______ _____ _____    ______ ____
ROOT
ATOM      1  C   UNL     1      45.452   5.000  11.633  0.00  0.00    +0.000 C 
ENDROOT
BRANCH   1   6
ATOM      2  C   UNL     1      47.808   7.955  12.293  0.00  0.00    +0.000 A 
ATOM      3  C   UNL     1      46.886   9.015  12.293  0.00  0.00    +0.000 A 
ATOM      4  C   UNL     1      45.517   8.780  12.129  0.00  0.00    +0.000 A 
ATOM      5  C   UNL     1      45.040   7.482  11.946  0.00  0.00    +0.000 A 
ATOM      6  C   UNL     1      45.929   6.404  11.935  0.00  0.00    +0.000 A 
ATOM      7  C   UNL     1      47.300   6.654  12.117  0.00  0.00    +0.000 A 
BRANCH   2   9
ATOM      8  C   UNL     1      49.771   8.014  13.892  0.00  0.00    +0.000 C 
ATOM      9  C   UNL     1      49.312   8.223  12.432  0.00  0.00    +0.000 C 
ATOM     10  C   UNL     1      49.676   9.640  11.946  0.00  0.00    +0.000 C 
ATOM     11  C   UNL     1      50.994   9.505  11.190  0.00  0.00    +0.000 C 
ATOM     12  C   UNL     1      51.368   8.040  11.271  0.00  0.00    +0.000 C 
ATOM     13  N   UNL     1      50.113   7.359  11.540  0.00  0.00    +0.000 NA
ATOM     14  H   UNL     1      50.269   6.449  11.967  0.00  0.00    +0.000 HD
ENDBRANCH   2   9
ENDBRANCH   1   6
BRANCH   1  15
ATOM     15  C   UNL     1      43.957   5.006  11.291  0.00  0.00    +0.000 C 
BRANCH  15  16
ATOM     16  N   UNL     1      43.722   4.894   9.844  0.00  0.00    +0.000 N 
ATOM     17  H   UNL     1      43.662   5.803   9.388  0.00  0.00    +0.000 HD
BRANCH  16  18
ATOM     18  C   UNL     1      44.575   4.018   9.143  0.00  0.00    +0.000 A 
ATOM     19  C   UNL     1      45.590   4.464   8.291  0.00  0.00    +0.000 A 
ATOM     20  C   UNL     1      46.439   3.564   7.652  0.00  0.00    +0.000 A 
ATOM     21  C   UNL     1      46.278   2.214   7.910  0.00  0.00    +0.000 A 
ATOM     22  N   UNL     1      45.345   1.715   8.768  0.00  0.00    +0.000 NA
ATOM     23  C   UNL     1      44.542   2.635   9.370  0.00  0.00    +0.000 A 
BRANCH  21  24
ATOM     24  C   UNL     1      47.176   1.232   7.222  0.00  0.00    +0.000 C 
ATOM     25  N   UNL     1      48.248   1.770   6.569  0.00  0.00    +0.000 N 
ATOM     26  O   UNL     1      46.972   0.022   7.237  0.00  0.00    +0.000 OA
ATOM     27  H   UNL     1      48.370   2.778   6.556  0.00  0.00    +0.000 HD
ATOM     28  H   UNL     1      48.877   1.166   6.062  0.00  0.00    +0.000 HD
ENDBRANCH  21  24
ENDBRANCH  16  18
ENDBRANCH  15  16
ENDBRANCH   1  15
TORSDOF 6
ENDMDL
MODEL 7
REMARK VINA RESULT:    -6.881      4.880      7.827
REMARK INTER + INTRA:         -10.264
REMARK INTER:                  -9.526
REMARK INTRA:                  -0.738
REMARK UNBOUND:                -0.969
REMARK  Name = 
REMARK  7 active torsions:
REMARK  status: ('A' for Active; 'I' for Inactive)
REMARK    1  A    between atoms: C_1  and  C_2
REMARK    2  A    between atoms: C_2  and  C_3
REMARK    3  A    between atoms: C_7  and  C_8
REMARK    4  A    between atoms: C_8  and  C_9
REMARK    5  A    between atoms: C_9  and  N_10
REMARK    6  A    between atoms: N_10  and  C_11
REMARK    7  A    between atoms: C_14  and  C_15
REMARK                            x       y       z     vdW  Elec       q    Type
REMARK                         _______ _______ _______ _____ _____    ______ ____
ROOT
ATOM      1  C   UNL     1      47.837   5.718  14.565  0.00  0.00    +0.000 C 
ENDROOT
BRANCH   1   6
ATOM      2  C   UNL     1      45.397   5.945  11.613  0.00  0.00    +0.000 A 
ATOM      3  C   UNL     1      45.346   7.338  11.435  0.00  0.00    +0.000 A 
ATOM      4  C   UNL     1      46.123   8.193  12.224  0.00  0.00    +0.000 A 
ATOM      5  C   UNL     1      46.955   7.677  13.217  0.00  0.00    +0.000 A 
ATOM      6  C   UNL     1      47.026   6.298  13.426  0.00  0.00    +0.000 A 
ATOM      7  C   UNL     1      46.252   5.449  12.616  0.00  0.00    +0.000 A 
BRANCH   2   9
ATOM      8  C   UNL     1      43.018   5.336  10.996  0.00  0.00    +0.000 C 
ATOM      9  C   UNL     1      44.512   5.014  10.774  0.00  0.00    +0.000 C 
ATOM     10  C   UNL     1      44.800   3.533  11.086  0.00  0.00    +0.000 C 
ATOM     11  C   UNL     1      44.759   2.800   9.749  0.00  0.00    +0.000 C 
ATOM     12  C   UNL     1      44.431   3.853   8.711  0.00  0.00    +0.000 C 
ATOM     13  N   UNL     1      44.821   5.108   9.332  0.00  0.00    +0.000 NA
ATOM     14  H   UNL     1      44.336   5.896   8.911  0.00  0.00    +0.000 HD
ENDBRANCH   2   9
ENDBRANCH   1   6
BRANCH   1  15
ATOM     15  C   UNL     1      47.008   4.685  15.338  0.00  0.00    +0.000 C 
BRANCH  15  16
ATOM     16  N   UNL     1      47.443   4.565  16.737  0.00  0.00    +0.000 N 
ATOM     17  H   UNL     1      46.692   4.256  17.353  0.00  0.00    +0.000 HD
BRANCH  16  18
ATOM     18  C   UNL     1      48.628   3.835  16.958  0.00  0.00    +0.000 A 
ATOM     19  C   UNL     1      49.685   4.318  17.734  0.00  0.00    +0.000 A 
ATOM     20  C   UNL     1      50.820   3.545  17.964  0.00  0.00    +0.000 A 
ATOM     21  C   UNL     1      50.861   2.266  17.434  0.00  0.00    +0.000 A 
ATOM     22  N   UNL     1      49.845   1.714  16.715  0.00  0.00    +0.000 NA
ATOM     23  C   UNL     1      48.757   2.509  16.521  0.00  0.00    +0.000 A 
BRANCH  21  24
ATOM     24  C   UNL     1      52.079   1.425  17.664  0.00  0.00    +0.000 C 
ATOM     25  N   UNL     1      51.844   0.160  18.121  0.00  0.00    +0.000 N 
ATOM     26  O   UNL     1      53.217   1.836  17.460  0.00  0.00    +0.000 OA
ATOM     27  H   UNL     1      50.891  -0.136  18.303  0.00  0.00    +0.000 HD
ATOM     28  H   UNL     1      52.623  -0.450  18.322  0.00  0.00    +0.000 HD
ENDBRANCH  21  24
ENDBRANCH  16  18
ENDBRANCH  15  16
ENDBRANCH   1  15
TORSDOF 6
ENDMDL
MODEL 8
REMARK VINA RESULT:    -6.373      3.487      7.353
REMARK INTER + INTRA:          -9.578
REMARK INTER:                  -8.160
REMARK INTRA:                  -1.418
REMARK UNBOUND:                -0.969
REMARK  Name = 
REMARK  7 active torsions:
REMARK  status: ('A' for Active; 'I' for Inactive)
REMARK    1  A    between atoms: C_1  and  C_2
REMARK    2  A    between atoms: C_2  and  C_3
REMARK    3  A    between atoms: C_7  and  C_8
REMARK    4  A    between atoms: C_8  and  C_9
REMARK    5  A    between atoms: C_9  and  N_10
REMARK    6  A    between atoms: N_10  and  C_11
REMARK    7  A    between atoms: C_14  and  C_15
REMARK                            x       y       z     vdW  Elec       q    Type
REMARK                         _______ _______ _______ _____ _____    ______ ____
ROOT
ATOM      1  C   UNL     1      48.762   8.439  12.042  0.00  0.00    +0.000 C 
ENDROOT
BRANCH   1   6
ATOM      2  C   UNL     1      45.226   6.981  11.737  0.00  0.00    +0.000 A 
ATOM      3  C   UNL     1      44.461   8.154  11.847  0.00  0.00    +0.000 A 
ATOM      4  C   UNL     1      45.074   9.406  11.972  0.00  0.00    +0.000 A 
ATOM      5  C   UNL     1      46.464   9.511  12.004  0.00  0.00    +0.000 A 
ATOM      6  C   UNL     1      47.257   8.365  11.903  0.00  0.00    +0.000 A 
ATOM      7  C   UNL     1      46.628   7.116  11.762  0.00  0.00    +0.000 A 
BRANCH   2   9
ATOM      8  C   UNL     1      43.048   5.763  11.313  0.00  0.00    +0.000 C 
ATOM      9  C   UNL     1      44.548   5.608  11.643  0.00  0.00    +0.000 C 
ATOM     10  C   UNL     1      44.737   4.800  12.941  0.00  0.00    +0.000 C 
ATOM     11  C   UNL     1      44.998   3.359  12.511  0.00  0.00    +0.000 C 
ATOM     12  C   UNL     1      44.933   3.362  10.998  0.00  0.00    +0.000 C 
ATOM     13  N   UNL     1      45.185   4.745  10.627  0.00  0.00    +0.000 NA
ATOM     14  H   UNL     1      44.820   4.952   9.701  0.00  0.00    +0.000 HD
ENDBRANCH   2   9
ENDBRANCH   1   6
BRANCH   1  15
ATOM     15  C   UNL     1      49.272   7.294  12.927  0.00  0.00    +0.000 C 
BRANCH  15  16
ATOM     16  N   UNL     1      49.174   7.619  14.358  0.00  0.00    +0.000 N 
ATOM     17  H   UNL     1      48.673   8.490  14.525  0.00  0.00    +0.000 HD
BRANCH  16  18
ATOM     18  C   UNL     1      48.713   6.586  15.198  0.00  0.00    +0.000 A 
ATOM     19  C   UNL     1      47.801   5.613  14.778  0.00  0.00    +0.000 A 
ATOM     20  C   UNL     1      47.407   4.583  15.629  0.00  0.00    +0.000 A 
ATOM     21  C   UNL     1      47.970   4.524  16.893  0.00  0.00    +0.000 A 
ATOM     22  N   UNL     1      48.903   5.407  17.345  0.00  0.00    +0.000 NA
ATOM     23  C   UNL     1      49.257   6.393  16.477  0.00  0.00    +0.000 A 
BRANCH  21  24
ATOM     24  C   UNL     1      47.549   3.428  17.824  0.00  0.00    +0.000 C 
ATOM     25  N   UNL     1      48.360   3.229  18.904  0.00  0.00    +0.000 N 
ATOM     26  O   UNL     1      46.545   2.748  17.637  0.00  0.00    +0.000 OA
ATOM     27  H   UNL     1      49.196   3.793  19.011  0.00  0.00    +0.000 HD
ATOM     28  H   UNL     1      48.148   2.488  19.556  0.00  0.00    +0.000 HD
ENDBRANCH  21  24
ENDBRANCH  16  18
ENDBRANCH  15  16
ENDBRANCH   1  15
TORSDOF 6
ENDMDL
MODEL 9
REMARK VINA RESULT:    -6.362      3.326      5.596
REMARK INTER + INTRA:          -9.563
REMARK INTER:                  -8.670
REMARK INTRA:                  -0.893
REMARK UNBOUND:                -0.969
REMARK  Name = 
REMARK  7 active torsions:
REMARK  status: ('A' for Active; 'I' for Inactive)
REMARK    1  A    between atoms: C_1  and  C_2
REMARK    2  A    between atoms: C_2  and  C_3
REMARK    3  A    between atoms: C_7  and  C_8
REMARK    4  A    between atoms: C_8  and  C_9
REMARK    5  A    between atoms: C_9  and  N_10
REMARK    6  A    between atoms: N_10  and  C_11
REMARK    7  A    between atoms: C_14  and  C_15
REMARK                            x       y       z     vdW  Elec       q    Type
REMARK                         _______ _______ _______ _____ _____    ______ ____
ROOT
ATOM      1  C   UNL     1      48.595   7.154  12.475  0.00  0.00    +0.000 C 
ENDROOT
BRANCH   1   6
ATOM      2  C   UNL     1      48.971   6.351  16.207  0.00  0.00    +0.000 A 
ATOM      3  C   UNL     1      49.986   7.257  16.558  0.00  0.00    +0.000 A 
ATOM      4  C   UNL     1      50.512   8.149  15.618  0.00  0.00    +0.000 A 
ATOM      5  C   UNL     1      50.047   8.145  14.303  0.00  0.00    +0.000 A 
ATOM      6  C   UNL     1      49.043   7.254  13.917  0.00  0.00    +0.000 A 
ATOM      7  C   UNL     1      48.512   6.374  14.876  0.00  0.00    +0.000 A 
BRANCH   2   9
ATOM      8  C   UNL     1      48.059   6.060  18.551  0.00  0.00    +0.000 C 
ATOM      9  C   UNL     1      48.428   5.347  17.232  0.00  0.00    +0.000 C 
ATOM     10  C   UNL     1      49.437   4.211  17.493  0.00  0.00    +0.000 C 
ATOM     11  C   UNL     1      48.616   2.929  17.599  0.00  0.00    +0.000 C 
ATOM     12  C   UNL     1      47.172   3.348  17.421  0.00  0.00    +0.000 C 
ATOM     13  N   UNL     1      47.246   4.621  16.723  0.00  0.00    +0.000 NA
ATOM     14  H   UNL     1      46.401   5.169  16.861  0.00  0.00    +0.000 HD
ENDBRANCH   2   9
ENDBRANCH   1   6
BRANCH   1  15
ATOM     15  C   UNL     1      47.386   8.066  12.228  0.00  0.00    +0.000 C 
BRANCH  15  16
ATOM     16  N   UNL     1      46.186   7.593  12.935  0.00  0.00    +0.000 N 
ATOM     17  H   UNL     1      45.500   8.333  13.074  0.00  0.00    +0.000 HD
BRANCH  16  18
ATOM     18  C   UNL     1      45.589   6.421  12.429  0.00  0.00    +0.000 A 
ATOM     19  C   UNL     1      45.472   6.156  11.061  0.00  0.00    +0.000 A 
ATOM     20  C   UNL     1      44.914   4.964  10.606  0.00  0.00    +0.000 A 
ATOM     21  C   UNL     1      44.513   4.027  11.542  0.00  0.00    +0.000 A 
ATOM     22  N   UNL     1      44.648   4.198  12.887  0.00  0.00    +0.000 NA
ATOM     23  C   UNL     1      45.200   5.378  13.282  0.00  0.00    +0.000 A 
BRANCH  21  24
ATOM     24  C   UNL     1      43.902   2.744  11.068  0.00  0.00    +0.000 C 
ATOM     25  N   UNL     1      44.461   2.205   9.945  0.00  0.00    +0.000 N 
ATOM     26  O   UNL     1      42.962   2.205  11.643  0.00  0.00    +0.000 OA
ATOM     27  H   UNL     1      45.221   2.692   9.483  0.00  0.00    +0.000 HD
ATOM     28  H   UNL     1      44.079   1.355   9.558  0.00  0.00    +0.000 HD
ENDBRANCH  21  24
ENDBRANCH  16  18
ENDBRANCH  15  16
ENDBRANCH   1  15
TORSDOF 6
ENDMDL
