MODEL 1
REMARK VINA RESULT:    -8.330      0.000      0.000
REMARK INTER + INTRA:         -10.892
REMARK INTER:                 -10.522
REMARK INTRA:                  -0.370
REMARK UNBOUND:                -0.370
REMARK  Name = 
REMARK  5 active torsions:
REMARK  status: ('A' for Active; 'I' for Inactive)
REMARK    1  A    between atoms: N_1  and  C_2
REMARK    2  A    between atoms: C_2  and  C_3
REMARK    3  A    between atoms: C_3  and  C_4
REMARK    4  A    between atoms: C_7  and  C_8
REMARK    5  A    between atoms: C_8  and  C_9
REMARK                            x       y       z     vdW  Elec       q    Type
REMARK                         _______ _______ _______ _____ _____    ______ ____
ROOT
ATOM      1  C   UNL     1      43.357   2.848  11.383  0.00  0.00    +0.000 C 
ENDROOT
BRANCH   1   2
ATOM      2  C   UNL     1      43.530   4.209  11.983  0.00  0.00    +0.000 A 
ATOM      3  N   UNL     1      42.565   5.139  11.865  0.00  0.00    +0.000 NA
ATOM      4  N   UNL     1      43.182   6.281  12.212  0.00  0.00    +0.000 N 
ATOM      5  C   UNL     1      44.498   6.124  12.572  0.00  0.00    +0.000 A 
ATOM      6  C   UNL     1      45.506   7.043  12.851  0.00  0.00    +0.000 A 
ATOM      7  C   UNL     1      46.747   6.519  13.210  0.00  0.00    +0.000 A 
ATOM      8  F   UNL     1      47.767   7.359  13.431  0.00  0.00    +0.000 F 
ATOM      9  C   UNL     1      46.964   5.149  13.333  0.00  0.00    +0.000 A 
ATOM     10  C   UNL     1      45.947   4.243  13.014  0.00  0.00    +0.000 A 
ATOM     11  C   UNL     1      44.704   4.746  12.583  0.00  0.00    +0.000 A 
ATOM     12  H   UNL     1      42.658   7.145  12.155  0.00  0.00    +0.000 HD
ENDBRANCH   1   2
BRANCH   1  16
ATOM     13  C   UNL     1      45.810   3.139   7.802  0.00  0.00    +0.000 A 
ATOM     14  C   UNL     1      45.638   1.907   8.451  0.00  0.00    +0.000 A 
ATOM     15  C   UNL     1      44.806   1.798   9.570  0.00  0.00    +0.000 A 
ATOM     16  C   UNL     1      44.139   2.921  10.081  0.00  0.00    +0.000 A 
ATOM     17  C   UNL     1      44.297   4.148   9.417  0.00  0.00    +0.000 A 
ATOM     18  C   UNL     1      45.123   4.256   8.293  0.00  0.00    +0.000 A 
BRANCH  13  19
ATOM     19  C   UNL     1      46.767   3.284   6.641  0.00  0.00    +0.000 C 
BRANCH  19  20
ATOM     20  C   UNL     1      48.050   2.460   6.797  0.00  0.00    +0.000 C 
BRANCH  20  21
ATOM     21  N   UNL     1      48.424   1.823   5.530  0.00  0.00    +0.000 NA
ATOM     22  H   UNL     1      47.612   1.794   4.919  0.00  0.00    +0.000 HD
ATOM     23  H   UNL     1      48.689   0.853   5.701  0.00  0.00    +0.000 HD
ENDBRANCH  20  21
ENDBRANCH  19  20
ENDBRANCH  13  19
ENDBRANCH   1  16
TORSDOF 5
ENDMDL
MODEL 2
REMARK VINA RESULT:    -8.093      1.711      2.188
REMARK INTER + INTRA:         -10.592
REMARK INTER:                 -10.018
REMARK INTRA:                  -0.574
REMARK UNBOUND:                -0.370
REMARK  Name = 
REMARK  5 active torsions:
REMARK  status: ('A' for Active; 'I' for Inactive)
REMARK    1  A    between atoms: N_1  and  C_2
REMARK    2  A    between atoms: C_2  and  C_3
REMARK    3  A    between atoms: C_3  and  C_4
REMARK    4  A    between atoms: C_7  and  C_8
REMARK    5  A    between atoms: C_8  and  C_9
REMARK                            x       y       z     vdW  Elec       q    Type
REMARK                         _______ _______ _______ _____ _____    ______ ____
ROOT
ATOM      1  C   UNL     1      44.238   4.373  11.699  0.00  0.00    +0.000 C 
ENDROOT
BRANCH   1   2
ATOM      2  C   UNL     1      45.499   4.352  12.508  0.00  0.00    +0.000 A 
ATOM      3  N   UNL     1      45.843   3.260  13.214  0.00  0.00    +0.000 NA
ATOM      4  N   UNL     1      46.805   3.706  14.038  0.00  0.00    +0.000 N 
ATOM      5  C   UNL     1      47.112   5.035  13.879  0.00  0.00    +0.000 A 
ATOM      6  C   UNL     1      47.922   5.900  14.609  0.00  0.00    +0.000 A 
ATOM      7  C   UNL     1      48.021   7.209  14.139  0.00  0.00    +0.000 A 
ATOM      8  F   UNL     1      48.740   8.098  14.838  0.00  0.00    +0.000 F 
ATOM      9  C   UNL     1      47.385   7.627  12.972  0.00  0.00    +0.000 A 
ATOM     10  C   UNL     1      46.548   6.750  12.275  0.00  0.00    +0.000 A 
ATOM     11  C   UNL     1      46.378   5.441  12.766  0.00  0.00    +0.000 A 
ATOM     12  H   UNL     1      47.196   3.061  14.713  0.00  0.00    +0.000 HD
ENDBRANCH   1   2
BRANCH   1  16
ATOM     13  C   UNL     1      45.768   3.088   7.835  0.00  0.00    +0.000 A 
ATOM     14  C   UNL     1      45.170   2.167   8.708  0.00  0.00    +0.000 A 
ATOM     15  C   UNL     1      44.627   2.585   9.927  0.00  0.00    +0.000 A 
ATOM     16  C   UNL     1      44.685   3.932  10.314  0.00  0.00    +0.000 A 
ATOM     17  C   UNL     1      45.266   4.854   9.429  0.00  0.00    +0.000 A 
ATOM     18  C   UNL     1      45.802   4.437   8.207  0.00  0.00    +0.000 A 
BRANCH  13  19
ATOM     19  C   UNL     1      46.427   2.635   6.552  0.00  0.00    +0.000 C 
BRANCH  19  20
ATOM     20  C   UNL     1      47.628   1.707   6.773  0.00  0.00    +0.000 C 
BRANCH  20  21
ATOM     21  N   UNL     1      48.598   1.832   5.681  0.00  0.00    +0.000 NA
ATOM     22  H   UNL     1      49.073   0.942   5.555  0.00  0.00    +0.000 HD
ATOM     23  H   UNL     1      49.318   2.507   5.939  0.00  0.00    +0.000 HD
ENDBRANCH  20  21
ENDBRANCH  19  20
ENDBRANCH  13  19
ENDBRANCH   1  16
TORSDOF 5
ENDMDL
MODEL 3
REMARK VINA RESULT:    -7.997      2.805      6.178
REMARK INTER + INTRA:         -10.470
REMARK INTER:                  -9.748
REMARK INTRA:                  -0.722
REMARK UNBOUND:                -0.370
REMARK  Name = 
REMARK  5 active torsions:
REMARK  status: ('A' for Active; 'I' for Inactive)
REMARK    1  A    between atoms: N_1  and  C_2
REMARK    2  A    between atoms: C_2  and  C_3
REMARK    3  A    between atoms: C_3  and  C_4
REMARK    4  A    between atoms: C_7  and  C_8
REMARK    5  A    between atoms: C_8  and  C_9
REMARK                            x       y       z     vdW  Elec       q    Type
REMARK                         _______ _______ _______ _____ _____    ______ ____
ROOT
ATOM      1  C   UNL     1      43.740   5.222  10.682  0.00  0.00    +0.000 C 
ENDROOT
BRANCH   1   2
ATOM      2  C   UNL     1      44.000   3.875  10.079  0.00  0.00    +0.000 A 
ATOM      3  N   UNL     1      43.510   2.761  10.651  0.00  0.00    +0.000 NA
ATOM      4  N   UNL     1      44.196   1.771  10.056  0.00  0.00    +0.000 N 
ATOM      5  C   UNL     1      45.092   2.198   9.107  0.00  0.00    +0.000 A 
ATOM      6  C   UNL     1      46.075   1.529   8.383  0.00  0.00    +0.000 A 
ATOM      7  C   UNL     1      46.804   2.289   7.470  0.00  0.00    +0.000 A 
ATOM      8  F   UNL     1      47.801   1.707   6.789  0.00  0.00    +0.000 F 
ATOM      9  C   UNL     1      46.537   3.638   7.250  0.00  0.00    +0.000 A 
ATOM     10  C   UNL     1      45.570   4.298   8.014  0.00  0.00    +0.000 A 
ATOM     11  C   UNL     1      44.866   3.568   8.991  0.00  0.00    +0.000 A 
ATOM     12  H   UNL     1      44.029   0.821  10.362  0.00  0.00    +0.000 HD
ENDBRANCH   1   2
BRANCH   1  16
ATOM     13  C   UNL     1      47.163   6.215  13.176  0.00  0.00    +0.000 A 
ATOM     14  C   UNL     1      46.191   5.311  13.627  0.00  0.00    +0.000 A 
ATOM     15  C   UNL     1      45.118   4.946  12.807  0.00  0.00    +0.000 A 
ATOM     16  C   UNL     1      44.979   5.490  11.522  0.00  0.00    +0.000 A 
ATOM     17  C   UNL     1      45.966   6.379  11.066  0.00  0.00    +0.000 A 
ATOM     18  C   UNL     1      47.043   6.738  11.883  0.00  0.00    +0.000 A 
BRANCH  13  19
ATOM     19  C   UNL     1      48.282   6.675  14.082  0.00  0.00    +0.000 C 
BRANCH  19  20
ATOM     20  C   UNL     1      48.434   8.199  14.144  0.00  0.00    +0.000 C 
BRANCH  20  21
ATOM     21  N   UNL     1      47.292   8.815  14.828  0.00  0.00    +0.000 NA
ATOM     22  H   UNL     1      47.563   9.055  15.778  0.00  0.00    +0.000 HD
ATOM     23  H   UNL     1      46.535   8.137  14.908  0.00  0.00    +0.000 HD
ENDBRANCH  20  21
ENDBRANCH  19  20
ENDBRANCH  13  19
ENDBRANCH   1  16
TORSDOF 5
ENDMDL
MODEL 4
REMARK VINA RESULT:    -7.648      2.870      5.985
REMARK INTER + INTRA:         -10.030
REMARK INTER:                  -9.325
REMARK INTRA:                  -0.704
REMARK UNBOUND:                -0.370
REMARK  Name = 
REMARK  5 active torsions:
REMARK  status: ('A' for Active; 'I' for Inactive)
REMARK    1  A    between atoms: N_1  and  C_2
REMARK    2  A    between atoms: C_2  and  C_3
REMARK    3  A    between atoms: C_3  and  C_4
REMARK    4  A    between atoms: C_7  and  C_8
REMARK    5  A    between atoms: C_8  and  C_9
REMARK                            x       y       z     vdW  Elec       q    Type
REMARK                         _______ _______ _______ _____ _____    ______ ____
ROOT
ATOM      1  C   UNL     1      43.417   5.436  11.038  0.00  0.00    +0.000 C 
ENDROOT
BRANCH   1   2
ATOM      2  C   UNL     1      43.662   4.064  10.489  0.00  0.00    +0.000 A 
ATOM      3  N   UNL     1      43.224   2.974  11.144  0.00  0.00    +0.000 NA
ATOM      4  N   UNL     1      43.889   1.965  10.559  0.00  0.00    +0.000 N 
ATOM      5  C   UNL     1      44.722   2.354   9.539  0.00  0.00    +0.000 A 
ATOM      6  C   UNL     1      45.671   1.662   8.793  0.00  0.00    +0.000 A 
ATOM      7  C   UNL     1      46.333   2.384   7.801  0.00  0.00    +0.000 A 
ATOM      8  F   UNL     1      47.298   1.781   7.093  0.00  0.00    +0.000 F 
ATOM      9  C   UNL     1      46.033   3.717   7.530  0.00  0.00    +0.000 A 
ATOM     10  C   UNL     1      45.102   4.402   8.317  0.00  0.00    +0.000 A 
ATOM     11  C   UNL     1      44.467   3.714   9.369  0.00  0.00    +0.000 A 
ATOM     12  H   UNL     1      43.755   1.029  10.922  0.00  0.00    +0.000 HD
ENDBRANCH   1   2
BRANCH   1  16
ATOM     13  C   UNL     1      47.295   6.269  12.823  0.00  0.00    +0.000 A 
ATOM     14  C   UNL     1      46.915   6.887  11.623  0.00  0.00    +0.000 A 
ATOM     15  C   UNL     1      45.648   6.665  11.074  0.00  0.00    +0.000 A 
ATOM     16  C   UNL     1      44.735   5.805  11.701  0.00  0.00    +0.000 A 
ATOM     17  C   UNL     1      45.111   5.204  12.913  0.00  0.00    +0.000 A 
ATOM     18  C   UNL     1      46.375   5.433  13.466  0.00  0.00    +0.000 A 
BRANCH  13  19
ATOM     19  C   UNL     1      48.689   6.440  13.383  0.00  0.00    +0.000 C 
BRANCH  19  20
ATOM     20  C   UNL     1      48.712   6.979  14.818  0.00  0.00    +0.000 C 
BRANCH  20  21
ATOM     21  N   UNL     1      49.230   5.974  15.750  0.00  0.00    +0.000 NA
ATOM     22  H   UNL     1      50.185   6.215  16.004  0.00  0.00    +0.000 HD
ATOM     23  H   UNL     1      49.278   5.068  15.284  0.00  0.00    +0.000 HD
ENDBRANCH  20  21
ENDBRANCH  19  20
ENDBRANCH  13  19
ENDBRANCH   1  16
TORSDOF 5
ENDMDL
MODEL 5
REMARK VINA RESULT:    -6.691      2.973      5.566
REMARK INTER + INTRA:          -8.821
REMARK INTER:                  -8.098
REMARK INTRA:                  -0.723
REMARK UNBOUND:                -0.370
REMARK  Name = 
REMARK  5 active torsions:
REMARK  status: ('A' for Active; 'I' for Inactive)
REMARK    1  A    between atoms: N_1  and  C_2
REMARK    2  A    between atoms: C_2  and  C_3
REMARK    3  A    between atoms: C_3  and  C_4
REMARK    4  A    between atoms: C_7  and  C_8
REMARK    5  A    between atoms: C_8  and  C_9
REMARK                            x       y       z     vdW  Elec       q    Type
REMARK                         _______ _______ _______ _____ _____    ______ ____
ROOT
ATOM      1  C   UNL     1      43.891   5.635  12.792  0.00  0.00    +0.000 C 
ENDROOT
BRANCH   1   2
ATOM      2  C   UNL     1      43.793   4.350  12.028  0.00  0.00    +0.000 A 
ATOM      3  N   UNL     1      43.456   3.206  12.651  0.00  0.00    +0.000 NA
ATOM      4  N   UNL     1      43.785   2.254  11.763  0.00  0.00    +0.000 N 
ATOM      5  C   UNL     1      44.299   2.736  10.584  0.00  0.00    +0.000 A 
ATOM      6  C   UNL     1      44.882   2.101   9.491  0.00  0.00    +0.000 A 
ATOM      7  C   UNL     1      45.283   2.918   8.435  0.00  0.00    +0.000 A 
ATOM      8  F   UNL     1      45.903   2.364   7.384  0.00  0.00    +0.000 F 
ATOM      9  C   UNL     1      45.070   4.295   8.442  0.00  0.00    +0.000 A 
ATOM     10  C   UNL     1      44.515   4.915   9.566  0.00  0.00    +0.000 A 
ATOM     11  C   UNL     1      44.164   4.120  10.674  0.00  0.00    +0.000 A 
ATOM     12  H   UNL     1      43.662   1.285  12.031  0.00  0.00    +0.000 HD
ENDBRANCH   1   2
BRANCH   1  16
ATOM     13  C   UNL     1      48.064   6.862  12.706  0.00  0.00    +0.000 A 
ATOM     14  C   UNL     1      47.694   5.628  13.261  0.00  0.00    +0.000 A 
ATOM     15  C   UNL     1      46.361   5.205  13.241  0.00  0.00    +0.000 A 
ATOM     16  C   UNL     1      45.360   6.013  12.683  0.00  0.00    +0.000 A 
ATOM     17  C   UNL     1      45.736   7.238  12.109  0.00  0.00    +0.000 A 
ATOM     18  C   UNL     1      47.071   7.658  12.122  0.00  0.00    +0.000 A 
BRANCH  13  19
ATOM     19  C   UNL     1      49.487   7.363  12.792  0.00  0.00    +0.000 C 
BRANCH  19  20
ATOM     20  C   UNL     1      50.086   7.747  11.434  0.00  0.00    +0.000 C 
BRANCH  20  21
ATOM     21  N   UNL     1      50.399   9.179  11.381  0.00  0.00    +0.000 NA
ATOM     22  H   UNL     1      49.639   9.669  10.916  0.00  0.00    +0.000 HD
ATOM     23  H   UNL     1      51.229   9.326  10.808  0.00  0.00    +0.000 HD
ENDBRANCH  20  21
ENDBRANCH  19  20
ENDBRANCH  13  19
ENDBRANCH   1  16
TORSDOF 5
ENDMDL
MODEL 6
REMARK VINA RESULT:    -6.133      3.371      6.428
REMARK INTER + INTRA:          -8.116
REMARK INTER:                  -7.865
REMARK INTRA:                  -0.251
REMARK UNBOUND:                -0.370
REMARK  Name = 
REMARK  5 active torsions:
REMARK  status: ('A' for Active; 'I' for Inactive)
REMARK    1  A    between atoms: N_1  and  C_2
REMARK    2  A    between atoms: C_2  and  C_3
REMARK    3  A    between atoms: C_3  and  C_4
REMARK    4  A    between atoms: C_7  and  C_8
REMARK    5  A    between atoms: C_8  and  C_9
REMARK                            x       y       z     vdW  Elec       q    Type
REMARK                         _______ _______ _______ _____ _____    ______ ____
ROOT
ATOM      1  C   UNL     1      47.029   6.914  12.583  0.00  0.00    +0.000 C 
ENDROOT
BRANCH   1   2
ATOM      2  C   UNL     1      45.727   6.446  12.008  0.00  0.00    +0.000 A 
ATOM      3  N   UNL     1      44.608   6.448  12.755  0.00  0.00    +0.000 NA
ATOM      4  N   UNL     1      43.757   5.682  12.051  0.00  0.00    +0.000 N 
ATOM      5  C   UNL     1      44.273   5.206  10.871  0.00  0.00    +0.000 A 
ATOM      6  C   UNL     1      43.789   4.287   9.944  0.00  0.00    +0.000 A 
ATOM      7  C   UNL     1      44.585   4.050   8.825  0.00  0.00    +0.000 A 
ATOM      8  F   UNL     1      44.194   3.130   7.931  0.00  0.00    +0.000 F 
ATOM      9  C   UNL     1      45.783   4.728   8.611  0.00  0.00    +0.000 A 
ATOM     10  C   UNL     1      46.267   5.621   9.573  0.00  0.00    +0.000 A 
ATOM     11  C   UNL     1      45.514   5.827  10.745  0.00  0.00    +0.000 A 
ATOM     12  H   UNL     1      42.843   5.496  12.443  0.00  0.00    +0.000 HD
ENDBRANCH   1   2
BRANCH   1  16
ATOM     13  C   UNL     1      47.671   4.078  15.819  0.00  0.00    +0.000 A 
ATOM     14  C   UNL     1      47.084   3.665  14.614  0.00  0.00    +0.000 A 
ATOM     15  C   UNL     1      46.926   4.560  13.551  0.00  0.00    +0.000 A 
ATOM     16  C   UNL     1      47.334   5.896  13.672  0.00  0.00    +0.000 A 
ATOM     17  C   UNL     1      47.940   6.301  14.871  0.00  0.00    +0.000 A 
ATOM     18  C   UNL     1      48.105   5.404  15.932  0.00  0.00    +0.000 A 
BRANCH  13  19
ATOM     19  C   UNL     1      47.775   3.140  17.000  0.00  0.00    +0.000 C 
BRANCH  19  20
ATOM     20  C   UNL     1      49.197   2.625  17.252  0.00  0.00    +0.000 C 
BRANCH  20  21
ATOM     21  N   UNL     1      49.654   1.778  16.146  0.00  0.00    +0.000 NA
ATOM     22  H   UNL     1      50.640   1.956  15.975  0.00  0.00    +0.000 HD
ATOM     23  H   UNL     1      49.163   2.039  15.290  0.00  0.00    +0.000 HD
ENDBRANCH  20  21
ENDBRANCH  19  20
ENDBRANCH  13  19
ENDBRANCH   1  16
TORSDOF 5
ENDMDL
MODEL 7
REMARK VINA RESULT:    -6.075      2.982      6.406
REMARK INTER + INTRA:          -8.044
REMARK INTER:                  -7.675
REMARK INTRA:                  -0.369
REMARK UNBOUND:                -0.370
REMARK  Name = 
REMARK  5 active torsions:
REMARK  status: ('A' for Active; 'I' for Inactive)
REMARK    1  A    between atoms: N_1  and  C_2
REMARK    2  A    between atoms: C_2  and  C_3
REMARK    3  A    between atoms: C_3  and  C_4
REMARK    4  A    between atoms: C_7  and  C_8
REMARK    5  A    between atoms: C_8  and  C_9
REMARK                            x       y       z     vdW  Elec       q    Type
REMARK                         _______ _______ _______ _____ _____    ______ ____
ROOT
ATOM      1  C   UNL     1      44.879   7.190  11.036  0.00  0.00    +0.000 C 
ENDROOT
BRANCH   1   2
ATOM      2  C   UNL     1      44.234   5.838  11.030  0.00  0.00    +0.000 A 
ATOM      3  N   UNL     1      43.431   5.457  12.040  0.00  0.00    +0.000 NA
ATOM      4  N   UNL     1      43.316   4.130  11.869  0.00  0.00    +0.000 N 
ATOM      5  C   UNL     1      43.991   3.641  10.778  0.00  0.00    +0.000 A 
ATOM      6  C   UNL     1      44.244   2.345  10.340  0.00  0.00    +0.000 A 
ATOM      7  C   UNL     1      44.964   2.215   9.153  0.00  0.00    +0.000 A 
ATOM      8  F   UNL     1      45.285   0.989   8.718  0.00  0.00    +0.000 F 
ATOM      9  C   UNL     1      45.371   3.321   8.410  0.00  0.00    +0.000 A 
ATOM     10  C   UNL     1      45.138   4.614   8.888  0.00  0.00    +0.000 A 
ATOM     11  C   UNL     1      44.472   4.771  10.119  0.00  0.00    +0.000 A 
ATOM     12  H   UNL     1      42.783   3.603  12.550  0.00  0.00    +0.000 HD
ENDBRANCH   1   2
BRANCH   1  16
ATOM     13  C   UNL     1      48.014   6.985  14.045  0.00  0.00    +0.000 A 
ATOM     14  C   UNL     1      47.271   8.161  13.868  0.00  0.00    +0.000 A 
ATOM     15  C   UNL     1      46.225   8.214  12.940  0.00  0.00    +0.000 A 
ATOM     16  C   UNL     1      45.908   7.099  12.152  0.00  0.00    +0.000 A 
ATOM     17  C   UNL     1      46.640   5.916  12.346  0.00  0.00    +0.000 A 
ATOM     18  C   UNL     1      47.680   5.861  13.280  0.00  0.00    +0.000 A 
BRANCH  13  19
ATOM     19  C   UNL     1      49.195   6.940  14.987  0.00  0.00    +0.000 C 
BRANCH  19  20
ATOM     20  C   UNL     1      48.858   6.361  16.366  0.00  0.00    +0.000 C 
BRANCH  20  21
ATOM     21  N   UNL     1      49.436   5.024  16.531  0.00  0.00    +0.000 NA
ATOM     22  H   UNL     1      49.577   4.841  17.522  0.00  0.00    +0.000 HD
ATOM     23  H   UNL     1      50.360   4.995  16.101  0.00  0.00    +0.000 HD
ENDBRANCH  20  21
ENDBRANCH  19  20
ENDBRANCH  13  19
ENDBRANCH   1  16
TORSDOF 5
ENDMDL
MODEL 8
REMARK VINA RESULT:    -5.874      3.833      5.803
REMARK INTER + INTRA:          -7.789
REMARK INTER:                  -7.233
REMARK INTRA:                  -0.556
REMARK UNBOUND:                -0.370
REMARK  Name = 
REMARK  5 active torsions:
REMARK  status: ('A' for Active; 'I' for Inactive)
REMARK    1  A    between atoms: N_1  and  C_2
REMARK    2  A    between atoms: C_2  and  C_3
REMARK    3  A    between atoms: C_3  and  C_4
REMARK    4  A    between atoms: C_7  and  C_8
REMARK    5  A    between atoms: C_8  and  C_9
REMARK                            x       y       z     vdW  Elec       q    Type
REMARK                         _______ _______ _______ _____ _____    ______ ____
ROOT
ATOM      1  C   UNL     1      46.242   8.284  13.266  0.00  0.00    +0.000 C 
ENDROOT
BRANCH   1   2
ATOM      2  C   UNL     1      45.321   7.641  12.275  0.00  0.00    +0.000 A 
ATOM      3  N   UNL     1      44.529   8.392  11.488  0.00  0.00    +0.000 NA
ATOM      4  N   UNL     1      43.644   7.508  10.996  0.00  0.00    +0.000 N 
ATOM      5  C   UNL     1      43.845   6.217  11.414  0.00  0.00    +0.000 A 
ATOM      6  C   UNL     1      43.091   5.057  11.260  0.00  0.00    +0.000 A 
ATOM      7  C   UNL     1      43.619   3.890  11.811  0.00  0.00    +0.000 A 
ATOM      8  F   UNL     1      42.905   2.758  11.743  0.00  0.00    +0.000 F 
ATOM      9  C   UNL     1      44.860   3.866  12.443  0.00  0.00    +0.000 A 
ATOM     10  C   UNL     1      45.584   5.050  12.618  0.00  0.00    +0.000 A 
ATOM     11  C   UNL     1      45.041   6.254  12.130  0.00  0.00    +0.000 A 
ATOM     12  H   UNL     1      42.903   7.854  10.399  0.00  0.00    +0.000 HD
ENDBRANCH   1   2
BRANCH   1  16
ATOM     13  C   UNL     1      50.214   8.363  11.496  0.00  0.00    +0.000 A 
ATOM     14  C   UNL     1      49.739   7.207  12.131  0.00  0.00    +0.000 A 
ATOM     15  C   UNL     1      48.442   7.158  12.653  0.00  0.00    +0.000 A 
ATOM     16  C   UNL     1      47.594   8.271  12.570  0.00  0.00    +0.000 A 
ATOM     17  C   UNL     1      48.065   9.421  11.915  0.00  0.00    +0.000 A 
ATOM     18  C   UNL     1      49.359   9.466  11.387  0.00  0.00    +0.000 A 
BRANCH  13  19
ATOM     19  C   UNL     1      51.639   8.453  10.999  0.00  0.00    +0.000 C 
BRANCH  19  20
ATOM     20  C   UNL     1      52.029   7.318  10.045  0.00  0.00    +0.000 C 
BRANCH  20  21
ATOM     21  N   UNL     1      53.069   6.469  10.633  0.00  0.00    +0.000 NA
ATOM     22  H   UNL     1      53.983   6.831  10.372  0.00  0.00    +0.000 HD
ATOM     23  H   UNL     1      53.009   5.531  10.237  0.00  0.00    +0.000 HD
ENDBRANCH  20  21
ENDBRANCH  19  20
ENDBRANCH  13  19
ENDBRANCH   1  16
TORSDOF 5
ENDMDL
MODEL 9
REMARK VINA RESULT:    -5.816      1.814      2.707
REMARK INTER + INTRA:          -7.716
REMARK INTER:                  -7.535
REMARK INTRA:                  -0.181
REMARK UNBOUND:                -0.370
REMARK  Name = 
REMARK  5 active torsions:
REMARK  status: ('A' for Active; 'I' for Inactive)
REMARK    1  A    between atoms: N_1  and  C_2
REMARK    2  A    between atoms: C_2  and  C_3
REMARK    3  A    between atoms: C_3  and  C_4
REMARK    4  A    between atoms: C_7  and  C_8
REMARK    5  A    between atoms: C_8  and  C_9
REMARK                            x       y       z     vdW  Elec       q    Type
REMARK                         _______ _______ _______ _____ _____    ______ ____
ROOT
ATOM      1  C   UNL     1      44.510   5.266  12.707  0.00  0.00    +0.000 C 
ENDROOT
BRANCH   1   2
ATOM      2  C   UNL     1      45.196   6.597  12.654  0.00  0.00    +0.000 A 
ATOM      3  N   UNL     1      44.541   7.689  12.218  0.00  0.00    +0.000 NA
ATOM      4  N   UNL     1      45.523   8.580  12.001  0.00  0.00    +0.000 N 
ATOM      5  C   UNL     1      46.780   8.117  12.300  0.00  0.00    +0.000 A 
ATOM      6  C   UNL     1      48.047   8.653  12.088  0.00  0.00    +0.000 A 
ATOM      7  C   UNL     1      49.128   7.902  12.547  0.00  0.00    +0.000 A 
ATOM      8  F   UNL     1      50.372   8.345  12.316  0.00  0.00    +0.000 F 
ATOM      9  C   UNL     1      48.958   6.699  13.229  0.00  0.00    +0.000 A 
ATOM     10  C   UNL     1      47.678   6.163  13.399  0.00  0.00    +0.000 A 
ATOM     11  C   UNL     1      46.574   6.869  12.884  0.00  0.00    +0.000 A 
ATOM     12  H   UNL     1      45.274   9.483  11.617  0.00  0.00    +0.000 HD
ENDBRANCH   1   2
BRANCH   1  16
ATOM     13  C   UNL     1      45.191   3.514   8.784  0.00  0.00    +0.000 A 
ATOM     14  C   UNL     1      45.561   4.840   9.046  0.00  0.00    +0.000 A 
ATOM     15  C   UNL     1      45.395   5.391  10.321  0.00  0.00    +0.000 A 
ATOM     16  C   UNL     1      44.837   4.635  11.362  0.00  0.00    +0.000 A 
ATOM     17  C   UNL     1      44.486   3.300  11.102  0.00  0.00    +0.000 A 
ATOM     18  C   UNL     1      44.660   2.748   9.829  0.00  0.00    +0.000 A 
BRANCH  13  19
ATOM     19  C   UNL     1      45.293   2.934   7.391  0.00  0.00    +0.000 C 
BRANCH  19  20
ATOM     20  C   UNL     1      46.708   2.992   6.805  0.00  0.00    +0.000 C 
BRANCH  20  21
ATOM     21  N   UNL     1      46.796   3.994   5.738  0.00  0.00    +0.000 NA
ATOM     22  H   UNL     1      47.719   4.419   5.754  0.00  0.00    +0.000 HD
ATOM     23  H   UNL     1      46.131   4.746   5.919  0.00  0.00    +0.000 HD
ENDBRANCH  20  21
ENDBRANCH  19  20
ENDBRANCH  13  19
ENDBRANCH   1  16
TORSDOF 5
ENDMDL
