MODEL 1
REMARK VINA RESULT:    -8.424      0.000      0.000
REMARK INTER + INTRA:         -12.499
REMARK INTER:                 -11.378
REMARK INTRA:                  -1.120
REMARK UNBOUND:                -1.120
REMARK  Name = 
REMARK  6 active torsions:
REMARK  status: ('A' for Active; 'I' for Inactive)
REMARK    1  A    between atoms: C_2  and  C_20
REMARK    2  A    between atoms: N_3  and  C_4
REMARK    3  A    between atoms: C_4  and  C_5
REMARK    4  A    between atoms: C_8  and  C_9
REMARK    5  A    between atoms: C_9  and  N_10
REMARK    6  A    between atoms: C_11  and  C_13
REMARK                            x       y       z     vdW  Elec       q    Type
REMARK                         _______ _______ _______ _____ _____    ______ ____
ROOT
ATOM      1  C   UNL     1      47.337   8.294  13.631  0.00  0.00    +0.000 C 
ENDROOT
BRANCH   1   2
ATOM      2  C   UNL     1      46.438   7.491  12.724  0.00  0.00    +0.000 A 
ATOM      3  C   UNL     1      45.211   8.011  12.292  0.00  0.00    +0.000 A 
ATOM      4  C   UNL     1      44.366   7.263  11.462  0.00  0.00    +0.000 A 
ATOM      5  C   UNL     1      44.720   5.967  11.064  0.00  0.00    +0.000 A 
ATOM      6  C   UNL     1      45.945   5.443  11.501  0.00  0.00    +0.000 A 
ATOM      7  C   UNL     1      46.789   6.192  12.330  0.00  0.00    +0.000 A 
BRANCH   5   8
ATOM      8  C   UNL     1      43.803   5.148  10.191  0.00  0.00    +0.000 C 
BRANCH   8   9
ATOM      9  N   UNL     1      44.507   4.502   9.107  0.00  0.00    +0.000 N 
ATOM     10  C   UNL     1      44.642   3.129   9.083  0.00  0.00    +0.000 C 
ATOM     11  O   UNL     1      44.219   2.405   9.979  0.00  0.00    +0.000 OA
ATOM     12  H   UNL     1      44.734   5.045   8.286  0.00  0.00    +0.000 HD
BRANCH  10  13
ATOM     13  C   UNL     1      45.319   2.594   7.828  0.00  0.00    +0.000 C 
ATOM     14  C   UNL     1      46.328   1.477   8.096  0.00  0.00    +0.000 C 
ATOM     15  C   UNL     1      47.239   1.464   6.871  0.00  0.00    +0.000 C 
ATOM     16  C   UNL     1      47.051   2.816   6.187  0.00  0.00    +0.000 C 
ATOM     17  C   UNL     1      46.180   3.640   7.127  0.00  0.00    +0.000 C 
ENDBRANCH  10  13
ENDBRANCH   8   9
ENDBRANCH   5   8
ENDBRANCH   1   2
BRANCH   1  20
ATOM     18  O   UNL     1      49.788   7.018  14.060  0.00  0.00    +0.000 OA
ATOM     19  C   UNL     1      48.954   7.001  14.957  0.00  0.00    +0.000 C 
ATOM     20  N   UNL     1      47.700   7.542  14.806  0.00  0.00    +0.000 N 
ATOM     21  H   UNL     1      47.125   7.693  15.628  0.00  0.00    +0.000 HD
BRANCH  19  22
ATOM     22  C   UNL     1      49.211   6.345  16.246  0.00  0.00    +0.000 A 
ATOM     23  C   UNL     1      50.156   6.866  17.119  0.00  0.00    +0.000 A 
ATOM     24  S   UNL     1      50.360   5.936  18.536  0.00  0.00    +0.000 S 
ATOM     25  C   UNL     1      49.154   4.834  18.056  0.00  0.00    +0.000 A 
ATOM     26  N   UNL     1      48.811   3.777  18.838  0.00  0.00    +0.000 NA
ATOM     27  C   UNL     1      47.857   3.047  18.366  0.00  0.00    +0.000 A 
ATOM     28  N   UNL     1      47.211   3.283  17.180  0.00  0.00    +0.000 N 
ATOM     29  C   UNL     1      47.544   4.315  16.340  0.00  0.00    +0.000 A 
ATOM     30  O   UNL     1      46.979   4.464  15.262  0.00  0.00    +0.000 OA
ATOM     31  C   UNL     1      48.610   5.169  16.827  0.00  0.00    +0.000 A 
ATOM     32  H   UNL     1      46.474   2.668  16.862  0.00  0.00    +0.000 HD
ENDBRANCH  19  22
ENDBRANCH   1  20
TORSDOF 6
ENDMDL
MODEL 2
REMARK VINA RESULT:    -8.138      2.063      3.727
REMARK INTER + INTRA:         -12.113
REMARK INTER:                 -11.063
REMARK INTRA:                  -1.049
REMARK UNBOUND:                -1.120
REMARK  Name = 
REMARK  6 active torsions:
REMARK  status: ('A' for Active; 'I' for Inactive)
REMARK    1  A    between atoms: C_2  and  C_20
REMARK    2  A    between atoms: N_3  and  C_4
REMARK    3  A    between atoms: C_4  and  C_5
REMARK    4  A    between atoms: C_8  and  C_9
REMARK    5  A    between atoms: C_9  and  N_10
REMARK    6  A    between atoms: C_11  and  C_13
REMARK                            x       y       z     vdW  Elec       q    Type
REMARK                         _______ _______ _______ _____ _____    ______ ____
ROOT
ATOM      1  C   UNL     1      46.941   4.373  14.958  0.00  0.00    +0.000 C 
ENDROOT
BRANCH   1   2
ATOM      2  C   UNL     1      46.087   4.432  13.716  0.00  0.00    +0.000 A 
ATOM      3  C   UNL     1      45.869   3.283  12.944  0.00  0.00    +0.000 A 
ATOM      4  C   UNL     1      45.089   3.336  11.782  0.00  0.00    +0.000 A 
ATOM      5  C   UNL     1      44.528   4.546  11.353  0.00  0.00    +0.000 A 
ATOM      6  C   UNL     1      44.751   5.698  12.121  0.00  0.00    +0.000 A 
ATOM      7  C   UNL     1      45.531   5.644  13.283  0.00  0.00    +0.000 A 
BRANCH   5   8
ATOM      8  C   UNL     1      43.709   4.614  10.089  0.00  0.00    +0.000 C 
BRANCH   8   9
ATOM      9  N   UNL     1      44.209   3.730   9.060  0.00  0.00    +0.000 N 
ATOM     10  C   UNL     1      45.323   4.077   8.323  0.00  0.00    +0.000 C 
ATOM     11  O   UNL     1      45.908   5.146   8.468  0.00  0.00    +0.000 OA
ATOM     12  H   UNL     1      43.849   2.787   9.016  0.00  0.00    +0.000 HD
BRANCH  10  13
ATOM     13  C   UNL     1      45.784   2.999   7.351  0.00  0.00    +0.000 C 
ATOM     14  C   UNL     1      46.366   1.759   8.031  0.00  0.00    +0.000 C 
ATOM     15  C   UNL     1      47.221   1.085   6.960  0.00  0.00    +0.000 C 
ATOM     16  C   UNL     1      47.491   2.149   5.900  0.00  0.00    +0.000 C 
ATOM     17  C   UNL     1      46.943   3.451   6.469  0.00  0.00    +0.000 C 
ENDBRANCH  10  13
ENDBRANCH   8   9
ENDBRANCH   5   8
ENDBRANCH   1   2
BRANCH   1  20
ATOM     18  O   UNL     1      49.090   4.802  16.696  0.00  0.00    +0.000 OA
ATOM     19  C   UNL     1      48.665   5.749  16.044  0.00  0.00    +0.000 C 
ATOM     20  N   UNL     1      47.571   5.642  15.220  0.00  0.00    +0.000 N 
ATOM     21  H   UNL     1      47.385   6.380  14.550  0.00  0.00    +0.000 HD
BRANCH  19  22
ATOM     22  C   UNL     1      49.258   7.090  16.142  0.00  0.00    +0.000 A 
ATOM     23  C   UNL     1      49.461   7.675  17.384  0.00  0.00    +0.000 A 
ATOM     24  S   UNL     1      50.101   9.254  17.296  0.00  0.00    +0.000 S 
ATOM     25  C   UNL     1      50.181   9.190  15.597  0.00  0.00    +0.000 A 
ATOM     26  N   UNL     1      50.660  10.235  14.871  0.00  0.00    +0.000 NA
ATOM     27  C   UNL     1      50.695  10.032  13.597  0.00  0.00    +0.000 A 
ATOM     28  N   UNL     1      50.297   8.875  12.983  0.00  0.00    +0.000 N 
ATOM     29  C   UNL     1      49.775   7.806  13.667  0.00  0.00    +0.000 A 
ATOM     30  O   UNL     1      49.379   6.806  13.077  0.00  0.00    +0.000 OA
ATOM     31  C   UNL     1      49.715   7.982  15.105  0.00  0.00    +0.000 A 
ATOM     32  H   UNL     1      50.343   8.781  11.977  0.00  0.00    +0.000 HD
ENDBRANCH  19  22
ENDBRANCH   1  20
TORSDOF 6
ENDMDL
MODEL 3
REMARK VINA RESULT:    -8.015      1.799      2.210
REMARK INTER + INTRA:         -11.947
REMARK INTER:                 -10.959
REMARK INTRA:                  -0.988
REMARK UNBOUND:                -1.120
REMARK  Name = 
REMARK  6 active torsions:
REMARK  status: ('A' for Active; 'I' for Inactive)
REMARK    1  A    between atoms: C_2  and  C_20
REMARK    2  A    between atoms: N_3  and  C_4
REMARK    3  A    between atoms: C_4  and  C_5
REMARK    4  A    between atoms: C_8  and  C_9
REMARK    5  A    between atoms: C_9  and  N_10
REMARK    6  A    between atoms: C_11  and  C_13
REMARK                            x       y       z     vdW  Elec       q    Type
REMARK                         _______ _______ _______ _____ _____    ______ ____
ROOT
ATOM      1  C   UNL     1      48.264   6.909  14.039  0.00  0.00    +0.000 C 
ENDROOT
BRANCH   1   2
ATOM      2  C   UNL     1      47.265   6.013  13.350  0.00  0.00    +0.000 A 
ATOM      3  C   UNL     1      46.983   4.736  13.856  0.00  0.00    +0.000 A 
ATOM      4  C   UNL     1      46.069   3.894  13.211  0.00  0.00    +0.000 A 
ATOM      5  C   UNL     1      45.432   4.302  12.031  0.00  0.00    +0.000 A 
ATOM      6  C   UNL     1      45.718   5.575  11.520  0.00  0.00    +0.000 A 
ATOM      7  C   UNL     1      46.633   6.417  12.166  0.00  0.00    +0.000 A 
BRANCH   5   8
ATOM      8  C   UNL     1      44.466   3.389  11.319  0.00  0.00    +0.000 C 
BRANCH   8   9
ATOM      9  N   UNL     1      45.037   2.805  10.126  0.00  0.00    +0.000 N 
ATOM     10  C   UNL     1      44.796   3.368   8.889  0.00  0.00    +0.000 C 
ATOM     11  O   UNL     1      44.068   4.343   8.736  0.00  0.00    +0.000 OA
ATOM     12  H   UNL     1      45.755   2.101  10.229  0.00  0.00    +0.000 HD
BRANCH  10  13
ATOM     13  C   UNL     1      45.548   2.699   7.747  0.00  0.00    +0.000 C 
ATOM     14  C   UNL     1      46.281   1.419   8.152  0.00  0.00    +0.000 C 
ATOM     15  C   UNL     1      47.352   1.221   7.082  0.00  0.00    +0.000 C 
ATOM     16  C   UNL     1      47.524   2.573   6.396  0.00  0.00    +0.000 C 
ATOM     17  C   UNL     1      46.685   3.557   7.202  0.00  0.00    +0.000 C 
ENDBRANCH  10  13
ENDBRANCH   8   9
ENDBRANCH   5   8
ENDBRANCH   1   2
BRANCH   1  20
ATOM     18  O   UNL     1      49.649   8.463  15.907  0.00  0.00    +0.000 OA
ATOM     19  C   UNL     1      48.866   7.613  16.316  0.00  0.00    +0.000 C 
ATOM     20  N   UNL     1      48.198   6.762  15.471  0.00  0.00    +0.000 N 
ATOM     21  H   UNL     1      47.414   6.226  15.829  0.00  0.00    +0.000 HD
BRANCH  19  22
ATOM     22  C   UNL     1      48.629   7.401  17.750  0.00  0.00    +0.000 A 
ATOM     23  C   UNL     1      48.191   8.449  18.548  0.00  0.00    +0.000 A 
ATOM     24  S   UNL     1      48.030   8.030  20.195  0.00  0.00    +0.000 S 
ATOM     25  C   UNL     1      48.488   6.418  19.889  0.00  0.00    +0.000 A 
ATOM     26  N   UNL     1      48.546   5.498  20.888  0.00  0.00    +0.000 NA
ATOM     27  C   UNL     1      48.872   4.310  20.504  0.00  0.00    +0.000 A 
ATOM     28  N   UNL     1      49.143   3.958  19.208  0.00  0.00    +0.000 N 
ATOM     29  C   UNL     1      49.133   4.856  18.172  0.00  0.00    +0.000 A 
ATOM     30  O   UNL     1      49.433   4.516  17.033  0.00  0.00    +0.000 OA
ATOM     31  C   UNL     1      48.768   6.208  18.549  0.00  0.00    +0.000 A 
ATOM     32  H   UNL     1      49.401   3.008  18.974  0.00  0.00    +0.000 HD
ENDBRANCH  19  22
ENDBRANCH   1  20
TORSDOF 6
ENDMDL
MODEL 4
REMARK VINA RESULT:    -7.949      2.557      3.216
REMARK INTER + INTRA:         -11.858
REMARK INTER:                 -11.084
REMARK INTRA:                  -0.774
REMARK UNBOUND:                -1.120
REMARK  Name = 
REMARK  6 active torsions:
REMARK  status: ('A' for Active; 'I' for Inactive)
REMARK    1  A    between atoms: C_2  and  C_20
REMARK    2  A    between atoms: N_3  and  C_4
REMARK    3  A    between atoms: C_4  and  C_5
REMARK    4  A    between atoms: C_8  and  C_9
REMARK    5  A    between atoms: C_9  and  N_10
REMARK    6  A    between atoms: C_11  and  C_13
REMARK                            x       y       z     vdW  Elec       q    Type
REMARK                         _______ _______ _______ _____ _____    ______ ____
ROOT
ATOM      1  C   UNL     1      47.280   4.313  14.958  0.00  0.00    +0.000 C 
ENDROOT
BRANCH   1   2
ATOM      2  C   UNL     1      46.405   4.408  13.733  0.00  0.00    +0.000 A 
ATOM      3  C   UNL     1      45.983   5.655  13.252  0.00  0.00    +0.000 A 
ATOM      4  C   UNL     1      45.157   5.747  12.125  0.00  0.00    +0.000 A 
ATOM      5  C   UNL     1      44.716   4.592  11.466  0.00  0.00    +0.000 A 
ATOM      6  C   UNL     1      45.132   3.343  11.950  0.00  0.00    +0.000 A 
ATOM      7  C   UNL     1      45.958   3.252  13.078  0.00  0.00    +0.000 A 
BRANCH   5   8
ATOM      8  C   UNL     1      43.806   4.684  10.266  0.00  0.00    +0.000 C 
BRANCH   8   9
ATOM      9  N   UNL     1      44.238   3.832   9.181  0.00  0.00    +0.000 N 
ATOM     10  C   UNL     1      45.356   4.158   8.441  0.00  0.00    +0.000 C 
ATOM     11  O   UNL     1      46.002   5.183   8.632  0.00  0.00    +0.000 OA
ATOM     12  H   UNL     1      43.824   2.914   9.093  0.00  0.00    +0.000 HD
BRANCH  10  13
ATOM     13  C   UNL     1      45.738   3.112   7.402  0.00  0.00    +0.000 C 
ATOM     14  C   UNL     1      46.391   1.861   7.993  0.00  0.00    +0.000 C 
ATOM     15  C   UNL     1      47.153   1.227   6.832  0.00  0.00    +0.000 C 
ATOM     16  C   UNL     1      47.316   2.322   5.781  0.00  0.00    +0.000 C 
ATOM     17  C   UNL     1      46.808   3.602   6.432  0.00  0.00    +0.000 C 
ENDBRANCH  10  13
ENDBRANCH   8   9
ENDBRANCH   5   8
ENDBRANCH   1   2
BRANCH   1  20
ATOM     18  O   UNL     1      49.413   4.986  16.637  0.00  0.00    +0.000 OA
ATOM     19  C   UNL     1      48.636   5.869  16.292  0.00  0.00    +0.000 C 
ATOM     20  N   UNL     1      47.525   5.614  15.527  0.00  0.00    +0.000 N 
ATOM     21  H   UNL     1      47.034   6.390  15.095  0.00  0.00    +0.000 HD
BRANCH  19  22
ATOM     22  C   UNL     1      48.803   7.264  16.725  0.00  0.00    +0.000 A 
ATOM     23  C   UNL     1      49.411   8.187  15.886  0.00  0.00    +0.000 A 
ATOM     24  S   UNL     1      49.572   9.738  16.582  0.00  0.00    +0.000 S 
ATOM     25  C   UNL     1      48.785   9.242  18.009  0.00  0.00    +0.000 A 
ATOM     26  N   UNL     1      48.574  10.106  19.036  0.00  0.00    +0.000 NA
ATOM     27  C   UNL     1      47.935   9.603  20.038  0.00  0.00    +0.000 A 
ATOM     28  N   UNL     1      47.483   8.311  20.102  0.00  0.00    +0.000 N 
ATOM     29  C   UNL     1      47.701   7.392  19.107  0.00  0.00    +0.000 A 
ATOM     30  O   UNL     1      47.328   6.230  19.223  0.00  0.00    +0.000 OA
ATOM     31  C   UNL     1      48.414   7.908  17.955  0.00  0.00    +0.000 A 
ATOM     32  H   UNL     1      46.993   7.975  20.921  0.00  0.00    +0.000 HD
ENDBRANCH  19  22
ENDBRANCH   1  20
TORSDOF 6
ENDMDL
MODEL 5
REMARK VINA RESULT:    -7.703      1.836      2.182
REMARK INTER + INTRA:         -11.525
REMARK INTER:                 -10.489
REMARK INTRA:                  -1.035
REMARK UNBOUND:                -1.120
REMARK  Name = 
REMARK  6 active torsions:
REMARK  status: ('A' for Active; 'I' for Inactive)
REMARK    1  A    between atoms: C_2  and  C_20
REMARK    2  A    between atoms: N_3  and  C_4
REMARK    3  A    between atoms: C_4  and  C_5
REMARK    4  A    between atoms: C_8  and  C_9
REMARK    5  A    between atoms: C_9  and  N_10
REMARK    6  A    between atoms: C_11  and  C_13
REMARK                            x       y       z     vdW  Elec       q    Type
REMARK                         _______ _______ _______ _____ _____    ______ ____
ROOT
ATOM      1  C   UNL     1      47.838   7.956  13.993  0.00  0.00    +0.000 C 
ENDROOT
BRANCH   1   2
ATOM      2  C   UNL     1      46.860   7.231  13.104  0.00  0.00    +0.000 A 
ATOM      3  C   UNL     1      46.097   7.932  12.160  0.00  0.00    +0.000 A 
ATOM      4  C   UNL     1      45.175   7.265  11.344  0.00  0.00    +0.000 A 
ATOM      5  C   UNL     1      44.980   5.884  11.467  0.00  0.00    +0.000 A 
ATOM      6  C   UNL     1      45.738   5.181  12.415  0.00  0.00    +0.000 A 
ATOM      7  C   UNL     1      46.659   5.849  13.232  0.00  0.00    +0.000 A 
BRANCH   5   8
ATOM      8  C   UNL     1      43.971   5.164  10.607  0.00  0.00    +0.000 C 
BRANCH   8   9
ATOM      9  N   UNL     1      44.571   4.571   9.434  0.00  0.00    +0.000 N 
ATOM     10  C   UNL     1      44.754   3.206   9.358  0.00  0.00    +0.000 C 
ATOM     11  O   UNL     1      44.462   2.446  10.276  0.00  0.00    +0.000 OA
ATOM     12  H   UNL     1      44.683   5.142   8.607  0.00  0.00    +0.000 HD
BRANCH  10  13
ATOM     13  C   UNL     1      45.303   2.727   8.021  0.00  0.00    +0.000 C 
ATOM     14  C   UNL     1      46.253   1.533   8.133  0.00  0.00    +0.000 C 
ATOM     15  C   UNL     1      47.072   1.558   6.845  0.00  0.00    +0.000 C 
ATOM     16  C   UNL     1      46.926   2.966   6.274  0.00  0.00    +0.000 C 
ATOM     17  C   UNL     1      46.181   3.768   7.333  0.00  0.00    +0.000 C 
ENDBRANCH  10  13
ENDBRANCH   8   9
ENDBRANCH   5   8
ENDBRANCH   1   2
BRANCH   1  20
ATOM     18  O   UNL     1      50.176   6.844  15.051  0.00  0.00    +0.000 OA
ATOM     19  C   UNL     1      49.164   6.848  15.742  0.00  0.00    +0.000 C 
ATOM     20  N   UNL     1      47.958   7.310  15.276  0.00  0.00    +0.000 N 
ATOM     21  H   UNL     1      47.209   7.489  15.937  0.00  0.00    +0.000 HD
BRANCH  19  22
ATOM     22  C   UNL     1      49.151   6.299  17.105  0.00  0.00    +0.000 A 
ATOM     23  C   UNL     1      49.717   5.059  17.364  0.00  0.00    +0.000 A 
ATOM     24  S   UNL     1      49.552   4.561  18.988  0.00  0.00    +0.000 S 
ATOM     25  C   UNL     1      48.766   6.010  19.413  0.00  0.00    +0.000 A 
ATOM     26  N   UNL     1      48.356   6.245  20.688  0.00  0.00    +0.000 NA
ATOM     27  C   UNL     1      47.808   7.399  20.872  0.00  0.00    +0.000 A 
ATOM     28  N   UNL     1      47.635   8.342  19.893  0.00  0.00    +0.000 N 
ATOM     29  C   UNL     1      47.999   8.139  18.586  0.00  0.00    +0.000 A 
ATOM     30  O   UNL     1      47.780   8.987  17.727  0.00  0.00    +0.000 OA
ATOM     31  C   UNL     1      48.624   6.857  18.326  0.00  0.00    +0.000 A 
ATOM     32  H   UNL     1      47.190   9.227  20.101  0.00  0.00    +0.000 HD
ENDBRANCH  19  22
ENDBRANCH   1  20
TORSDOF 6
ENDMDL
MODEL 6
REMARK VINA RESULT:    -7.496      2.639      4.378
REMARK INTER + INTRA:         -11.245
REMARK INTER:                 -10.190
REMARK INTRA:                  -1.055
REMARK UNBOUND:                -1.120
REMARK  Name = 
REMARK  6 active torsions:
REMARK  status: ('A' for Active; 'I' for Inactive)
REMARK    1  A    between atoms: C_2  and  C_20
REMARK    2  A    between atoms: N_3  and  C_4
REMARK    3  A    between atoms: C_4  and  C_5
REMARK    4  A    between atoms: C_8  and  C_9
REMARK    5  A    between atoms: C_9  and  N_10
REMARK    6  A    between atoms: C_11  and  C_13
REMARK                            x       y       z     vdW  Elec       q    Type
REMARK                         _______ _______ _______ _____ _____    ______ ____
ROOT
ATOM      1  C   UNL     1      47.448   5.357  14.708  0.00  0.00    +0.000 C 
ENDROOT
BRANCH   1   2
ATOM      2  C   UNL     1      46.461   5.163  13.584  0.00  0.00    +0.000 A 
ATOM      3  C   UNL     1      46.107   3.876  13.159  0.00  0.00    +0.000 A 
ATOM      4  C   UNL     1      45.203   3.691  12.105  0.00  0.00    +0.000 A 
ATOM      5  C   UNL     1      44.649   4.791  11.438  0.00  0.00    +0.000 A 
ATOM      6  C   UNL     1      45.007   6.080  11.858  0.00  0.00    +0.000 A 
ATOM      7  C   UNL     1      45.911   6.264  12.912  0.00  0.00    +0.000 A 
BRANCH   5   8
ATOM      8  C   UNL     1      43.694   4.598  10.286  0.00  0.00    +0.000 C 
BRANCH   8   9
ATOM      9  N   UNL     1      44.214   3.692   9.287  0.00  0.00    +0.000 N 
ATOM     10  C   UNL     1      45.270   4.070   8.484  0.00  0.00    +0.000 C 
ATOM     11  O   UNL     1      45.784   5.182   8.544  0.00  0.00    +0.000 OA
ATOM     12  H   UNL     1      43.918   2.725   9.311  0.00  0.00    +0.000 HD
BRANCH  10  13
ATOM     13  C   UNL     1      45.765   2.971   7.553  0.00  0.00    +0.000 C 
ATOM     14  C   UNL     1      46.097   1.658   8.265  0.00  0.00    +0.000 C 
ATOM     15  C   UNL     1      47.037   0.920   7.316  0.00  0.00    +0.000 C 
ATOM     16  C   UNL     1      47.585   1.972   6.355  0.00  0.00    +0.000 C 
ATOM     17  C   UNL     1      47.092   3.313   6.884  0.00  0.00    +0.000 C 
ENDBRANCH  10  13
ENDBRANCH   8   9
ENDBRANCH   5   8
ENDBRANCH   1   2
BRANCH   1  20
ATOM     18  O   UNL     1      48.541   7.522  16.100  0.00  0.00    +0.000 OA
ATOM     19  C   UNL     1      49.084   7.156  15.065  0.00  0.00    +0.000 C 
ATOM     20  N   UNL     1      48.575   6.148  14.283  0.00  0.00    +0.000 N 
ATOM     21  H   UNL     1      49.159   5.741  13.560  0.00  0.00    +0.000 HD
BRANCH  19  22
ATOM     22  C   UNL     1      50.293   7.812  14.547  0.00  0.00    +0.000 A 
ATOM     23  C   UNL     1      51.490   7.722  15.244  0.00  0.00    +0.000 A 
ATOM     24  S   UNL     1      52.766   8.597  14.523  0.00  0.00    +0.000 S 
ATOM     25  C   UNL     1      51.777   9.080  13.224  0.00  0.00    +0.000 A 
ATOM     26  N   UNL     1      52.261   9.854  12.217  0.00  0.00    +0.000 NA
ATOM     27  C   UNL     1      51.409  10.113  11.282  0.00  0.00    +0.000 A 
ATOM     28  N   UNL     1      50.116   9.663  11.262  0.00  0.00    +0.000 N 
ATOM     29  C   UNL     1      49.571   8.909  12.270  0.00  0.00    +0.000 A 
ATOM     30  O   UNL     1      48.393   8.569  12.244  0.00  0.00    +0.000 OA
ATOM     31  C   UNL     1      50.488   8.587  13.346  0.00  0.00    +0.000 A 
ATOM     32  H   UNL     1      49.495   9.907  10.502  0.00  0.00    +0.000 HD
ENDBRANCH  19  22
ENDBRANCH   1  20
TORSDOF 6
ENDMDL
MODEL 7
REMARK VINA RESULT:    -7.259      4.541      9.366
REMARK INTER + INTRA:         -10.925
REMARK INTER:                  -9.987
REMARK INTRA:                  -0.938
REMARK UNBOUND:                -1.120
REMARK  Name = 
REMARK  6 active torsions:
REMARK  status: ('A' for Active; 'I' for Inactive)
REMARK    1  A    between atoms: C_2  and  C_20
REMARK    2  A    between atoms: N_3  and  C_4
REMARK    3  A    between atoms: C_4  and  C_5
REMARK    4  A    between atoms: C_8  and  C_9
REMARK    5  A    between atoms: C_9  and  N_10
REMARK    6  A    between atoms: C_11  and  C_13
REMARK                            x       y       z     vdW  Elec       q    Type
REMARK                         _______ _______ _______ _____ _____    ______ ____
ROOT
ATOM      1  C   UNL     1      47.168   3.420  16.752  0.00  0.00    +0.000 C 
ENDROOT
BRANCH   1   2
ATOM      2  C   UNL     1      48.633   3.539  17.086  0.00  0.00    +0.000 A 
ATOM      3  C   UNL     1      49.466   2.412  17.054  0.00  0.00    +0.000 A 
ATOM      4  C   UNL     1      50.825   2.513  17.379  0.00  0.00    +0.000 A 
ATOM      5  C   UNL     1      51.376   3.741  17.766  0.00  0.00    +0.000 A 
ATOM      6  C   UNL     1      50.543   4.869  17.805  0.00  0.00    +0.000 A 
ATOM      7  C   UNL     1      49.185   4.766  17.479  0.00  0.00    +0.000 A 
BRANCH   5   8
ATOM      8  C   UNL     1      52.833   3.852  18.142  0.00  0.00    +0.000 C 
BRANCH   8   9
ATOM      9  N   UNL     1      53.596   2.694  17.733  0.00  0.00    +0.000 N 
ATOM     10  C   UNL     1      54.191   1.882  18.677  0.00  0.00    +0.000 C 
ATOM     11  O   UNL     1      54.142   2.118  19.880  0.00  0.00    +0.000 OA
ATOM     12  H   UNL     1      53.533   2.387  16.772  0.00  0.00    +0.000 HD
BRANCH  10  13
ATOM     13  C   UNL     1      54.872   0.651  18.095  0.00  0.00    +0.000 C 
ATOM     14  C   UNL     1      54.702   0.505  16.582  0.00  0.00    +0.000 C 
ATOM     15  C   UNL     1      54.958  -0.973  16.296  0.00  0.00    +0.000 C 
ATOM     16  C   UNL     1      54.796  -1.699  17.629  0.00  0.00    +0.000 C 
ATOM     17  C   UNL     1      54.276  -0.656  18.610  0.00  0.00    +0.000 C 
ENDBRANCH  10  13
ENDBRANCH   8   9
ENDBRANCH   5   8
ENDBRANCH   1   2
BRANCH   1  20
ATOM     18  O   UNL     1      47.156   3.030  13.982  0.00  0.00    +0.000 OA
ATOM     19  C   UNL     1      46.741   4.095  14.427  0.00  0.00    +0.000 C 
ATOM     20  N   UNL     1      46.776   4.396  15.766  0.00  0.00    +0.000 N 
ATOM     21  H   UNL     1      46.239   5.185  16.108  0.00  0.00    +0.000 HD
BRANCH  19  22
ATOM     22  C   UNL     1      46.230   5.157  13.550  0.00  0.00    +0.000 A 
ATOM     23  C   UNL     1      47.015   6.266  13.265  0.00  0.00    +0.000 A 
ATOM     24  S   UNL     1      46.233   7.420  12.281  0.00  0.00    +0.000 S 
ATOM     25  C   UNL     1      44.836   6.454  12.158  0.00  0.00    +0.000 A 
ATOM     26  N   UNL     1      43.761   6.855  11.429  0.00  0.00    +0.000 NA
ATOM     27  C   UNL     1      42.790   6.006  11.395  0.00  0.00    +0.000 A 
ATOM     28  N   UNL     1      42.798   4.788  12.022  0.00  0.00    +0.000 N 
ATOM     29  C   UNL     1      43.844   4.353  12.796  0.00  0.00    +0.000 A 
ATOM     30  O   UNL     1      43.794   3.279  13.386  0.00  0.00    +0.000 OA
ATOM     31  C   UNL     1      44.965   5.270  12.866  0.00  0.00    +0.000 A 
ATOM     32  H   UNL     1      42.000   4.169  11.961  0.00  0.00    +0.000 HD
ENDBRANCH  19  22
ENDBRANCH   1  20
TORSDOF 6
ENDMDL
MODEL 8
REMARK VINA RESULT:    -6.730      3.484      4.723
REMARK INTER + INTRA:         -10.211
REMARK INTER:                  -9.220
REMARK INTRA:                  -0.991
REMARK UNBOUND:                -1.120
REMARK  Name = 
REMARK  6 active torsions:
REMARK  status: ('A' for Active; 'I' for Inactive)
REMARK    1  A    between atoms: C_2  and  C_20
REMARK    2  A    between atoms: N_3  and  C_4
REMARK    3  A    between atoms: C_4  and  C_5
REMARK    4  A    between atoms: C_8  and  C_9
REMARK    5  A    between atoms: C_9  and  N_10
REMARK    6  A    between atoms: C_11  and  C_13
REMARK                            x       y       z     vdW  Elec       q    Type
REMARK                         _______ _______ _______ _____ _____    ______ ____
ROOT
ATOM      1  C   UNL     1      48.421   6.838  14.430  0.00  0.00    +0.000 C 
ENDROOT
BRANCH   1   2
ATOM      2  C   UNL     1      47.335   6.443  13.460  0.00  0.00    +0.000 A 
ATOM      3  C   UNL     1      46.797   5.149  13.480  0.00  0.00    +0.000 A 
ATOM      4  C   UNL     1      45.801   4.772  12.571  0.00  0.00    +0.000 A 
ATOM      5  C   UNL     1      45.335   5.675  11.606  0.00  0.00    +0.000 A 
ATOM      6  C   UNL     1      45.877   6.968  11.582  0.00  0.00    +0.000 A 
ATOM      7  C   UNL     1      46.873   7.344  12.491  0.00  0.00    +0.000 A 
BRANCH   5   8
ATOM      8  C   UNL     1      44.280   5.267  10.609  0.00  0.00    +0.000 C 
BRANCH   8   9
ATOM      9  N   UNL     1      44.842   4.612   9.450  0.00  0.00    +0.000 N 
ATOM     10  C   UNL     1      44.777   3.240   9.323  0.00  0.00    +0.000 C 
ATOM     11  O   UNL     1      44.288   2.517  10.186  0.00  0.00    +0.000 OA
ATOM     12  H   UNL     1      45.114   5.179   8.659  0.00  0.00    +0.000 HD
BRANCH  10  13
ATOM     13  C   UNL     1      45.322   2.712   8.004  0.00  0.00    +0.000 C 
ATOM     14  C   UNL     1      46.254   1.508   8.154  0.00  0.00    +0.000 C 
ATOM     15  C   UNL     1      47.076   1.481   6.868  0.00  0.00    +0.000 C 
ATOM     16  C   UNL     1      46.952   2.873   6.254  0.00  0.00    +0.000 C 
ATOM     17  C   UNL     1      46.216   3.718   7.285  0.00  0.00    +0.000 C 
ENDBRANCH  10  13
ENDBRANCH   8   9
ENDBRANCH   5   8
ENDBRANCH   1   2
BRANCH   1  20
ATOM     18  O   UNL     1      49.348   9.428  13.925  0.00  0.00    +0.000 OA
ATOM     19  C   UNL     1      50.049   8.479  13.593  0.00  0.00    +0.000 C 
ATOM     20  N   UNL     1      49.640   7.176  13.741  0.00  0.00    +0.000 N 
ATOM     21  H   UNL     1      50.324   6.432  13.651  0.00  0.00    +0.000 HD
BRANCH  19  22
ATOM     22  C   UNL     1      51.359   8.666  12.954  0.00  0.00    +0.000 A 
ATOM     23  C   UNL     1      51.444   9.225  11.687  0.00  0.00    +0.000 A 
ATOM     24  S   UNL     1      53.039   9.305  11.084  0.00  0.00    +0.000 S 
ATOM     25  C   UNL     1      53.676   8.646  12.518  0.00  0.00    +0.000 A 
ATOM     26  N   UNL     1      55.012   8.454  12.676  0.00  0.00    +0.000 NA
ATOM     27  C   UNL     1      55.355   7.981  13.827  0.00  0.00    +0.000 A 
ATOM     28  N   UNL     1      54.479   7.685  14.838  0.00  0.00    +0.000 N 
ATOM     29  C   UNL     1      53.120   7.828  14.716  0.00  0.00    +0.000 A 
ATOM     30  O   UNL     1      52.363   7.503  15.624  0.00  0.00    +0.000 OA
ATOM     31  C   UNL     1      52.682   8.360  13.440  0.00  0.00    +0.000 A 
ATOM     32  H   UNL     1      54.811   7.310  15.716  0.00  0.00    +0.000 HD
ENDBRANCH  19  22
ENDBRANCH   1  20
TORSDOF 6
ENDMDL
MODEL 9
REMARK VINA RESULT:    -6.649      4.872      7.652
REMARK INTER + INTRA:         -10.102
REMARK INTER:                  -9.171
REMARK INTRA:                  -0.931
REMARK UNBOUND:                -1.120
REMARK  Name = 
REMARK  6 active torsions:
REMARK  status: ('A' for Active; 'I' for Inactive)
REMARK    1  A    between atoms: C_2  and  C_20
REMARK    2  A    between atoms: N_3  and  C_4
REMARK    3  A    between atoms: C_4  and  C_5
REMARK    4  A    between atoms: C_8  and  C_9
REMARK    5  A    between atoms: C_9  and  N_10
REMARK    6  A    between atoms: C_11  and  C_13
REMARK                            x       y       z     vdW  Elec       q    Type
REMARK                         _______ _______ _______ _____ _____    ______ ____
ROOT
ATOM      1  C   UNL     1      46.183   8.151  12.956  0.00  0.00    +0.000 C 
ENDROOT
BRANCH   1   2
ATOM      2  C   UNL     1      47.608   8.305  12.486  0.00  0.00    +0.000 A 
ATOM      3  C   UNL     1      48.092   9.553  12.071  0.00  0.00    +0.000 A 
ATOM      4  C   UNL     1      49.410   9.698  11.618  0.00  0.00    +0.000 A 
ATOM      5  C   UNL     1      50.267   8.592  11.550  0.00  0.00    +0.000 A 
ATOM      6  C   UNL     1      49.782   7.342  11.959  0.00  0.00    +0.000 A 
ATOM      7  C   UNL     1      48.464   7.198  12.411  0.00  0.00    +0.000 A 
BRANCH   5   8
ATOM      8  C   UNL     1      51.679   8.738  11.040  0.00  0.00    +0.000 C 
BRANCH   8   9
ATOM      9  N   UNL     1      52.331   7.461  10.854  0.00  0.00    +0.000 N 
ATOM     10  C   UNL     1      52.881   7.130   9.633  0.00  0.00    +0.000 C 
ATOM     11  O   UNL     1      52.811   7.865   8.653  0.00  0.00    +0.000 OA
ATOM     12  H   UNL     1      52.538   6.901  11.669  0.00  0.00    +0.000 HD
BRANCH  10  13
ATOM     13  C   UNL     1      53.618   5.798   9.626  0.00  0.00    +0.000 C 
ATOM     14  C   UNL     1      54.723   5.694  10.680  0.00  0.00    +0.000 C 
ATOM     15  C   UNL     1      55.645   4.586  10.178  0.00  0.00    +0.000 C 
ATOM     16  C   UNL     1      55.343   4.420   8.692  0.00  0.00    +0.000 C 
ATOM     17  C   UNL     1      54.390   5.553   8.333  0.00  0.00    +0.000 C 
ENDBRANCH  10  13
ENDBRANCH   8   9
ENDBRANCH   5   8
ENDBRANCH   1   2
BRANCH   1  20
ATOM     18  O   UNL     1      44.255   7.534  11.026  0.00  0.00    +0.000 OA
ATOM     19  C   UNL     1      44.773   6.617  11.652  0.00  0.00    +0.000 C 
ATOM     20  N   UNL     1      45.675   6.835  12.664  0.00  0.00    +0.000 N 
ATOM     21  H   UNL     1      46.229   6.057  13.008  0.00  0.00    +0.000 HD
BRANCH  19  22
ATOM     22  C   UNL     1      44.418   5.212  11.409  0.00  0.00    +0.000 A 
ATOM     23  C   UNL     1      43.611   4.529  12.308  0.00  0.00    +0.000 A 
ATOM     24  S   UNL     1      43.358   2.893  11.891  0.00  0.00    +0.000 S 
ATOM     25  C   UNL     1      44.275   3.055  10.465  0.00  0.00    +0.000 A 
ATOM     26  N   UNL     1      44.452   2.009   9.616  0.00  0.00    +0.000 NA
ATOM     27  C   UNL     1      45.137   2.287   8.558  0.00  0.00    +0.000 A 
ATOM     28  N   UNL     1      45.660   3.520   8.272  0.00  0.00    +0.000 N 
ATOM     29  C   UNL     1      45.539   4.597   9.113  0.00  0.00    +0.000 A 
ATOM     30  O   UNL     1      46.066   5.672   8.848  0.00  0.00    +0.000 OA
ATOM     31  C   UNL     1      44.774   4.339  10.317  0.00  0.00    +0.000 A 
ATOM     32  H   UNL     1      46.196   3.671   7.427  0.00  0.00    +0.000 HD
ENDBRANCH  19  22
ENDBRANCH   1  20
TORSDOF 6
ENDMDL
