MODEL 1
REMARK VINA RESULT:    -8.181      0.000      0.000
REMARK INTER + INTRA:         -12.206
REMARK INTER:                 -11.050
REMARK INTRA:                  -1.156
REMARK UNBOUND:                -1.156
REMARK  Name = 
REMARK  6 active torsions:
REMARK  status: ('A' for Active; 'I' for Inactive)
REMARK    1  A    between atoms: C_2  and  C_25
REMARK    2  A    between atoms: N_3  and  C_4
REMARK    3  A    between atoms: C_4  and  C_5
REMARK    4  A    between atoms: C_8  and  C_9
REMARK    5  A    between atoms: C_9  and  N_10
REMARK    6  A    between atoms: C_11  and  C_13
REMARK                            x       y       z     vdW  Elec       q    Type
REMARK                         _______ _______ _______ _____ _____    ______ ____
ROOT
ATOM      1  C   UNL     1      44.818   5.783  10.911  0.00  0.00    +0.000 A 
ATOM      2  C   UNL     1      46.193   5.949  10.697  0.00  0.00    +0.000 A 
ATOM      3  C   UNL     1      46.956   6.757  11.548  0.00  0.00    +0.000 A 
ATOM      4  C   UNL     1      46.362   7.401  12.642  0.00  0.00    +0.000 A 
ATOM      5  C   UNL     1      44.986   7.243  12.849  0.00  0.00    +0.000 A 
ATOM      6  C   UNL     1      44.224   6.435  11.999  0.00  0.00    +0.000 A 
ENDROOT
BRANCH   1   7
ATOM      7  C   UNL     1      43.995   4.918   9.994  0.00  0.00    +0.000 C 
BRANCH   7  10
ATOM      8  O   UNL     1      44.497   2.125  10.073  0.00  0.00    +0.000 OA
ATOM      9  C   UNL     1      44.988   2.826   9.201  0.00  0.00    +0.000 C 
ATOM     10  N   UNL     1      44.807   4.180   9.062  0.00  0.00    +0.000 N 
ATOM     11  H   UNL     1      45.262   4.644   8.281  0.00  0.00    +0.000 HD
BRANCH   9  12
ATOM     12  C   UNL     1      45.887   2.211   8.164  0.00  0.00    +0.000 C 
ATOM     13  C   UNL     1      46.407   2.962   7.012  0.00  0.00    +0.000 C 
ATOM     14  C   UNL     1      47.202   1.995   6.324  0.00  0.00    +0.000 C 
ATOM     15  C   UNL     1      47.101   0.868   7.045  0.00  0.00    +0.000 C 
ATOM     16  N   UNL     1      46.303   0.964   8.177  0.00  0.00    +0.000 NA
ENDBRANCH   9  12
ENDBRANCH   7  10
ENDBRANCH   1   7
BRANCH   4  17
ATOM     17  C   UNL     1      47.176   8.278  13.559  0.00  0.00    +0.000 C 
BRANCH  17  18
ATOM     18  N   UNL     1      47.602   7.553  14.729  0.00  0.00    +0.000 N 
ATOM     19  C   UNL     1      48.823   6.931  14.778  0.00  0.00    +0.000 C 
ATOM     20  O   UNL     1      49.628   7.007  13.855  0.00  0.00    +0.000 OA
ATOM     21  H   UNL     1      46.882   7.289  15.394  0.00  0.00    +0.000 HD
BRANCH  19  22
ATOM     22  C   UNL     1      49.149   6.216  16.019  0.00  0.00    +0.000 A 
ATOM     23  C   UNL     1      50.224   6.636  16.794  0.00  0.00    +0.000 A 
ATOM     24  S   UNL     1      50.424   5.738  18.231  0.00  0.00    +0.000 S 
ATOM     25  C   UNL     1      49.117   4.720  17.840  0.00  0.00    +0.000 A 
ATOM     26  N   UNL     1      48.759   3.697  18.662  0.00  0.00    +0.000 NA
ATOM     27  C   UNL     1      47.774   2.985  18.228  0.00  0.00    +0.000 A 
ATOM     28  N   UNL     1      47.111   3.206  17.048  0.00  0.00    +0.000 N 
ATOM     29  C   UNL     1      47.422   4.240  16.200  0.00  0.00    +0.000 A 
ATOM     30  O   UNL     1      46.786   4.430  15.168  0.00  0.00    +0.000 OA
ATOM     31  C   UNL     1      48.527   5.070  16.637  0.00  0.00    +0.000 A 
ATOM     32  H   UNL     1      46.344   2.613  16.767  0.00  0.00    +0.000 HD
ENDBRANCH  19  22
ENDBRANCH  17  18
ENDBRANCH   4  17
TORSDOF 6
ENDMDL
MODEL 2
REMARK VINA RESULT:    -7.414      2.219      2.472
REMARK INTER + INTRA:         -11.171
REMARK INTER:                 -10.290
REMARK INTRA:                  -0.880
REMARK UNBOUND:                -1.156
REMARK  Name = 
REMARK  6 active torsions:
REMARK  status: ('A' for Active; 'I' for Inactive)
REMARK    1  A    between atoms: C_2  and  C_25
REMARK    2  A    between atoms: N_3  and  C_4
REMARK    3  A    between atoms: C_4  and  C_5
REMARK    4  A    between atoms: C_8  and  C_9
REMARK    5  A    between atoms: C_9  and  N_10
REMARK    6  A    between atoms: C_11  and  C_13
REMARK                            x       y       z     vdW  Elec       q    Type
REMARK                         _______ _______ _______ _____ _____    ______ ____
ROOT
ATOM      1  C   UNL     1      45.425   4.180  12.404  0.00  0.00    +0.000 A 
ATOM      2  C   UNL     1      46.304   3.651  13.359  0.00  0.00    +0.000 A 
ATOM      3  C   UNL     1      47.116   4.493  14.127  0.00  0.00    +0.000 A 
ATOM      4  C   UNL     1      47.053   5.884  13.968  0.00  0.00    +0.000 A 
ATOM      5  C   UNL     1      46.182   6.412  13.005  0.00  0.00    +0.000 A 
ATOM      6  C   UNL     1      45.370   5.570  12.239  0.00  0.00    +0.000 A 
ENDROOT
BRANCH   1   7
ATOM      7  C   UNL     1      44.554   3.274  11.575  0.00  0.00    +0.000 C 
BRANCH   7  10
ATOM      8  O   UNL     1      44.576   4.301   8.928  0.00  0.00    +0.000 OA
ATOM      9  C   UNL     1      45.195   3.286   9.212  0.00  0.00    +0.000 C 
ATOM     10  N   UNL     1      45.260   2.708  10.456  0.00  0.00    +0.000 N 
ATOM     11  H   UNL     1      45.825   1.869  10.562  0.00  0.00    +0.000 HD
BRANCH   9  12
ATOM     12  C   UNL     1      45.964   2.556   8.147  0.00  0.00    +0.000 C 
ATOM     13  C   UNL     1      46.374   3.188   6.883  0.00  0.00    +0.000 C 
ATOM     14  C   UNL     1      47.071   2.141   6.206  0.00  0.00    +0.000 C 
ATOM     15  C   UNL     1      47.024   1.085   7.033  0.00  0.00    +0.000 C 
ATOM     16  N   UNL     1      46.354   1.304   8.228  0.00  0.00    +0.000 NA
ENDBRANCH   9  12
ENDBRANCH   7  10
ENDBRANCH   1   7
BRANCH   4  17
ATOM     17  C   UNL     1      47.930   6.797  14.785  0.00  0.00    +0.000 C 
BRANCH  17  18
ATOM     18  N   UNL     1      49.048   6.081  15.345  0.00  0.00    +0.000 N 
ATOM     19  C   UNL     1      49.153   5.864  16.695  0.00  0.00    +0.000 C 
ATOM     20  O   UNL     1      48.279   6.219  17.480  0.00  0.00    +0.000 OA
ATOM     21  H   UNL     1      49.871   5.984  14.760  0.00  0.00    +0.000 HD
BRANCH  19  22
ATOM     22  C   UNL     1      50.338   5.128  17.154  0.00  0.00    +0.000 A 
ATOM     23  C   UNL     1      51.456   5.827  17.594  0.00  0.00    +0.000 A 
ATOM     24  S   UNL     1      52.717   4.822  18.151  0.00  0.00    +0.000 S 
ATOM     25  C   UNL     1      51.836   3.416  17.771  0.00  0.00    +0.000 A 
ATOM     26  N   UNL     1      52.365   2.181  17.986  0.00  0.00    +0.000 NA
ATOM     27  C   UNL     1      51.604   1.205  17.622  0.00  0.00    +0.000 A 
ATOM     28  N   UNL     1      50.359   1.351  17.065  0.00  0.00    +0.000 N 
ATOM     29  C   UNL     1      49.776   2.576  16.853  0.00  0.00    +0.000 A 
ATOM     30  O   UNL     1      48.646   2.670  16.385  0.00  0.00    +0.000 OA
ATOM     31  C   UNL     1      50.591   3.709  17.240  0.00  0.00    +0.000 A 
ATOM     32  H   UNL     1      49.811   0.545  16.806  0.00  0.00    +0.000 HD
ENDBRANCH  19  22
ENDBRANCH  17  18
ENDBRANCH   4  17
TORSDOF 6
ENDMDL
MODEL 3
REMARK VINA RESULT:    -7.218      3.872      4.919
REMARK INTER + INTRA:         -10.906
REMARK INTER:                  -9.978
REMARK INTRA:                  -0.928
REMARK UNBOUND:                -1.156
REMARK  Name = 
REMARK  6 active torsions:
REMARK  status: ('A' for Active; 'I' for Inactive)
REMARK    1  A    between atoms: C_2  and  C_25
REMARK    2  A    between atoms: N_3  and  C_4
REMARK    3  A    between atoms: C_4  and  C_5
REMARK    4  A    between atoms: C_8  and  C_9
REMARK    5  A    between atoms: C_9  and  N_10
REMARK    6  A    between atoms: C_11  and  C_13
REMARK                            x       y       z     vdW  Elec       q    Type
REMARK                         _______ _______ _______ _____ _____    ______ ____
ROOT
ATOM      1  C   UNL     1      44.480   4.744  11.653  0.00  0.00    +0.000 A 
ATOM      2  C   UNL     1      43.901   5.899  11.108  0.00  0.00    +0.000 A 
ATOM      3  C   UNL     1      44.273   7.169  11.564  0.00  0.00    +0.000 A 
ATOM      4  C   UNL     1      45.247   7.310  12.563  0.00  0.00    +0.000 A 
ATOM      5  C   UNL     1      45.817   6.156  13.114  0.00  0.00    +0.000 A 
ATOM      6  C   UNL     1      45.445   4.887  12.658  0.00  0.00    +0.000 A 
ENDROOT
BRANCH   1   7
ATOM      7  C   UNL     1      44.077   3.378  11.166  0.00  0.00    +0.000 C 
BRANCH   7  10
ATOM      8  O   UNL     1      44.226   3.992   8.398  0.00  0.00    +0.000 OA
ATOM      9  C   UNL     1      44.999   3.193   8.906  0.00  0.00    +0.000 C 
ATOM     10  N   UNL     1      45.022   2.829  10.230  0.00  0.00    +0.000 N 
ATOM     11  H   UNL     1      45.729   2.162  10.528  0.00  0.00    +0.000 HD
BRANCH   9  12
ATOM     12  C   UNL     1      46.033   2.508   8.056  0.00  0.00    +0.000 C 
ATOM     13  C   UNL     1      46.743   3.187   6.962  0.00  0.00    +0.000 C 
ATOM     14  C   UNL     1      47.612   2.172   6.457  0.00  0.00    +0.000 C 
ATOM     15  C   UNL     1      47.374   1.088   7.212  0.00  0.00    +0.000 C 
ATOM     16  N   UNL     1      46.413   1.258   8.198  0.00  0.00    +0.000 NA
ENDBRANCH   9  12
ENDBRANCH   7  10
ENDBRANCH   1   7
BRANCH   4  17
ATOM     17  C   UNL     1      45.648   8.673  13.065  0.00  0.00    +0.000 C 
BRANCH  17  18
ATOM     18  N   UNL     1      47.027   8.955  12.758  0.00  0.00    +0.000 N 
ATOM     19  C   UNL     1      47.378   9.998  11.939  0.00  0.00    +0.000 C 
ATOM     20  O   UNL     1      46.543  10.770  11.476  0.00  0.00    +0.000 OA
ATOM     21  H   UNL     1      47.698   8.215  12.935  0.00  0.00    +0.000 HD
BRANCH  19  22
ATOM     22  C   UNL     1      48.813  10.188  11.690  0.00  0.00    +0.000 A 
ATOM     23  C   UNL     1      49.331  11.474  11.589  0.00  0.00    +0.000 A 
ATOM     24  S   UNL     1      51.022  11.515  11.363  0.00  0.00    +0.000 S 
ATOM     25  C   UNL     1      51.113   9.816  11.336  0.00  0.00    +0.000 A 
ATOM     26  N   UNL     1      52.303   9.183  11.151  0.00  0.00    +0.000 NA
ATOM     27  C   UNL     1      52.224   7.896  11.118  0.00  0.00    +0.000 A 
ATOM     28  N   UNL     1      51.060   7.182  11.257  0.00  0.00    +0.000 N 
ATOM     29  C   UNL     1      49.841   7.777  11.471  0.00  0.00    +0.000 A 
ATOM     30  O   UNL     1      48.825   7.107  11.626  0.00  0.00    +0.000 OA
ATOM     31  C   UNL     1      49.873   9.224  11.511  0.00  0.00    +0.000 A 
ATOM     32  H   UNL     1      51.066   6.174  11.226  0.00  0.00    +0.000 HD
ENDBRANCH  19  22
ENDBRANCH  17  18
ENDBRANCH   4  17
TORSDOF 6
ENDMDL
MODEL 4
REMARK VINA RESULT:    -7.135      4.685      9.278
REMARK INTER + INTRA:         -10.793
REMARK INTER:                 -10.022
REMARK INTRA:                  -0.772
REMARK UNBOUND:                -1.156
REMARK  Name = 
REMARK  6 active torsions:
REMARK  status: ('A' for Active; 'I' for Inactive)
REMARK    1  A    between atoms: C_2  and  C_25
REMARK    2  A    between atoms: N_3  and  C_4
REMARK    3  A    between atoms: C_4  and  C_5
REMARK    4  A    between atoms: C_8  and  C_9
REMARK    5  A    between atoms: C_9  and  N_10
REMARK    6  A    between atoms: C_11  and  C_13
REMARK                            x       y       z     vdW  Elec       q    Type
REMARK                         _______ _______ _______ _____ _____    ______ ____
ROOT
ATOM      1  C   UNL     1      51.433   2.962  17.758  0.00  0.00    +0.000 A 
ATOM      2  C   UNL     1      50.658   1.946  17.182  0.00  0.00    +0.000 A 
ATOM      3  C   UNL     1      49.295   2.141  16.934  0.00  0.00    +0.000 A 
ATOM      4  C   UNL     1      48.683   3.365  17.238  0.00  0.00    +0.000 A 
ATOM      5  C   UNL     1      49.456   4.376  17.823  0.00  0.00    +0.000 A 
ATOM      6  C   UNL     1      50.818   4.180  18.070  0.00  0.00    +0.000 A 
ENDROOT
BRANCH   1   7
ATOM      7  C   UNL     1      52.899   2.751  18.030  0.00  0.00    +0.000 C 
BRANCH   7  10
ATOM      8  O   UNL     1      54.688   1.019  16.666  0.00  0.00    +0.000 OA
ATOM      9  C   UNL     1      54.079   0.639  17.655  0.00  0.00    +0.000 C 
ATOM     10  N   UNL     1      53.199   1.391  18.393  0.00  0.00    +0.000 N 
ATOM     11  H   UNL     1      52.768   0.958  19.205  0.00  0.00    +0.000 HD
BRANCH   9  12
ATOM     12  C   UNL     1      54.260  -0.769  18.149  0.00  0.00    +0.000 C 
ATOM     13  C   UNL     1      55.038  -1.779  17.415  0.00  0.00    +0.000 C 
ATOM     14  C   UNL     1      54.943  -2.934  18.251  0.00  0.00    +0.000 C 
ATOM     15  C   UNL     1      54.198  -2.557  19.301  0.00  0.00    +0.000 C 
ATOM     16  N   UNL     1      53.763  -1.240  19.271  0.00  0.00    +0.000 NA
ENDBRANCH   9  12
ENDBRANCH   7  10
ENDBRANCH   1   7
BRANCH   4  17
ATOM     17  C   UNL     1      47.213   3.580  16.980  0.00  0.00    +0.000 C 
BRANCH  17  18
ATOM     18  N   UNL     1      47.005   4.595  15.979  0.00  0.00    +0.000 N 
ATOM     19  C   UNL     1      47.097   4.307  14.641  0.00  0.00    +0.000 C 
ATOM     20  O   UNL     1      47.306   3.168  14.234  0.00  0.00    +0.000 OA
ATOM     21  H   UNL     1      47.060   5.561  16.284  0.00  0.00    +0.000 HD
BRANCH  19  22
ATOM     22  C   UNL     1      46.872   5.421  13.710  0.00  0.00    +0.000 A 
ATOM     23  C   UNL     1      47.906   6.308  13.433  0.00  0.00    +0.000 A 
ATOM     24  S   UNL     1      47.496   7.501  12.285  0.00  0.00    +0.000 S 
ATOM     25  C   UNL     1      45.905   6.910  12.159  0.00  0.00    +0.000 A 
ATOM     26  N   UNL     1      45.000   7.509  11.339  0.00  0.00    +0.000 NA
ATOM     27  C   UNL     1      43.824   6.979  11.366  0.00  0.00    +0.000 A 
ATOM     28  N   UNL     1      43.471   5.900  12.136  0.00  0.00    +0.000 N 
ATOM     29  C   UNL     1      44.357   5.249  12.959  0.00  0.00    +0.000 A 
ATOM     30  O   UNL     1      44.017   4.265  13.609  0.00  0.00    +0.000 OA
ATOM     31  C   UNL     1      45.694   5.807  12.971  0.00  0.00    +0.000 A 
ATOM     32  H   UNL     1      42.533   5.530  12.108  0.00  0.00    +0.000 HD
ENDBRANCH  19  22
ENDBRANCH  17  18
ENDBRANCH   4  17
TORSDOF 6
ENDMDL
MODEL 5
REMARK VINA RESULT:    -6.983      2.302      3.850
REMARK INTER + INTRA:         -10.588
REMARK INTER:                  -9.605
REMARK INTRA:                  -0.983
REMARK UNBOUND:                -1.156
REMARK  Name = 
REMARK  6 active torsions:
REMARK  status: ('A' for Active; 'I' for Inactive)
REMARK    1  A    between atoms: C_2  and  C_25
REMARK    2  A    between atoms: N_3  and  C_4
REMARK    3  A    between atoms: C_4  and  C_5
REMARK    4  A    between atoms: C_8  and  C_9
REMARK    5  A    between atoms: C_9  and  N_10
REMARK    6  A    between atoms: C_11  and  C_13
REMARK                            x       y       z     vdW  Elec       q    Type
REMARK                         _______ _______ _______ _____ _____    ______ ____
ROOT
ATOM      1  C   UNL     1      44.989   4.518  11.353  0.00  0.00    +0.000 A 
ATOM      2  C   UNL     1      45.291   3.348  12.063  0.00  0.00    +0.000 A 
ATOM      3  C   UNL     1      45.998   3.407  13.270  0.00  0.00    +0.000 A 
ATOM      4  C   UNL     1      46.399   4.641  13.802  0.00  0.00    +0.000 A 
ATOM      5  C   UNL     1      46.105   5.809  13.086  0.00  0.00    +0.000 A 
ATOM      6  C   UNL     1      45.399   5.749  11.880  0.00  0.00    +0.000 A 
ENDROOT
BRANCH   1   7
ATOM      7  C   UNL     1      44.233   4.454  10.052  0.00  0.00    +0.000 C 
BRANCH   7  10
ATOM      8  O   UNL     1      44.815   1.885   8.994  0.00  0.00    +0.000 OA
ATOM      9  C   UNL     1      45.310   2.891   8.507  0.00  0.00    +0.000 C 
ATOM     10  N   UNL     1      45.093   4.178   8.932  0.00  0.00    +0.000 N 
ATOM     11  H   UNL     1      45.557   4.930   8.429  0.00  0.00    +0.000 HD
BRANCH   9  12
ATOM     12  C   UNL     1      46.256   2.771   7.344  0.00  0.00    +0.000 C 
ATOM     13  C   UNL     1      47.196   1.651   7.193  0.00  0.00    +0.000 C 
ATOM     14  C   UNL     1      47.865   1.950   5.966  0.00  0.00    +0.000 C 
ATOM     15  C   UNL     1      47.325   3.100   5.535  0.00  0.00    +0.000 C 
ATOM     16  N   UNL     1      46.339   3.631   6.354  0.00  0.00    +0.000 NA
ENDBRANCH   9  12
ENDBRANCH   7  10
ENDBRANCH   1   7
BRANCH   4  17
ATOM     17  C   UNL     1      47.166   4.713  15.097  0.00  0.00    +0.000 C 
BRANCH  17  18
ATOM     18  N   UNL     1      47.839   5.979  15.233  0.00  0.00    +0.000 N 
ATOM     19  C   UNL     1      48.955   6.114  16.018  0.00  0.00    +0.000 C 
ATOM     20  O   UNL     1      49.463   5.157  16.596  0.00  0.00    +0.000 OA
ATOM     21  H   UNL     1      47.321   6.807  14.960  0.00  0.00    +0.000 HD
BRANCH  19  22
ATOM     22  C   UNL     1      49.555   7.453  16.088  0.00  0.00    +0.000 A 
ATOM     23  C   UNL     1      49.746   8.060  17.324  0.00  0.00    +0.000 A 
ATOM     24  S   UNL     1      50.510   9.581  17.229  0.00  0.00    +0.000 S 
ATOM     25  C   UNL     1      50.564   9.509  15.530  0.00  0.00    +0.000 A 
ATOM     26  N   UNL     1      51.091  10.531  14.803  0.00  0.00    +0.000 NA
ATOM     27  C   UNL     1      51.037  10.360  13.525  0.00  0.00    +0.000 A 
ATOM     28  N   UNL     1      50.507   9.256  12.907  0.00  0.00    +0.000 N 
ATOM     29  C   UNL     1      49.988   8.190  13.600  0.00  0.00    +0.000 A 
ATOM     30  O   UNL     1      49.554   7.202  13.016  0.00  0.00    +0.000 OA
ATOM     31  C   UNL     1      50.019   8.333  15.041  0.00  0.00    +0.000 A 
ATOM     32  H   UNL     1      50.499   9.181  11.901  0.00  0.00    +0.000 HD
ENDBRANCH  19  22
ENDBRANCH  17  18
ENDBRANCH   4  17
TORSDOF 6
ENDMDL
MODEL 6
REMARK VINA RESULT:    -6.821      2.752      3.548
REMARK INTER + INTRA:         -10.369
REMARK INTER:                  -9.643
REMARK INTRA:                  -0.726
REMARK UNBOUND:                -1.156
REMARK  Name = 
REMARK  6 active torsions:
REMARK  status: ('A' for Active; 'I' for Inactive)
REMARK    1  A    between atoms: C_2  and  C_25
REMARK    2  A    between atoms: N_3  and  C_4
REMARK    3  A    between atoms: C_4  and  C_5
REMARK    4  A    between atoms: C_8  and  C_9
REMARK    5  A    between atoms: C_9  and  N_10
REMARK    6  A    between atoms: C_11  and  C_13
REMARK                            x       y       z     vdW  Elec       q    Type
REMARK                         _______ _______ _______ _____ _____    ______ ____
ROOT
ATOM      1  C   UNL     1      45.091   4.462  11.507  0.00  0.00    +0.000 A 
ATOM      2  C   UNL     1      45.433   3.279  12.177  0.00  0.00    +0.000 A 
ATOM      3  C   UNL     1      46.186   3.317  13.356  0.00  0.00    +0.000 A 
ATOM      4  C   UNL     1      46.596   4.542  13.900  0.00  0.00    +0.000 A 
ATOM      5  C   UNL     1      46.263   5.723  13.226  0.00  0.00    +0.000 A 
ATOM      6  C   UNL     1      45.510   5.685  12.048  0.00  0.00    +0.000 A 
ENDROOT
BRANCH   1   7
ATOM      7  C   UNL     1      44.285   4.422  10.237  0.00  0.00    +0.000 C 
BRANCH   7  10
ATOM      8  O   UNL     1      44.765   1.860   9.111  0.00  0.00    +0.000 OA
ATOM      9  C   UNL     1      45.267   2.863   8.625  0.00  0.00    +0.000 C 
ATOM     10  N   UNL     1      45.097   4.147   9.081  0.00  0.00    +0.000 N 
ATOM     11  H   UNL     1      45.561   4.897   8.575  0.00  0.00    +0.000 HD
BRANCH   9  12
ATOM     12  C   UNL     1      46.167   2.744   7.427  0.00  0.00    +0.000 C 
ATOM     13  C   UNL     1      47.130   1.645   7.258  0.00  0.00    +0.000 C 
ATOM     14  C   UNL     1      47.740   1.935   6.000  0.00  0.00    +0.000 C 
ATOM     15  C   UNL     1      47.153   3.062   5.568  0.00  0.00    +0.000 C 
ATOM     16  N   UNL     1      46.187   3.584   6.417  0.00  0.00    +0.000 NA
ENDBRANCH   9  12
ENDBRANCH   7  10
ENDBRANCH   1   7
BRANCH   4  17
ATOM     17  C   UNL     1      47.413   4.591  15.166  0.00  0.00    +0.000 C 
BRANCH  17  18
ATOM     18  N   UNL     1      47.790   5.943  15.489  0.00  0.00    +0.000 N 
ATOM     19  C   UNL     1      48.895   6.213  16.256  0.00  0.00    +0.000 C 
ATOM     20  O   UNL     1      49.641   5.324  16.655  0.00  0.00    +0.000 OA
ATOM     21  H   UNL     1      47.081   6.659  15.370  0.00  0.00    +0.000 HD
BRANCH  19  22
ATOM     22  C   UNL     1      49.179   7.628  16.528  0.00  0.00    +0.000 A 
ATOM     23  C   UNL     1      50.013   8.340  15.674  0.00  0.00    +0.000 A 
ATOM     24  S   UNL     1      50.187   9.983  16.098  0.00  0.00    +0.000 S 
ATOM     25  C   UNL     1      49.199   9.788  17.470  0.00  0.00    +0.000 A 
ATOM     26  N   UNL     1      48.949  10.833  18.305  0.00  0.00    +0.000 NA
ATOM     27  C   UNL     1      48.213  10.538  19.323  0.00  0.00    +0.000 A 
ATOM     28  N   UNL     1      47.700   9.292  19.580  0.00  0.00    +0.000 N 
ATOM     29  C   UNL     1      47.905   8.215  18.753  0.00  0.00    +0.000 A 
ATOM     30  O   UNL     1      47.402   7.122  18.995  0.00  0.00    +0.000 OA
ATOM     31  C   UNL     1      48.731   8.491  17.595  0.00  0.00    +0.000 A 
ATOM     32  H   UNL     1      47.127   9.127  20.394  0.00  0.00    +0.000 HD
ENDBRANCH  19  22
ENDBRANCH  17  18
ENDBRANCH   4  17
TORSDOF 6
ENDMDL
MODEL 7
REMARK VINA RESULT:    -6.756      3.293      4.132
REMARK INTER + INTRA:         -10.282
REMARK INTER:                  -9.380
REMARK INTRA:                  -0.902
REMARK UNBOUND:                -1.156
REMARK  Name = 
REMARK  6 active torsions:
REMARK  status: ('A' for Active; 'I' for Inactive)
REMARK    1  A    between atoms: C_2  and  C_25
REMARK    2  A    between atoms: N_3  and  C_4
REMARK    3  A    between atoms: C_4  and  C_5
REMARK    4  A    between atoms: C_8  and  C_9
REMARK    5  A    between atoms: C_9  and  N_10
REMARK    6  A    between atoms: C_11  and  C_13
REMARK                            x       y       z     vdW  Elec       q    Type
REMARK                         _______ _______ _______ _____ _____    ______ ____
ROOT
ATOM      1  C   UNL     1      44.535   4.694  11.671  0.00  0.00    +0.000 A 
ATOM      2  C   UNL     1      44.270   5.967  11.150  0.00  0.00    +0.000 A 
ATOM      3  C   UNL     1      44.882   7.103  11.691  0.00  0.00    +0.000 A 
ATOM      4  C   UNL     1      45.789   6.986  12.754  0.00  0.00    +0.000 A 
ATOM      5  C   UNL     1      46.046   5.714  13.282  0.00  0.00    +0.000 A 
ATOM      6  C   UNL     1      45.434   4.579  12.740  0.00  0.00    +0.000 A 
ENDROOT
BRANCH   1   7
ATOM      7  C   UNL     1      43.873   3.472  11.092  0.00  0.00    +0.000 C 
BRANCH   7  10
ATOM      8  O   UNL     1      44.507   4.046   8.385  0.00  0.00    +0.000 OA
ATOM      9  C   UNL     1      44.992   3.077   8.951  0.00  0.00    +0.000 C 
ATOM     10  N   UNL     1      44.763   2.712  10.255  0.00  0.00    +0.000 N 
ATOM     11  H   UNL     1      45.242   1.889  10.610  0.00  0.00    +0.000 HD
BRANCH   9  12
ATOM     12  C   UNL     1      45.923   2.163   8.205  0.00  0.00    +0.000 C 
ATOM     13  C   UNL     1      46.907   2.651   7.226  0.00  0.00    +0.000 C 
ATOM     14  C   UNL     1      47.556   1.454   6.792  0.00  0.00    +0.000 C 
ATOM     15  C   UNL     1      46.969   0.460   7.474  0.00  0.00    +0.000 C 
ATOM     16  N   UNL     1      45.965   0.857   8.346  0.00  0.00    +0.000 NA
ENDBRANCH   9  12
ENDBRANCH   7  10
ENDBRANCH   1   7
BRANCH   4  17
ATOM     17  C   UNL     1      46.448   8.205  13.348  0.00  0.00    +0.000 C 
BRANCH  17  18
ATOM     18  N   UNL     1      47.884   8.105  13.279  0.00  0.00    +0.000 N 
ATOM     19  C   UNL     1      48.623   8.969  12.513  0.00  0.00    +0.000 C 
ATOM     20  O   UNL     1      48.106   9.896  11.896  0.00  0.00    +0.000 OA
ATOM     21  H   UNL     1      48.299   7.232  13.585  0.00  0.00    +0.000 HD
BRANCH  19  22
ATOM     22  C   UNL     1      50.078   8.770  12.512  0.00  0.00    +0.000 A 
ATOM     23  C   UNL     1      50.757   8.646  11.306  0.00  0.00    +0.000 A 
ATOM     24  S   UNL     1      52.446   8.485  11.483  0.00  0.00    +0.000 S 
ATOM     25  C   UNL     1      52.325   8.518  13.180  0.00  0.00    +0.000 A 
ATOM     26  N   UNL     1      53.432   8.401  13.962  0.00  0.00    +0.000 NA
ATOM     27  C   UNL     1      53.192   8.409  15.230  0.00  0.00    +0.000 A 
ATOM     28  N   UNL     1      51.945   8.527  15.788  0.00  0.00    +0.000 N 
ATOM     29  C   UNL     1      50.803   8.672  15.039  0.00  0.00    +0.000 A 
ATOM     30  O   UNL     1      49.706   8.810  15.571  0.00  0.00    +0.000 OA
ATOM     31  C   UNL     1      51.015   8.665  13.606  0.00  0.00    +0.000 A 
ATOM     32  H   UNL     1      51.825   8.530  16.790  0.00  0.00    +0.000 HD
ENDBRANCH  19  22
ENDBRANCH  17  18
ENDBRANCH   4  17
TORSDOF 6
ENDMDL
MODEL 8
REMARK VINA RESULT:    -6.541      4.781      7.393
REMARK INTER + INTRA:          -9.991
REMARK INTER:                  -9.093
REMARK INTRA:                  -0.898
REMARK UNBOUND:                -1.156
REMARK  Name = 
REMARK  6 active torsions:
REMARK  status: ('A' for Active; 'I' for Inactive)
REMARK    1  A    between atoms: C_2  and  C_25
REMARK    2  A    between atoms: N_3  and  C_4
REMARK    3  A    between atoms: C_4  and  C_5
REMARK    4  A    between atoms: C_8  and  C_9
REMARK    5  A    between atoms: C_9  and  N_10
REMARK    6  A    between atoms: C_11  and  C_13
REMARK                            x       y       z     vdW  Elec       q    Type
REMARK                         _______ _______ _______ _____ _____    ______ ____
ROOT
ATOM      1  C   UNL     1      50.592   8.829  11.350  0.00  0.00    +0.000 A 
ATOM      2  C   UNL     1      50.119   7.548  11.667  0.00  0.00    +0.000 A 
ATOM      3  C   UNL     1      48.825   7.368  12.170  0.00  0.00    +0.000 A 
ATOM      4  C   UNL     1      47.970   8.465  12.347  0.00  0.00    +0.000 A 
ATOM      5  C   UNL     1      48.447   9.746  12.040  0.00  0.00    +0.000 A 
ATOM      6  C   UNL     1      49.740   9.925  11.537  0.00  0.00    +0.000 A 
ENDROOT
BRANCH   1   7
ATOM      7  C   UNL     1      51.985   9.023  10.814  0.00  0.00    +0.000 C 
BRANCH   7  10
ATOM      8  O   UNL     1      53.978   7.015  11.049  0.00  0.00    +0.000 OA
ATOM      9  C   UNL     1      53.317   7.126  10.027  0.00  0.00    +0.000 C 
ATOM     10  N   UNL     1      52.326   8.052   9.809  0.00  0.00    +0.000 N 
ATOM     11  H   UNL     1      51.840   8.027   8.917  0.00  0.00    +0.000 HD
BRANCH   9  12
ATOM     12  C   UNL     1      53.570   6.203   8.868  0.00  0.00    +0.000 C 
ATOM     13  C   UNL     1      52.808   6.271   7.612  0.00  0.00    +0.000 C 
ATOM     14  C   UNL     1      53.390   5.234   6.820  0.00  0.00    +0.000 C 
ATOM     15  C   UNL     1      54.348   4.692   7.587  0.00  0.00    +0.000 C 
ATOM     16  N   UNL     1      54.485   5.259   8.847  0.00  0.00    +0.000 NA
ENDBRANCH   9  12
ENDBRANCH   7  10
ENDBRANCH   1   7
BRANCH   4  17
ATOM     17  C   UNL     1      46.578   8.281  12.894  0.00  0.00    +0.000 C 
BRANCH  17  18
ATOM     18  N   UNL     1      46.083   6.956  12.621  0.00  0.00    +0.000 N 
ATOM     19  C   UNL     1      45.013   6.750  11.789  0.00  0.00    +0.000 C 
ATOM     20  O   UNL     1      44.463   7.675  11.198  0.00  0.00    +0.000 OA
ATOM     21  H   UNL     1      46.365   6.219  13.259  0.00  0.00    +0.000 HD
BRANCH  19  22
ATOM     22  C   UNL     1      44.591   5.358  11.588  0.00  0.00    +0.000 A 
ATOM     23  C   UNL     1      43.899   4.695  12.596  0.00  0.00    +0.000 A 
ATOM     24  S   UNL     1      43.430   3.110  12.176  0.00  0.00    +0.000 S 
ATOM     25  C   UNL     1      44.182   3.233  10.654  0.00  0.00    +0.000 A 
ATOM     26  N   UNL     1      44.169   2.189   9.783  0.00  0.00    +0.000 NA
ATOM     27  C   UNL     1      44.805   2.406   8.681  0.00  0.00    +0.000 A 
ATOM     28  N   UNL     1      45.450   3.576   8.370  0.00  0.00    +0.000 N 
ATOM     29  C   UNL     1      45.467   4.664   9.207  0.00  0.00    +0.000 A 
ATOM     30  O   UNL     1      46.024   5.708   8.883  0.00  0.00    +0.000 OA
ATOM     31  C   UNL     1      44.771   4.471  10.463  0.00  0.00    +0.000 A 
ATOM     32  H   UNL     1      45.927   3.684   7.487  0.00  0.00    +0.000 HD
ENDBRANCH  19  22
ENDBRANCH  17  18
ENDBRANCH   4  17
TORSDOF 6
ENDMDL
MODEL 9
REMARK VINA RESULT:    -6.438      1.708      2.232
REMARK INTER + INTRA:          -9.852
REMARK INTER:                  -8.971
REMARK INTRA:                  -0.881
REMARK UNBOUND:                -1.156
REMARK  Name = 
REMARK  6 active torsions:
REMARK  status: ('A' for Active; 'I' for Inactive)
REMARK    1  A    between atoms: C_2  and  C_25
REMARK    2  A    between atoms: N_3  and  C_4
REMARK    3  A    between atoms: C_4  and  C_5
REMARK    4  A    between atoms: C_8  and  C_9
REMARK    5  A    between atoms: C_9  and  N_10
REMARK    6  A    between atoms: C_11  and  C_13
REMARK                            x       y       z     vdW  Elec       q    Type
REMARK                         _______ _______ _______ _____ _____    ______ ____
ROOT
ATOM      1  C   UNL     1      45.902   7.277  11.956  0.00  0.00    +0.000 A 
ATOM      2  C   UNL     1      47.189   6.722  11.958  0.00  0.00    +0.000 A 
ATOM      3  C   UNL     1      48.186   7.230  12.797  0.00  0.00    +0.000 A 
ATOM      4  C   UNL     1      47.910   8.294  13.668  0.00  0.00    +0.000 A 
ATOM      5  C   UNL     1      46.627   8.855  13.659  0.00  0.00    +0.000 A 
ATOM      6  C   UNL     1      45.631   8.346  12.820  0.00  0.00    +0.000 A 
ENDROOT
BRANCH   1   7
ATOM      7  C   UNL     1      44.830   6.733  11.050  0.00  0.00    +0.000 C 
BRANCH   7  10
ATOM      8  O   UNL     1      43.570   4.292  10.330  0.00  0.00    +0.000 OA
ATOM      9  C   UNL     1      44.648   4.608   9.849  0.00  0.00    +0.000 C 
ATOM     10  N   UNL     1      45.341   5.762  10.118  0.00  0.00    +0.000 N 
ATOM     11  H   UNL     1      46.224   5.911   9.637  0.00  0.00    +0.000 HD
BRANCH   9  12
ATOM     12  C   UNL     1      45.331   3.686   8.877  0.00  0.00    +0.000 C 
ATOM     13  C   UNL     1      45.422   2.233   9.084  0.00  0.00    +0.000 C 
ATOM     14  C   UNL     1      46.130   1.782   7.928  0.00  0.00    +0.000 C 
ATOM     15  C   UNL     1      46.376   2.886   7.205  0.00  0.00    +0.000 C 
ATOM     16  N   UNL     1      45.902   4.068   7.756  0.00  0.00    +0.000 NA
ENDBRANCH   9  12
ENDBRANCH   7  10
ENDBRANCH   1   7
BRANCH   4  17
ATOM     17  C   UNL     1      48.980   8.852  14.571  0.00  0.00    +0.000 C 
BRANCH  17  18
ATOM     18  N   UNL     1      49.796   7.801  15.122  0.00  0.00    +0.000 N 
ATOM     19  C   UNL     1      49.580   7.318  16.387  0.00  0.00    +0.000 C 
ATOM     20  O   UNL     1      48.653   7.718  17.085  0.00  0.00    +0.000 OA
ATOM     21  H   UNL     1      50.685   7.622  14.667  0.00  0.00    +0.000 HD
BRANCH  19  22
ATOM     22  C   UNL     1      50.477   6.250  16.848  0.00  0.00    +0.000 A 
ATOM     23  C   UNL     1      51.786   6.555  17.204  0.00  0.00    +0.000 A 
ATOM     24  S   UNL     1      52.670   5.213  17.776  0.00  0.00    +0.000 S 
ATOM     25  C   UNL     1      51.353   4.167  17.516  0.00  0.00    +0.000 A 
ATOM     26  N   UNL     1      51.453   2.838  17.788  0.00  0.00    +0.000 NA
ATOM     27  C   UNL     1      50.393   2.156  17.512  0.00  0.00    +0.000 A 
ATOM     28  N   UNL     1      49.239   2.684  16.992  0.00  0.00    +0.000 N 
ATOM     29  C   UNL     1      49.084   4.022  16.726  0.00  0.00    +0.000 A 
ATOM     30  O   UNL     1      48.026   4.467  16.293  0.00  0.00    +0.000 OA
ATOM     31  C   UNL     1      50.249   4.834  17.013  0.00  0.00    +0.000 A 
ATOM     32  H   UNL     1      48.441   2.096  16.802  0.00  0.00    +0.000 HD
ENDBRANCH  19  22
ENDBRANCH  17  18
ENDBRANCH   4  17
TORSDOF 6
ENDMDL
