MODEL 1
REMARK VINA RESULT:    -9.066      0.000      0.000
REMARK INTER + INTRA:         -12.302
REMARK INTER:                 -11.716
REMARK INTRA:                  -0.586
REMARK UNBOUND:                -0.586
REMARK  Name = 
REMARK  5 active torsions:
REMARK  status: ('A' for Active; 'I' for Inactive)
REMARK    1  A    between atoms: C_8  and  C_9
REMARK    2  A    between atoms: N_11  and  C_12
REMARK    3  A    between atoms: C_12  and  C_13
REMARK    4  A    between atoms: C_16  and  O_17
REMARK    5  A    between atoms: O_17  and  C_18
REMARK                            x       y       z     vdW  Elec       q    Type
REMARK                         _______ _______ _______ _____ _____    ______ ____
ROOT
ATOM      1  C   UNL     1      46.339   4.777  14.038  0.00  0.00    +0.000 C 
ATOM      2  O   UNL     1      46.347   3.564  13.834  0.00  0.00    +0.000 OA
ATOM      3  N   UNL     1      45.286   5.554  13.632  0.00  0.00    +0.000 N 
ATOM      4  H   UNL     1      45.281   6.560  13.798  0.00  0.00    +0.000 HD
ENDROOT
BRANCH   1  12
ATOM      5  N   UNL     1      50.977   6.825  17.738  0.00  0.00    +0.000 N 
ATOM      6  C   UNL     1      49.864   6.062  17.519  0.00  0.00    +0.000 A 
ATOM      7  N   UNL     1      49.479   5.278  18.495  0.00  0.00    +0.000 NA
ATOM      8  N   UNL     1      48.378   4.472  18.303  0.00  0.00    +0.000 N 
ATOM      9  C   UNL     1      47.615   4.369  17.153  0.00  0.00    +0.000 A 
ATOM     10  O   UNL     1      46.671   3.588  17.084  0.00  0.00    +0.000 OA
ATOM     11  C   UNL     1      48.009   5.250  16.066  0.00  0.00    +0.000 A 
ATOM     12  C   UNL     1      47.458   5.433  14.738  0.00  0.00    +0.000 A 
ATOM     13  C   UNL     1      48.179   6.421  14.072  0.00  0.00    +0.000 A 
ATOM     14  S   UNL     1      49.458   7.083  14.984  0.00  0.00    +0.000 S 
ATOM     15  C   UNL     1      49.100   6.067  16.287  0.00  0.00    +0.000 A 
ATOM     16  H   UNL     1      51.227   6.919  18.715  0.00  0.00    +0.000 HD
ATOM     17  H   UNL     1      51.080   7.664  17.182  0.00  0.00    +0.000 HD
ATOM     18  H   UNL     1      48.129   3.864  19.076  0.00  0.00    +0.000 HD
ENDBRANCH   1  12
BRANCH   3  19
ATOM     19  C   UNL     1      44.149   4.973  12.964  0.00  0.00    +0.000 C 
BRANCH  19  20
ATOM     20  C   UNL     1      44.437   4.692  11.511  0.00  0.00    +0.000 A 
ATOM     21  C   UNL     1      43.881   3.570  10.882  0.00  0.00    +0.000 A 
ATOM     22  C   UNL     1      44.148   3.301   9.537  0.00  0.00    +0.000 A 
ATOM     23  C   UNL     1      44.936   4.180   8.791  0.00  0.00    +0.000 A 
ATOM     24  C   UNL     1      45.539   5.268   9.423  0.00  0.00    +0.000 A 
ATOM     25  C   UNL     1      45.294   5.522  10.776  0.00  0.00    +0.000 A 
BRANCH  23  26
ATOM     26  O   UNL     1      45.236   4.017   7.456  0.00  0.00    +0.000 OA
BRANCH  26  27
ATOM     27  C   UNL     1      46.215   3.131   7.066  0.00  0.00    +0.000 A 
ATOM     28  C   UNL     1      46.552   1.967   7.753  0.00  0.00    +0.000 A 
ATOM     29  C   UNL     1      47.581   1.189   7.250  0.00  0.00    +0.000 A 
ATOM     30  N   UNL     1      48.239   1.463   6.104  0.00  0.00    +0.000 NA
ATOM     31  C   UNL     1      47.844   2.559   5.424  0.00  0.00    +0.000 A 
ATOM     32  C   UNL     1      46.847   3.415   5.858  0.00  0.00    +0.000 A 
ENDBRANCH  26  27
ENDBRANCH  23  26
ENDBRANCH  19  20
ENDBRANCH   3  19
TORSDOF 5
ENDMDL
MODEL 2
REMARK VINA RESULT:    -8.740      1.541      2.188
REMARK INTER + INTRA:         -11.881
REMARK INTER:                 -11.237
REMARK INTRA:                  -0.644
REMARK UNBOUND:                -0.586
REMARK  Name = 
REMARK  5 active torsions:
REMARK  status: ('A' for Active; 'I' for Inactive)
REMARK    1  A    between atoms: C_8  and  C_9
REMARK    2  A    between atoms: N_11  and  C_12
REMARK    3  A    between atoms: C_12  and  C_13
REMARK    4  A    between atoms: C_16  and  O_17
REMARK    5  A    between atoms: O_17  and  C_18
REMARK                            x       y       z     vdW  Elec       q    Type
REMARK                         _______ _______ _______ _____ _____    ______ ____
ROOT
ATOM      1  C   UNL     1      47.850   6.897  13.737  0.00  0.00    +0.000 C 
ATOM      2  O   UNL     1      48.578   7.276  12.821  0.00  0.00    +0.000 OA
ATOM      3  N   UNL     1      46.486   6.929  13.613  0.00  0.00    +0.000 N 
ATOM      4  H   UNL     1      45.882   6.619  14.374  0.00  0.00    +0.000 HD
ENDROOT
BRANCH   1  12
ATOM      5  N   UNL     1      49.724   3.858  18.899  0.00  0.00    +0.000 N 
ATOM      6  C   UNL     1      48.877   4.010  17.835  0.00  0.00    +0.000 A 
ATOM      7  N   UNL     1      47.954   3.095  17.675  0.00  0.00    +0.000 NA
ATOM      8  N   UNL     1      47.100   3.198  16.599  0.00  0.00    +0.000 N 
ATOM      9  C   UNL     1      47.114   4.174  15.618  0.00  0.00    +0.000 A 
ATOM     10  O   UNL     1      46.321   4.146  14.681  0.00  0.00    +0.000 OA
ATOM     11  C   UNL     1      48.114   5.214  15.792  0.00  0.00    +0.000 A 
ATOM     12  C   UNL     1      48.422   6.385  14.995  0.00  0.00    +0.000 A 
ATOM     13  C   UNL     1      49.462   7.091  15.595  0.00  0.00    +0.000 A 
ATOM     14  S   UNL     1      50.046   6.380  17.030  0.00  0.00    +0.000 S 
ATOM     15  C   UNL     1      48.944   5.106  16.889  0.00  0.00    +0.000 A 
ATOM     16  H   UNL     1      49.385   3.219  19.608  0.00  0.00    +0.000 HD
ATOM     17  H   UNL     1      50.182   4.690  19.248  0.00  0.00    +0.000 HD
ATOM     18  H   UNL     1      46.416   2.456  16.499  0.00  0.00    +0.000 HD
ENDBRANCH   1  12
BRANCH   3  19
ATOM     19  C   UNL     1      45.861   7.396  12.401  0.00  0.00    +0.000 C 
BRANCH  19  20
ATOM     20  C   UNL     1      45.552   6.260  11.459  0.00  0.00    +0.000 A 
ATOM     21  C   UNL     1      44.746   5.191  11.876  0.00  0.00    +0.000 A 
ATOM     22  C   UNL     1      44.460   4.132  11.010  0.00  0.00    +0.000 A 
ATOM     23  C   UNL     1      44.936   4.154   9.698  0.00  0.00    +0.000 A 
ATOM     24  C   UNL     1      45.784   5.186   9.291  0.00  0.00    +0.000 A 
ATOM     25  C   UNL     1      46.094   6.231  10.167  0.00  0.00    +0.000 A 
BRANCH  23  26
ATOM     26  O   UNL     1      44.689   3.174   8.762  0.00  0.00    +0.000 OA
BRANCH  26  27
ATOM     27  C   UNL     1      45.715   2.672   7.993  0.00  0.00    +0.000 A 
ATOM     28  C   UNL     1      46.397   3.389   7.014  0.00  0.00    +0.000 A 
ATOM     29  C   UNL     1      47.389   2.736   6.302  0.00  0.00    +0.000 A 
ATOM     30  N   UNL     1      47.771   1.463   6.538  0.00  0.00    +0.000 NA
ATOM     31  C   UNL     1      47.139   0.816   7.539  0.00  0.00    +0.000 A 
ATOM     32  C   UNL     1      46.116   1.371   8.288  0.00  0.00    +0.000 A 
ENDBRANCH  26  27
ENDBRANCH  23  26
ENDBRANCH  19  20
ENDBRANCH   3  19
TORSDOF 5
ENDMDL
MODEL 3
REMARK VINA RESULT:    -8.661      1.908      3.000
REMARK INTER + INTRA:         -11.778
REMARK INTER:                 -10.897
REMARK INTRA:                  -0.881
REMARK UNBOUND:                -0.586
REMARK  Name = 
REMARK  5 active torsions:
REMARK  status: ('A' for Active; 'I' for Inactive)
REMARK    1  A    between atoms: C_8  and  C_9
REMARK    2  A    between atoms: N_11  and  C_12
REMARK    3  A    between atoms: C_12  and  C_13
REMARK    4  A    between atoms: C_16  and  O_17
REMARK    5  A    between atoms: O_17  and  C_18
REMARK                            x       y       z     vdW  Elec       q    Type
REMARK                         _______ _______ _______ _____ _____    ______ ____
ROOT
ATOM      1  C   UNL     1      46.808   4.908  14.270  0.00  0.00    +0.000 C 
ATOM      2  O   UNL     1      46.798   3.691  14.446  0.00  0.00    +0.000 OA
ATOM      3  N   UNL     1      45.759   5.542  13.659  0.00  0.00    +0.000 N 
ATOM      4  H   UNL     1      45.768   6.551  13.509  0.00  0.00    +0.000 HD
ENDROOT
BRANCH   1  12
ATOM      5  N   UNL     1      51.522   8.923  15.305  0.00  0.00    +0.000 N 
ATOM      6  C   UNL     1      50.605   8.333  14.478  0.00  0.00    +0.000 A 
ATOM      7  N   UNL     1      50.557   8.764  13.242  0.00  0.00    +0.000 NA
ATOM      8  N   UNL     1      49.627   8.216  12.385  0.00  0.00    +0.000 N 
ATOM      9  C   UNL     1      48.689   7.246  12.689  0.00  0.00    +0.000 A 
ATOM     10  O   UNL     1      47.884   6.854  11.850  0.00  0.00    +0.000 OA
ATOM     11  C   UNL     1      48.743   6.735  14.049  0.00  0.00    +0.000 A 
ATOM     12  C   UNL     1      47.947   5.728  14.723  0.00  0.00    +0.000 A 
ATOM     13  C   UNL     1      48.405   5.576  16.029  0.00  0.00    +0.000 A 
ATOM     14  S   UNL     1      49.710   6.597  16.431  0.00  0.00    +0.000 S 
ATOM     15  C   UNL     1      49.697   7.280  14.885  0.00  0.00    +0.000 A 
ATOM     16  H   UNL     1      52.252   9.427  14.818  0.00  0.00    +0.000 HD
ATOM     17  H   UNL     1      51.824   8.392  16.112  0.00  0.00    +0.000 HD
ATOM     18  H   UNL     1      49.609   8.595  11.445  0.00  0.00    +0.000 HD
ENDBRANCH   1  12
BRANCH   3  19
ATOM     19  C   UNL     1      44.604   4.803  13.214  0.00  0.00    +0.000 C 
BRANCH  19  20
ATOM     20  C   UNL     1      44.670   4.497  11.739  0.00  0.00    +0.000 A 
ATOM     21  C   UNL     1      45.317   5.377  10.860  0.00  0.00    +0.000 A 
ATOM     22  C   UNL     1      45.377   5.102   9.491  0.00  0.00    +0.000 A 
ATOM     23  C   UNL     1      44.832   3.917   8.991  0.00  0.00    +0.000 A 
ATOM     24  C   UNL     1      44.138   3.064   9.850  0.00  0.00    +0.000 A 
ATOM     25  C   UNL     1      44.053   3.353  11.215  0.00  0.00    +0.000 A 
BRANCH  23  26
ATOM     26  O   UNL     1      44.862   3.544   7.666  0.00  0.00    +0.000 OA
BRANCH  26  27
ATOM     27  C   UNL     1      45.956   2.884   7.153  0.00  0.00    +0.000 A 
ATOM     28  C   UNL     1      46.684   3.299   6.041  0.00  0.00    +0.000 A 
ATOM     29  C   UNL     1      47.745   2.513   5.627  0.00  0.00    +0.000 A 
ATOM     30  N   UNL     1      48.151   1.398   6.270  0.00  0.00    +0.000 NA
ATOM     31  C   UNL     1      47.470   1.059   7.384  0.00  0.00    +0.000 A 
ATOM     32  C   UNL     1      46.378   1.762   7.862  0.00  0.00    +0.000 A 
ENDBRANCH  26  27
ENDBRANCH  23  26
ENDBRANCH  19  20
ENDBRANCH   3  19
TORSDOF 5
ENDMDL
MODEL 4
REMARK VINA RESULT:    -8.594      1.845      2.582
REMARK INTER + INTRA:         -11.692
REMARK INTER:                 -10.945
REMARK INTRA:                  -0.747
REMARK UNBOUND:                -0.586
REMARK  Name = 
REMARK  5 active torsions:
REMARK  status: ('A' for Active; 'I' for Inactive)
REMARK    1  A    between atoms: C_8  and  C_9
REMARK    2  A    between atoms: N_11  and  C_12
REMARK    3  A    between atoms: C_12  and  C_13
REMARK    4  A    between atoms: C_16  and  O_17
REMARK    5  A    between atoms: O_17  and  C_18
REMARK                            x       y       z     vdW  Elec       q    Type
REMARK                         _______ _______ _______ _____ _____    ______ ____
ROOT
ATOM      1  C   UNL     1      47.583   5.798  14.379  0.00  0.00    +0.000 C 
ATOM      2  O   UNL     1      48.548   6.166  13.710  0.00  0.00    +0.000 OA
ATOM      3  N   UNL     1      46.302   6.050  13.968  0.00  0.00    +0.000 N 
ATOM      4  H   UNL     1      45.502   5.748  14.524  0.00  0.00    +0.000 HD
ENDROOT
BRANCH   1  12
ATOM      5  N   UNL     1      48.615   3.597  20.166  0.00  0.00    +0.000 N 
ATOM      6  C   UNL     1      48.700   4.585  19.224  0.00  0.00    +0.000 A 
ATOM      7  N   UNL     1      49.208   5.730  19.607  0.00  0.00    +0.000 NA
ATOM      8  N   UNL     1      49.284   6.760  18.695  0.00  0.00    +0.000 N 
ATOM      9  C   UNL     1      48.852   6.737  17.380  0.00  0.00    +0.000 A 
ATOM     10  O   UNL     1      48.940   7.730  16.665  0.00  0.00    +0.000 OA
ATOM     11  C   UNL     1      48.309   5.467  16.927  0.00  0.00    +0.000 A 
ATOM     12  C   UNL     1      47.777   5.061  15.641  0.00  0.00    +0.000 A 
ATOM     13  C   UNL     1      47.399   3.722  15.701  0.00  0.00    +0.000 A 
ATOM     14  S   UNL     1      47.655   2.995  17.221  0.00  0.00    +0.000 S 
ATOM     15  C   UNL     1      48.264   4.441  17.849  0.00  0.00    +0.000 A 
ATOM     16  H   UNL     1      49.201   3.750  20.978  0.00  0.00    +0.000 HD
ATOM     17  H   UNL     1      48.576   2.643  19.833  0.00  0.00    +0.000 HD
ATOM     18  H   UNL     1      49.662   7.635  19.040  0.00  0.00    +0.000 HD
ENDBRANCH   1  12
BRANCH   3  19
ATOM     19  C   UNL     1      46.042   6.744  12.731  0.00  0.00    +0.000 C 
BRANCH  19  20
ATOM     20  C   UNL     1      45.719   5.788  11.611  0.00  0.00    +0.000 A 
ATOM     21  C   UNL     1      46.001   6.132  10.281  0.00  0.00    +0.000 A 
ATOM     22  C   UNL     1      45.699   5.253   9.238  0.00  0.00    +0.000 A 
ATOM     23  C   UNL     1      45.158   3.996   9.516  0.00  0.00    +0.000 A 
ATOM     24  C   UNL     1      44.824   3.668  10.830  0.00  0.00    +0.000 A 
ATOM     25  C   UNL     1      45.099   4.559  11.872  0.00  0.00    +0.000 A 
BRANCH  23  26
ATOM     26  O   UNL     1      44.851   3.051   8.562  0.00  0.00    +0.000 OA
BRANCH  26  27
ATOM     27  C   UNL     1      45.833   2.544   7.742  0.00  0.00    +0.000 A 
ATOM     28  C   UNL     1      46.394   3.222   6.663  0.00  0.00    +0.000 A 
ATOM     29  C   UNL     1      47.356   2.568   5.912  0.00  0.00    +0.000 A 
ATOM     30  N   UNL     1      47.822   1.334   6.198  0.00  0.00    +0.000 NA
ATOM     31  C   UNL     1      47.309   0.730   7.289  0.00  0.00    +0.000 A 
ATOM     32  C   UNL     1      46.325   1.287   8.086  0.00  0.00    +0.000 A 
ENDBRANCH  26  27
ENDBRANCH  23  26
ENDBRANCH  19  20
ENDBRANCH   3  19
TORSDOF 5
ENDMDL
MODEL 5
REMARK VINA RESULT:    -8.370      1.521      2.103
REMARK INTER + INTRA:         -11.401
REMARK INTER:                 -10.612
REMARK INTRA:                  -0.790
REMARK UNBOUND:                -0.586
REMARK  Name = 
REMARK  5 active torsions:
REMARK  status: ('A' for Active; 'I' for Inactive)
REMARK    1  A    between atoms: C_8  and  C_9
REMARK    2  A    between atoms: N_11  and  C_12
REMARK    3  A    between atoms: C_12  and  C_13
REMARK    4  A    between atoms: C_16  and  O_17
REMARK    5  A    between atoms: O_17  and  C_18
REMARK                            x       y       z     vdW  Elec       q    Type
REMARK                         _______ _______ _______ _____ _____    ______ ____
ROOT
ATOM      1  C   UNL     1      47.376   5.874  13.691  0.00  0.00    +0.000 C 
ATOM      2  O   UNL     1      47.423   4.662  13.895  0.00  0.00    +0.000 OA
ATOM      3  N   UNL     1      46.211   6.480  13.303  0.00  0.00    +0.000 N 
ATOM      4  H   UNL     1      46.172   7.484  13.131  0.00  0.00    +0.000 HD
ENDROOT
BRANCH   1  12
ATOM      5  N   UNL     1      52.546   9.003  15.389  0.00  0.00    +0.000 N 
ATOM      6  C   UNL     1      51.465   8.219  15.685  0.00  0.00    +0.000 A 
ATOM      7  N   UNL     1      51.349   7.809  16.923  0.00  0.00    +0.000 NA
ATOM      8  N   UNL     1      50.289   6.993  17.255  0.00  0.00    +0.000 N 
ATOM      9  C   UNL     1      49.308   6.519  16.402  0.00  0.00    +0.000 A 
ATOM     10  O   UNL     1      48.426   5.767  16.804  0.00  0.00    +0.000 OA
ATOM     11  C   UNL     1      49.403   6.984  15.028  0.00  0.00    +0.000 A 
ATOM     12  C   UNL     1      48.572   6.717  13.871  0.00  0.00    +0.000 A 
ATOM     13  C   UNL     1      49.067   7.420  12.776  0.00  0.00    +0.000 A 
ATOM     14  S   UNL     1      50.464   8.338  13.113  0.00  0.00    +0.000 S 
ATOM     15  C   UNL     1      50.459   7.819  14.721  0.00  0.00    +0.000 A 
ATOM     16  H   UNL     1      52.990   9.416  16.200  0.00  0.00    +0.000 HD
ATOM     17  H   UNL     1      52.472   9.607  14.581  0.00  0.00    +0.000 HD
ATOM     18  H   UNL     1      50.251   6.681  18.219  0.00  0.00    +0.000 HD
ENDBRANCH   1  12
BRANCH   3  19
ATOM     19  C   UNL     1      44.999   5.718  13.133  0.00  0.00    +0.000 C 
BRANCH  19  20
ATOM     20  C   UNL     1      44.918   5.094  11.763  0.00  0.00    +0.000 A 
ATOM     21  C   UNL     1      44.202   3.905  11.566  0.00  0.00    +0.000 A 
ATOM     22  C   UNL     1      44.128   3.319  10.300  0.00  0.00    +0.000 A 
ATOM     23  C   UNL     1      44.729   3.941   9.204  0.00  0.00    +0.000 A 
ATOM     24  C   UNL     1      45.490   5.094   9.402  0.00  0.00    +0.000 A 
ATOM     25  C   UNL     1      45.588   5.666  10.674  0.00  0.00    +0.000 A 
BRANCH  23  26
ATOM     26  O   UNL     1      44.692   3.458   7.915  0.00  0.00    +0.000 OA
BRANCH  26  27
ATOM     27  C   UNL     1      45.785   2.814   7.381  0.00  0.00    +0.000 A 
ATOM     28  C   UNL     1      46.527   3.276   6.297  0.00  0.00    +0.000 A 
ATOM     29  C   UNL     1      47.586   2.502   5.856  0.00  0.00    +0.000 A 
ATOM     30  N   UNL     1      47.976   1.353   6.448  0.00  0.00    +0.000 NA
ATOM     31  C   UNL     1      47.281   0.966   7.538  0.00  0.00    +0.000 A 
ATOM     32  C   UNL     1      46.190   1.655   8.039  0.00  0.00    +0.000 A 
ENDBRANCH  26  27
ENDBRANCH  23  26
ENDBRANCH  19  20
ENDBRANCH   3  19
TORSDOF 5
ENDMDL
MODEL 6
REMARK VINA RESULT:    -7.748      4.312      9.527
REMARK INTER + INTRA:         -10.598
REMARK INTER:                 -10.005
REMARK INTRA:                  -0.594
REMARK UNBOUND:                -0.586
REMARK  Name = 
REMARK  5 active torsions:
REMARK  status: ('A' for Active; 'I' for Inactive)
REMARK    1  A    between atoms: C_8  and  C_9
REMARK    2  A    between atoms: N_11  and  C_12
REMARK    3  A    between atoms: C_12  and  C_13
REMARK    4  A    between atoms: C_16  and  O_17
REMARK    5  A    between atoms: O_17  and  C_18
REMARK                            x       y       z     vdW  Elec       q    Type
REMARK                         _______ _______ _______ _____ _____    ______ ____
ROOT
ATOM      1  C   UNL     1      46.749   4.121  14.465  0.00  0.00    +0.000 C 
ATOM      2  O   UNL     1      47.221   3.102  13.963  0.00  0.00    +0.000 OA
ATOM      3  N   UNL     1      46.768   4.314  15.821  0.00  0.00    +0.000 N 
ATOM      4  H   UNL     1      46.373   5.156  16.238  0.00  0.00    +0.000 HD
ENDROOT
BRANCH   1  12
ATOM      5  N   UNL     1      43.358   8.033  10.916  0.00  0.00    +0.000 N 
ATOM      6  C   UNL     1      43.555   6.819  11.514  0.00  0.00    +0.000 A 
ATOM      7  N   UNL     1      42.598   5.933  11.388  0.00  0.00    +0.000 NA
ATOM      8  N   UNL     1      42.746   4.707  12.000  0.00  0.00    +0.000 N 
ATOM      9  C   UNL     1      43.812   4.291  12.779  0.00  0.00    +0.000 A 
ATOM     10  O   UNL     1      43.821   3.182  13.305  0.00  0.00    +0.000 OA
ATOM     11  C   UNL     1      44.896   5.250  12.909  0.00  0.00    +0.000 A 
ATOM     12  C   UNL     1      46.157   5.175  13.621  0.00  0.00    +0.000 A 
ATOM     13  C   UNL     1      46.871   6.353  13.421  0.00  0.00    +0.000 A 
ATOM     14  S   UNL     1      46.066   7.496  12.444  0.00  0.00    +0.000 S 
ATOM     15  C   UNL     1      44.740   6.463  12.269  0.00  0.00    +0.000 A 
ATOM     16  H   UNL     1      42.631   8.033  10.210  0.00  0.00    +0.000 HD
ATOM     17  H   UNL     1      44.181   8.576  10.690  0.00  0.00    +0.000 HD
ATOM     18  H   UNL     1      41.972   4.060  11.896  0.00  0.00    +0.000 HD
ENDBRANCH   1  12
BRANCH   3  19
ATOM     19  C   UNL     1      47.354   3.334  16.702  0.00  0.00    +0.000 C 
BRANCH  19  20
ATOM     20  C   UNL     1      48.796   3.650  17.008  0.00  0.00    +0.000 A 
ATOM     21  C   UNL     1      49.253   4.975  16.985  0.00  0.00    +0.000 A 
ATOM     22  C   UNL     1      50.590   5.273  17.263  0.00  0.00    +0.000 A 
ATOM     23  C   UNL     1      51.476   4.253  17.615  0.00  0.00    +0.000 A 
ATOM     24  C   UNL     1      51.043   2.926  17.585  0.00  0.00    +0.000 A 
ATOM     25  C   UNL     1      49.712   2.625  17.280  0.00  0.00    +0.000 A 
BRANCH  23  26
ATOM     26  O   UNL     1      52.802   4.447  17.930  0.00  0.00    +0.000 OA
BRANCH  26  27
ATOM     27  C   UNL     1      53.461   3.556  18.747  0.00  0.00    +0.000 A 
ATOM     28  C   UNL     1      54.122   2.412  18.305  0.00  0.00    +0.000 A 
ATOM     29  C   UNL     1      54.715   1.596  19.253  0.00  0.00    +0.000 A 
ATOM     30  N   UNL     1      54.739   1.872  20.574  0.00  0.00    +0.000 NA
ATOM     31  C   UNL     1      54.150   3.021  20.964  0.00  0.00    +0.000 A 
ATOM     32  C   UNL     1      53.505   3.888  20.099  0.00  0.00    +0.000 A 
ENDBRANCH  26  27
ENDBRANCH  23  26
ENDBRANCH  19  20
ENDBRANCH   3  19
TORSDOF 5
ENDMDL
MODEL 7
REMARK VINA RESULT:    -7.689      2.279      3.462
REMARK INTER + INTRA:         -10.522
REMARK INTER:                  -9.486
REMARK INTRA:                  -1.037
REMARK UNBOUND:                -0.586
REMARK  Name = 
REMARK  5 active torsions:
REMARK  status: ('A' for Active; 'I' for Inactive)
REMARK    1  A    between atoms: C_8  and  C_9
REMARK    2  A    between atoms: N_11  and  C_12
REMARK    3  A    between atoms: C_12  and  C_13
REMARK    4  A    between atoms: C_16  and  O_17
REMARK    5  A    between atoms: O_17  and  C_18
REMARK                            x       y       z     vdW  Elec       q    Type
REMARK                         _______ _______ _______ _____ _____    ______ ____
ROOT
ATOM      1  C   UNL     1      49.053   7.624  15.358  0.00  0.00    +0.000 C 
ATOM      2  O   UNL     1      50.019   7.875  14.640  0.00  0.00    +0.000 OA
ATOM      3  N   UNL     1      47.774   7.860  14.928  0.00  0.00    +0.000 N 
ATOM      4  H   UNL     1      46.972   7.656  15.525  0.00  0.00    +0.000 HD
ENDROOT
BRANCH   1  12
ATOM      5  N   UNL     1      49.527   4.284  20.652  0.00  0.00    +0.000 N 
ATOM      6  C   UNL     1      49.077   4.447  19.370  0.00  0.00    +0.000 A 
ATOM      7  N   UNL     1      48.420   3.446  18.839  0.00  0.00    +0.000 NA
ATOM      8  N   UNL     1      47.975   3.560  17.540  0.00  0.00    +0.000 N 
ATOM      9  C   UNL     1      48.165   4.635  16.689  0.00  0.00    +0.000 A 
ATOM     10  O   UNL     1      47.750   4.613  15.534  0.00  0.00    +0.000 OA
ATOM     11  C   UNL     1      48.869   5.767  17.267  0.00  0.00    +0.000 A 
ATOM     12  C   UNL     1      49.240   7.050  16.703  0.00  0.00    +0.000 A 
ATOM     13  C   UNL     1      49.889   7.810  17.672  0.00  0.00    +0.000 A 
ATOM     14  S   UNL     1      50.058   7.022  19.175  0.00  0.00    +0.000 S 
ATOM     15  C   UNL     1      49.285   5.643  18.577  0.00  0.00    +0.000 A 
ATOM     16  H   UNL     1      49.074   3.532  21.155  0.00  0.00    +0.000 HD
ATOM     17  H   UNL     1      49.702   5.123  21.190  0.00  0.00    +0.000 HD
ATOM     18  H   UNL     1      47.491   2.753  17.162  0.00  0.00    +0.000 HD
ENDBRANCH   1  12
BRANCH   3  19
ATOM     19  C   UNL     1      47.519   8.397  13.615  0.00  0.00    +0.000 C 
BRANCH  19  20
ATOM     20  C   UNL     1      46.646   7.481  12.796  0.00  0.00    +0.000 A 
ATOM     21  C   UNL     1      45.605   8.003  12.015  0.00  0.00    +0.000 A 
ATOM     22  C   UNL     1      44.789   7.159  11.258  0.00  0.00    +0.000 A 
ATOM     23  C   UNL     1      45.035   5.785  11.234  0.00  0.00    +0.000 A 
ATOM     24  C   UNL     1      46.032   5.251  12.051  0.00  0.00    +0.000 A 
ATOM     25  C   UNL     1      46.832   6.092  12.830  0.00  0.00    +0.000 A 
BRANCH  23  26
ATOM     26  O   UNL     1      44.305   4.874  10.502  0.00  0.00    +0.000 OA
BRANCH  26  27
ATOM     27  C   UNL     1      44.924   4.079   9.564  0.00  0.00    +0.000 A 
ATOM     28  C   UNL     1      45.713   4.551   8.519  0.00  0.00    +0.000 A 
ATOM     29  C   UNL     1      46.247   3.627   7.637  0.00  0.00    +0.000 A 
ATOM     30  N   UNL     1      46.093   2.291   7.763  0.00  0.00    +0.000 NA
ATOM     31  C   UNL     1      45.380   1.860   8.824  0.00  0.00    +0.000 A 
ATOM     32  C   UNL     1      44.783   2.705   9.744  0.00  0.00    +0.000 A 
ENDBRANCH  26  27
ENDBRANCH  23  26
ENDBRANCH  19  20
ENDBRANCH   3  19
TORSDOF 5
ENDMDL
MODEL 8
REMARK VINA RESULT:    -7.624      2.915      3.741
REMARK INTER + INTRA:         -10.438
REMARK INTER:                  -9.549
REMARK INTRA:                  -0.889
REMARK UNBOUND:                -0.586
REMARK  Name = 
REMARK  5 active torsions:
REMARK  status: ('A' for Active; 'I' for Inactive)
REMARK    1  A    between atoms: C_8  and  C_9
REMARK    2  A    between atoms: N_11  and  C_12
REMARK    3  A    between atoms: C_12  and  C_13
REMARK    4  A    between atoms: C_16  and  O_17
REMARK    5  A    between atoms: O_17  and  C_18
REMARK                            x       y       z     vdW  Elec       q    Type
REMARK                         _______ _______ _______ _____ _____    ______ ____
ROOT
ATOM      1  C   UNL     1      47.572   7.278  13.939  0.00  0.00    +0.000 C 
ATOM      2  O   UNL     1      46.773   8.209  13.849  0.00  0.00    +0.000 OA
ATOM      3  N   UNL     1      47.158   5.979  13.804  0.00  0.00    +0.000 N 
ATOM      4  H   UNL     1      47.819   5.206  13.882  0.00  0.00    +0.000 HD
ENDROOT
BRANCH   1  12
ATOM      5  N   UNL     1      53.700   8.635  13.970  0.00  0.00    +0.000 N 
ATOM      6  C   UNL     1      52.531   8.375  13.309  0.00  0.00    +0.000 A 
ATOM      7  N   UNL     1      52.557   8.451  12.002  0.00  0.00    +0.000 NA
ATOM      8  N   UNL     1      51.392   8.225  11.302  0.00  0.00    +0.000 N 
ATOM      9  C   UNL     1      50.146   7.939  11.833  0.00  0.00    +0.000 A 
ATOM     10  O   UNL     1      49.166   7.788  11.111  0.00  0.00    +0.000 OA
ATOM     11  C   UNL     1      50.101   7.823  13.282  0.00  0.00    +0.000 A 
ATOM     12  C   UNL     1      49.004   7.530  14.182  0.00  0.00    +0.000 A 
ATOM     13  C   UNL     1      49.475   7.509  15.492  0.00  0.00    +0.000 A 
ATOM     14  S   UNL     1      51.142   7.837  15.636  0.00  0.00    +0.000 S 
ATOM     15  C   UNL     1      51.283   8.030  13.963  0.00  0.00    +0.000 A 
ATOM     16  H   UNL     1      54.524   8.585  13.383  0.00  0.00    +0.000 HD
ATOM     17  H   UNL     1      53.803   8.245  14.898  0.00  0.00    +0.000 HD
ATOM     18  H   UNL     1      51.451   8.317  10.294  0.00  0.00    +0.000 HD
ENDBRANCH   1  12
BRANCH   3  19
ATOM     19  C   UNL     1      45.777   5.663  13.541  0.00  0.00    +0.000 C 
BRANCH  19  20
ATOM     20  C   UNL     1      45.583   5.123  12.147  0.00  0.00    +0.000 A 
ATOM     21  C   UNL     1      45.017   3.855  11.949  0.00  0.00    +0.000 A 
ATOM     22  C   UNL     1      44.840   3.347  10.660  0.00  0.00    +0.000 A 
ATOM     23  C   UNL     1      45.181   4.121   9.549  0.00  0.00    +0.000 A 
ATOM     24  C   UNL     1      45.796   5.359   9.737  0.00  0.00    +0.000 A 
ATOM     25  C   UNL     1      46.000   5.857  11.028  0.00  0.00    +0.000 A 
BRANCH  23  26
ATOM     26  O   UNL     1      45.023   3.720   8.241  0.00  0.00    +0.000 OA
BRANCH  26  27
ATOM     27  C   UNL     1      45.938   2.875   7.655  0.00  0.00    +0.000 A 
ATOM     28  C   UNL     1      46.206   1.577   8.083  0.00  0.00    +0.000 A 
ATOM     29  C   UNL     1      47.178   0.858   7.408  0.00  0.00    +0.000 A 
ATOM     30  N   UNL     1      47.841   1.319   6.327  0.00  0.00    +0.000 NA
ATOM     31  C   UNL     1      47.510   2.553   5.894  0.00  0.00    +0.000 A 
ATOM     32  C   UNL     1      46.575   3.362   6.517  0.00  0.00    +0.000 A 
ENDBRANCH  26  27
ENDBRANCH  23  26
ENDBRANCH  19  20
ENDBRANCH   3  19
TORSDOF 5
ENDMDL
MODEL 9
REMARK VINA RESULT:    -7.383      4.107      8.819
REMARK INTER + INTRA:         -10.126
REMARK INTER:                  -9.293
REMARK INTRA:                  -0.833
REMARK UNBOUND:                -0.586
REMARK  Name = 
REMARK  5 active torsions:
REMARK  status: ('A' for Active; 'I' for Inactive)
REMARK    1  A    between atoms: C_8  and  C_9
REMARK    2  A    between atoms: N_11  and  C_12
REMARK    3  A    between atoms: C_12  and  C_13
REMARK    4  A    between atoms: C_16  and  O_17
REMARK    5  A    between atoms: O_17  and  C_18
REMARK                            x       y       z     vdW  Elec       q    Type
REMARK                         _______ _______ _______ _____ _____    ______ ____
ROOT
ATOM      1  C   UNL     1      48.018   6.848  13.493  0.00  0.00    +0.000 C 
ATOM      2  O   UNL     1      49.056   6.798  12.836  0.00  0.00    +0.000 OA
ATOM      3  N   UNL     1      48.022   7.301  14.786  0.00  0.00    +0.000 N 
ATOM      4  H   UNL     1      47.161   7.339  15.333  0.00  0.00    +0.000 HD
ENDROOT
BRANCH   1  12
ATOM      5  N   UNL     1      42.726   4.157  11.453  0.00  0.00    +0.000 N 
ATOM      6  C   UNL     1      43.978   4.084  12.000  0.00  0.00    +0.000 A 
ATOM      7  N   UNL     1      44.397   2.898  12.367  0.00  0.00    +0.000 NA
ATOM      8  N   UNL     1      45.641   2.786  12.950  0.00  0.00    +0.000 N 
ATOM      9  C   UNL     1      46.524   3.816  13.225  0.00  0.00    +0.000 A 
ATOM     10  O   UNL     1      47.597   3.601  13.781  0.00  0.00    +0.000 OA
ATOM     11  C   UNL     1      46.089   5.136  12.802  0.00  0.00    +0.000 A 
ATOM     12  C   UNL     1      46.731   6.432  12.906  0.00  0.00    +0.000 A 
ATOM     13  C   UNL     1      45.914   7.399  12.328  0.00  0.00    +0.000 A 
ATOM     14  S   UNL     1      44.448   6.790  11.706  0.00  0.00    +0.000 S 
ATOM     15  C   UNL     1      44.850   5.224  12.199  0.00  0.00    +0.000 A 
ATOM     16  H   UNL     1      42.365   3.268  11.130  0.00  0.00    +0.000 HD
ATOM     17  H   UNL     1      42.530   4.949  10.854  0.00  0.00    +0.000 HD
ATOM     18  H   UNL     1      45.916   1.854  13.239  0.00  0.00    +0.000 HD
ENDBRANCH   1  12
BRANCH   3  19
ATOM     19  C   UNL     1      49.241   7.746  15.413  0.00  0.00    +0.000 C 
BRANCH  19  20
ATOM     20  C   UNL     1      49.880   6.654  16.231  0.00  0.00    +0.000 A 
ATOM     21  C   UNL     1      51.274   6.594  16.371  0.00  0.00    +0.000 A 
ATOM     22  C   UNL     1      51.873   5.581  17.124  0.00  0.00    +0.000 A 
ATOM     23  C   UNL     1      51.081   4.642  17.788  0.00  0.00    +0.000 A 
ATOM     24  C   UNL     1      49.697   4.661  17.610  0.00  0.00    +0.000 A 
ATOM     25  C   UNL     1      49.099   5.658  16.833  0.00  0.00    +0.000 A 
BRANCH  23  26
ATOM     26  O   UNL     1      51.574   3.623  18.573  0.00  0.00    +0.000 OA
BRANCH  26  27
ATOM     27  C   UNL     1      52.584   2.812  18.108  0.00  0.00    +0.000 A 
ATOM     28  C   UNL     1      53.933   3.159  18.085  0.00  0.00    +0.000 A 
ATOM     29  C   UNL     1      54.830   2.245  17.559  0.00  0.00    +0.000 A 
ATOM     30  N   UNL     1      54.483   1.017  17.118  0.00  0.00    +0.000 NA
ATOM     31  C   UNL     1      53.180   0.684  17.216  0.00  0.00    +0.000 A 
ATOM     32  C   UNL     1      52.202   1.536  17.699  0.00  0.00    +0.000 A 
ENDBRANCH  26  27
ENDBRANCH  23  26
ENDBRANCH  19  20
ENDBRANCH   3  19
TORSDOF 5
ENDMDL
