MODEL 1
REMARK VINA RESULT:    -7.667      0.000      0.000
REMARK INTER + INTRA:         -11.427
REMARK INTER:                 -10.580
REMARK INTRA:                  -0.847
REMARK UNBOUND:                -0.847
REMARK  Name = 
REMARK  10 active torsions:
REMARK  status: ('A' for Active; 'I' for Inactive)
REMARK    1  A    between atoms: C_1  and  C_2
REMARK    2  A    between atoms: C_2  and  C_3
REMARK    3  A    between atoms: C_2  and  C_4
REMARK    4  A    between atoms: C_2  and  C_5
REMARK    5  A    between atoms: C_7  and  O_8
REMARK    6  A    between atoms: O_8  and  C_9
REMARK    7  A    between atoms: C_9  and  C_10
REMARK    8  A    between atoms: C_14  and  C_15
REMARK    9  A    between atoms: C_15  and  N_16
REMARK   10  A    between atoms: C_19  and  C_20
REMARK                            x       y       z     vdW  Elec       q    Type
REMARK                         _______ _______ _______ _____ _____    ______ ____
ROOT
ATOM      1  C   UNL     1      46.951   6.974  12.663  0.00  0.00    +0.000 A 
ATOM      2  C   UNL     1      46.024   6.539  11.711  0.00  0.00    +0.000 A 
ATOM      3  C   UNL     1      45.448   5.275  11.818  0.00  0.00    +0.000 A 
ATOM      4  C   UNL     1      45.820   4.453  12.870  0.00  0.00    +0.000 A 
ATOM      5  C   UNL     1      46.754   4.941  13.770  0.00  0.00    +0.000 A 
ATOM      6  N   UNL     1      47.325   6.181  13.694  0.00  0.00    +0.000 NA
ENDROOT
BRANCH   5   7
ATOM      7  C   UNL     1      47.182   4.084  14.923  0.00  0.00    +0.000 C 
ATOM      8  N   UNL     1      47.081   4.668  16.157  0.00  0.00    +0.000 N 
ATOM      9  O   UNL     1      47.596   2.939  14.785  0.00  0.00    +0.000 OA
ATOM     10  H   UNL     1      46.732   5.617  16.230  0.00  0.00    +0.000 HD
ATOM     11  H   UNL     1      47.349   4.147  16.980  0.00  0.00    +0.000 HD
ENDBRANCH   5   7
BRANCH   1  13
ATOM     12  C   UNL     1      47.954   8.856  13.985  0.00  0.00    +0.000 C 
ATOM     13  C   UNL     1      47.516   8.400  12.577  0.00  0.00    +0.000 C 
ATOM     14  C   UNL     1      46.455   9.375  12.030  0.00  0.00    +0.000 C 
ATOM     15  C   UNL     1      48.745   8.472  11.648  0.00  0.00    +0.000 C 
ENDBRANCH   1  13
BRANCH   3  16
ATOM     16  O   UNL     1      44.512   4.759  10.958  0.00  0.00    +0.000 OA
BRANCH  16  17
ATOM     17  C   UNL     1      44.768   4.972   9.568  0.00  0.00    +0.000 C 
BRANCH  17  18
ATOM     18  C   UNL     1      45.389   3.754   8.938  0.00  0.00    +0.000 A 
ATOM     19  C   UNL     1      45.029   2.469   9.361  0.00  0.00    +0.000 A 
ATOM     20  C   UNL     1      45.532   1.345   8.707  0.00  0.00    +0.000 A 
ATOM     21  C   UNL     1      46.386   1.495   7.614  0.00  0.00    +0.000 A 
ATOM     22  C   UNL     1      46.756   2.771   7.170  0.00  0.00    +0.000 A 
ATOM     23  C   UNL     1      46.268   3.894   7.855  0.00  0.00    +0.000 A 
BRANCH  22  24
ATOM     24  C   UNL     1      47.656   2.947   5.973  0.00  0.00    +0.000 C 
BRANCH  24  25
ATOM     25  N   UNL     1      48.468   1.757   5.740  0.00  0.00    +0.000 NA
ATOM     26  H   UNL     1      48.643   1.673   4.740  0.00  0.00    +0.000 HD
ATOM     27  H   UNL     1      47.938   0.932   6.013  0.00  0.00    +0.000 HD
ENDBRANCH  24  25
ENDBRANCH  22  24
ENDBRANCH  17  18
ENDBRANCH  16  17
ENDBRANCH   3  16
TORSDOF 7
ENDMDL
MODEL 2
REMARK VINA RESULT:    -6.838      1.801      2.363
REMARK INTER + INTRA:         -10.283
REMARK INTER:                  -9.536
REMARK INTRA:                  -0.747
REMARK UNBOUND:                -0.847
REMARK  Name = 
REMARK  10 active torsions:
REMARK  status: ('A' for Active; 'I' for Inactive)
REMARK    1  A    between atoms: C_1  and  C_2
REMARK    2  A    between atoms: C_2  and  C_3
REMARK    3  A    between atoms: C_2  and  C_4
REMARK    4  A    between atoms: C_2  and  C_5
REMARK    5  A    between atoms: C_7  and  O_8
REMARK    6  A    between atoms: O_8  and  C_9
REMARK    7  A    between atoms: C_9  and  C_10
REMARK    8  A    between atoms: C_14  and  C_15
REMARK    9  A    between atoms: C_15  and  N_16
REMARK   10  A    between atoms: C_19  and  C_20
REMARK                            x       y       z     vdW  Elec       q    Type
REMARK                         _______ _______ _______ _____ _____    ______ ____
ROOT
ATOM      1  C   UNL     1      46.537   6.501  12.223  0.00  0.00    +0.000 A 
ATOM      2  C   UNL     1      46.610   6.349  10.835  0.00  0.00    +0.000 A 
ATOM      3  C   UNL     1      45.664   5.577  10.162  0.00  0.00    +0.000 A 
ATOM      4  C   UNL     1      44.665   4.952  10.892  0.00  0.00    +0.000 A 
ATOM      5  C   UNL     1      44.659   5.134  12.266  0.00  0.00    +0.000 A 
ATOM      6  N   UNL     1      45.568   5.895  12.947  0.00  0.00    +0.000 NA
ENDROOT
BRANCH   5   7
ATOM      7  C   UNL     1      43.594   4.477  13.090  0.00  0.00    +0.000 C 
ATOM      8  N   UNL     1      42.556   5.288  13.463  0.00  0.00    +0.000 N 
ATOM      9  O   UNL     1      43.636   3.296  13.417  0.00  0.00    +0.000 OA
ATOM     10  H   UNL     1      42.556   6.259  13.172  0.00  0.00    +0.000 HD
ATOM     11  H   UNL     1      41.801   4.911  14.017  0.00  0.00    +0.000 HD
ENDBRANCH   5   7
BRANCH   1  13
ATOM     12  C   UNL     1      48.666   7.801  11.958  0.00  0.00    +0.000 C 
ATOM     13  C   UNL     1      47.538   7.420  12.940  0.00  0.00    +0.000 C 
ATOM     14  C   UNL     1      48.145   6.713  14.168  0.00  0.00    +0.000 C 
ATOM     15  C   UNL     1      46.870   8.721  13.428  0.00  0.00    +0.000 C 
ENDBRANCH   1  13
BRANCH   3  16
ATOM     16  O   UNL     1      45.625   5.382   8.805  0.00  0.00    +0.000 OA
BRANCH  16  17
ATOM     17  C   UNL     1      44.768   4.329   8.358  0.00  0.00    +0.000 C 
BRANCH  17  18
ATOM     18  C   UNL     1      45.542   3.056   8.140  0.00  0.00    +0.000 A 
ATOM     19  C   UNL     1      45.104   1.850   8.701  0.00  0.00    +0.000 A 
ATOM     20  C   UNL     1      45.767   0.657   8.413  0.00  0.00    +0.000 A 
ATOM     21  C   UNL     1      46.864   0.656   7.551  0.00  0.00    +0.000 A 
ATOM     22  C   UNL     1      47.316   1.850   6.974  0.00  0.00    +0.000 A 
ATOM     23  C   UNL     1      46.660   3.048   7.295  0.00  0.00    +0.000 A 
BRANCH  22  24
ATOM     24  C   UNL     1      48.483   1.859   6.019  0.00  0.00    +0.000 C 
BRANCH  24  25
ATOM     25  N   UNL     1      48.237   2.753   4.891  0.00  0.00    +0.000 NA
ATOM     26  H   UNL     1      47.535   3.438   5.164  0.00  0.00    +0.000 HD
ATOM     27  H   UNL     1      47.840   2.218   4.121  0.00  0.00    +0.000 HD
ENDBRANCH  24  25
ENDBRANCH  22  24
ENDBRANCH  17  18
ENDBRANCH  16  17
ENDBRANCH   3  16
TORSDOF 7
ENDMDL
MODEL 3
REMARK VINA RESULT:    -6.650      2.135      3.503
REMARK INTER + INTRA:         -10.024
REMARK INTER:                  -9.246
REMARK INTRA:                  -0.778
REMARK UNBOUND:                -0.847
REMARK  Name = 
REMARK  10 active torsions:
REMARK  status: ('A' for Active; 'I' for Inactive)
REMARK    1  A    between atoms: C_1  and  C_2
REMARK    2  A    between atoms: C_2  and  C_3
REMARK    3  A    between atoms: C_2  and  C_4
REMARK    4  A    between atoms: C_2  and  C_5
REMARK    5  A    between atoms: C_7  and  O_8
REMARK    6  A    between atoms: O_8  and  C_9
REMARK    7  A    between atoms: C_9  and  C_10
REMARK    8  A    between atoms: C_14  and  C_15
REMARK    9  A    between atoms: C_15  and  N_16
REMARK   10  A    between atoms: C_19  and  C_20
REMARK                            x       y       z     vdW  Elec       q    Type
REMARK                         _______ _______ _______ _____ _____    ______ ____
ROOT
ATOM      1  C   UNL     1      46.977   7.742  12.280  0.00  0.00    +0.000 A 
ATOM      2  C   UNL     1      46.523   6.432  12.098  0.00  0.00    +0.000 A 
ATOM      3  C   UNL     1      45.246   6.193  11.593  0.00  0.00    +0.000 A 
ATOM      4  C   UNL     1      44.431   7.273  11.291  0.00  0.00    +0.000 A 
ATOM      5  C   UNL     1      44.937   8.545  11.508  0.00  0.00    +0.000 A 
ATOM      6  N   UNL     1      46.189   8.804  11.991  0.00  0.00    +0.000 NA
ENDROOT
BRANCH   5   7
ATOM      7  C   UNL     1      44.088   9.738  11.193  0.00  0.00    +0.000 C 
ATOM      8  N   UNL     1      43.707  10.489  12.272  0.00  0.00    +0.000 N 
ATOM      9  O   UNL     1      43.749  10.033  10.052  0.00  0.00    +0.000 OA
ATOM     10  H   UNL     1      44.009  10.214  13.199  0.00  0.00    +0.000 HD
ATOM     11  H   UNL     1      43.136  11.310  12.132  0.00  0.00    +0.000 HD
ENDBRANCH   5   7
BRANCH   1  13
ATOM     12  C   UNL     1      49.387   7.760  11.584  0.00  0.00    +0.000 C 
ATOM     13  C   UNL     1      48.415   7.989  12.761  0.00  0.00    +0.000 C 
ATOM     14  C   UNL     1      48.774   7.034  13.916  0.00  0.00    +0.000 C 
ATOM     15  C   UNL     1      48.608   9.433  13.265  0.00  0.00    +0.000 C 
ENDBRANCH   1  13
BRANCH   3  16
ATOM     16  O   UNL     1      44.712   4.954  11.351  0.00  0.00    +0.000 OA
BRANCH  16  17
ATOM     17  C   UNL     1      44.153   4.767  10.049  0.00  0.00    +0.000 C 
BRANCH  17  18
ATOM     18  C   UNL     1      44.905   3.713   9.281  0.00  0.00    +0.000 A 
ATOM     19  C   UNL     1      44.696   2.353   9.543  0.00  0.00    +0.000 A 
ATOM     20  C   UNL     1      45.318   1.380   8.762  0.00  0.00    +0.000 A 
ATOM     21  C   UNL     1      46.143   1.756   7.701  0.00  0.00    +0.000 A 
ATOM     22  C   UNL     1      46.363   3.110   7.417  0.00  0.00    +0.000 A 
ATOM     23  C   UNL     1      45.755   4.080   8.229  0.00  0.00    +0.000 A 
BRANCH  22  24
ATOM     24  C   UNL     1      47.229   3.530   6.257  0.00  0.00    +0.000 C 
BRANCH  24  25
ATOM     25  N   UNL     1      48.399   2.667   6.129  0.00  0.00    +0.000 NA
ATOM     26  H   UNL     1      48.434   2.043   6.933  0.00  0.00    +0.000 HD
ATOM     27  H   UNL     1      49.241   3.237   6.166  0.00  0.00    +0.000 HD
ENDBRANCH  24  25
ENDBRANCH  22  24
ENDBRANCH  17  18
ENDBRANCH  16  17
ENDBRANCH   3  16
TORSDOF 7
ENDMDL
MODEL 4
REMARK VINA RESULT:    -6.527      3.194      7.567
REMARK INTER + INTRA:          -9.854
REMARK INTER:                  -9.161
REMARK INTRA:                  -0.693
REMARK UNBOUND:                -0.847
REMARK  Name = 
REMARK  10 active torsions:
REMARK  status: ('A' for Active; 'I' for Inactive)
REMARK    1  A    between atoms: C_1  and  C_2
REMARK    2  A    between atoms: C_2  and  C_3
REMARK    3  A    between atoms: C_2  and  C_4
REMARK    4  A    between atoms: C_2  and  C_5
REMARK    5  A    between atoms: C_7  and  O_8
REMARK    6  A    between atoms: O_8  and  C_9
REMARK    7  A    between atoms: C_9  and  C_10
REMARK    8  A    between atoms: C_14  and  C_15
REMARK    9  A    between atoms: C_15  and  N_16
REMARK   10  A    between atoms: C_19  and  C_20
REMARK                            x       y       z     vdW  Elec       q    Type
REMARK                         _______ _______ _______ _____ _____    ______ ____
ROOT
ATOM      1  C   UNL     1      45.279   4.434  12.118  0.00  0.00    +0.000 A 
ATOM      2  C   UNL     1      45.878   3.500  12.969  0.00  0.00    +0.000 A 
ATOM      3  C   UNL     1      46.910   3.885  13.822  0.00  0.00    +0.000 A 
ATOM      4  C   UNL     1      47.343   5.202  13.801  0.00  0.00    +0.000 A 
ATOM      5  C   UNL     1      46.716   6.073  12.924  0.00  0.00    +0.000 A 
ATOM      6  N   UNL     1      45.694   5.722  12.087  0.00  0.00    +0.000 NA
ENDROOT
BRANCH   5   7
ATOM      7  C   UNL     1      47.153   7.505  12.873  0.00  0.00    +0.000 C 
ATOM      8  N   UNL     1      46.415   8.372  13.633  0.00  0.00    +0.000 N 
ATOM      9  O   UNL     1      48.103   7.889  12.200  0.00  0.00    +0.000 OA
ATOM     10  H   UNL     1      45.638   8.016  14.178  0.00  0.00    +0.000 HD
ATOM     11  H   UNL     1      46.656   9.352  13.649  0.00  0.00    +0.000 HD
ENDBRANCH   5   7
BRANCH   1  13
ATOM     12  C   UNL     1      44.593   3.714   9.815  0.00  0.00    +0.000 C 
ATOM     13  C   UNL     1      44.089   4.013  11.243  0.00  0.00    +0.000 C 
ATOM     14  C   UNL     1      43.029   5.131  11.190  0.00  0.00    +0.000 C 
ATOM     15  C   UNL     1      43.406   2.741  11.784  0.00  0.00    +0.000 C 
ENDBRANCH   1  13
BRANCH   3  16
ATOM     16  O   UNL     1      47.548   3.060  14.713  0.00  0.00    +0.000 OA
BRANCH  16  17
ATOM     17  C   UNL     1      47.419   3.423  16.089  0.00  0.00    +0.000 C 
BRANCH  17  18
ATOM     18  C   UNL     1      48.769   3.587  16.736  0.00  0.00    +0.000 A 
ATOM     19  C   UNL     1      49.085   4.754  17.442  0.00  0.00    +0.000 A 
ATOM     20  C   UNL     1      50.297   4.861  18.123  0.00  0.00    +0.000 A 
ATOM     21  C   UNL     1      51.198   3.796  18.117  0.00  0.00    +0.000 A 
ATOM     22  C   UNL     1      50.902   2.616  17.422  0.00  0.00    +0.000 A 
ATOM     23  C   UNL     1      49.692   2.533  16.716  0.00  0.00    +0.000 A 
BRANCH  22  24
ATOM     24  C   UNL     1      51.854   1.448  17.431  0.00  0.00    +0.000 C 
BRANCH  24  25
ATOM     25  N   UNL     1      51.291   0.310  18.152  0.00  0.00    +0.000 NA
ATOM     26  H   UNL     1      51.484  -0.539  17.623  0.00  0.00    +0.000 HD
ATOM     27  H   UNL     1      50.279   0.406  18.191  0.00  0.00    +0.000 HD
ENDBRANCH  24  25
ENDBRANCH  22  24
ENDBRANCH  17  18
ENDBRANCH  16  17
ENDBRANCH   3  16
TORSDOF 7
ENDMDL
MODEL 5
REMARK VINA RESULT:    -6.451      1.510      2.323
REMARK INTER + INTRA:          -9.749
REMARK INTER:                  -9.129
REMARK INTRA:                  -0.620
REMARK UNBOUND:                -0.847
REMARK  Name = 
REMARK  10 active torsions:
REMARK  status: ('A' for Active; 'I' for Inactive)
REMARK    1  A    between atoms: C_1  and  C_2
REMARK    2  A    between atoms: C_2  and  C_3
REMARK    3  A    between atoms: C_2  and  C_4
REMARK    4  A    between atoms: C_2  and  C_5
REMARK    5  A    between atoms: C_7  and  O_8
REMARK    6  A    between atoms: O_8  and  C_9
REMARK    7  A    between atoms: C_9  and  C_10
REMARK    8  A    between atoms: C_14  and  C_15
REMARK    9  A    between atoms: C_15  and  N_16
REMARK   10  A    between atoms: C_19  and  C_20
REMARK                            x       y       z     vdW  Elec       q    Type
REMARK                         _______ _______ _______ _____ _____    ______ ____
ROOT
ATOM      1  C   UNL     1      48.566   7.328  14.192  0.00  0.00    +0.000 A 
ATOM      2  C   UNL     1      48.001   7.492  12.924  0.00  0.00    +0.000 A 
ATOM      3  C   UNL     1      47.170   6.507  12.392  0.00  0.00    +0.000 A 
ATOM      4  C   UNL     1      46.928   5.361  13.132  0.00  0.00    +0.000 A 
ATOM      5  C   UNL     1      47.530   5.257  14.376  0.00  0.00    +0.000 A 
ATOM      6  N   UNL     1      48.339   6.213  14.924  0.00  0.00    +0.000 NA
ENDROOT
BRANCH   5   7
ATOM      7  C   UNL     1      47.291   4.033  15.208  0.00  0.00    +0.000 C 
ATOM      8  N   UNL     1      46.755   4.262  16.446  0.00  0.00    +0.000 N 
ATOM      9  O   UNL     1      47.554   2.900  14.819  0.00  0.00    +0.000 OA
ATOM     10  H   UNL     1      46.549   5.212  16.731  0.00  0.00    +0.000 HD
ATOM     11  H   UNL     1      46.564   3.482  17.059  0.00  0.00    +0.000 HD
ENDBRANCH   5   7
BRANCH   1  13
ATOM     12  C   UNL     1      48.723   9.810  14.525  0.00  0.00    +0.000 C 
ATOM     13  C   UNL     1      49.413   8.457  14.799  0.00  0.00    +0.000 C 
ATOM     14  C   UNL     1      50.826   8.469  14.182  0.00  0.00    +0.000 C 
ATOM     15  C   UNL     1      49.566   8.299  16.325  0.00  0.00    +0.000 C 
ENDBRANCH   1  13
BRANCH   3  16
ATOM     16  O   UNL     1      46.545   6.577  11.173  0.00  0.00    +0.000 OA
BRANCH  16  17
ATOM     17  C   UNL     1      45.198   6.098  11.143  0.00  0.00    +0.000 C 
BRANCH  17  18
ATOM     18  C   UNL     1      45.096   4.811  10.370  0.00  0.00    +0.000 A 
ATOM     19  C   UNL     1      44.350   3.736  10.868  0.00  0.00    +0.000 A 
ATOM     20  C   UNL     1      44.175   2.584  10.103  0.00  0.00    +0.000 A 
ATOM     21  C   UNL     1      44.732   2.501   8.826  0.00  0.00    +0.000 A 
ATOM     22  C   UNL     1      45.478   3.565   8.304  0.00  0.00    +0.000 A 
ATOM     23  C   UNL     1      45.672   4.708   9.096  0.00  0.00    +0.000 A 
BRANCH  22  24
ATOM     24  C   UNL     1      46.062   3.500   6.916  0.00  0.00    +0.000 C 
BRANCH  24  25
ATOM     25  N   UNL     1      47.511   3.325   6.957  0.00  0.00    +0.000 NA
ATOM     26  H   UNL     1      47.946   4.091   6.446  0.00  0.00    +0.000 HD
ATOM     27  H   UNL     1      47.759   2.469   6.467  0.00  0.00    +0.000 HD
ENDBRANCH  24  25
ENDBRANCH  22  24
ENDBRANCH  17  18
ENDBRANCH  16  17
ENDBRANCH   3  16
TORSDOF 7
ENDMDL
MODEL 6
REMARK VINA RESULT:    -6.398      3.103      7.079
REMARK INTER + INTRA:          -9.675
REMARK INTER:                  -8.917
REMARK INTRA:                  -0.758
REMARK UNBOUND:                -0.847
REMARK  Name = 
REMARK  10 active torsions:
REMARK  status: ('A' for Active; 'I' for Inactive)
REMARK    1  A    between atoms: C_1  and  C_2
REMARK    2  A    between atoms: C_2  and  C_3
REMARK    3  A    between atoms: C_2  and  C_4
REMARK    4  A    between atoms: C_2  and  C_5
REMARK    5  A    between atoms: C_7  and  O_8
REMARK    6  A    between atoms: O_8  and  C_9
REMARK    7  A    between atoms: C_9  and  C_10
REMARK    8  A    between atoms: C_14  and  C_15
REMARK    9  A    between atoms: C_15  and  N_16
REMARK   10  A    between atoms: C_19  and  C_20
REMARK                            x       y       z     vdW  Elec       q    Type
REMARK                         _______ _______ _______ _____ _____    ______ ____
ROOT
ATOM      1  C   UNL     1      46.771   6.291  13.057  0.00  0.00    +0.000 A 
ATOM      2  C   UNL     1      47.359   5.390  13.949  0.00  0.00    +0.000 A 
ATOM      3  C   UNL     1      46.986   4.047  13.939  0.00  0.00    +0.000 A 
ATOM      4  C   UNL     1      46.015   3.626  13.045  0.00  0.00    +0.000 A 
ATOM      5  C   UNL     1      45.462   4.574  12.198  0.00  0.00    +0.000 A 
ATOM      6  N   UNL     1      45.819   5.893  12.181  0.00  0.00    +0.000 NA
ENDROOT
BRANCH   5   7
ATOM      7  C   UNL     1      44.410   4.158  11.216  0.00  0.00    +0.000 C 
ATOM      8  N   UNL     1      44.072   5.102  10.284  0.00  0.00    +0.000 N 
ATOM      9  O   UNL     1      43.880   3.053  11.233  0.00  0.00    +0.000 OA
ATOM     10  H   UNL     1      44.534   6.004  10.301  0.00  0.00    +0.000 HD
ATOM     11  H   UNL     1      43.372   4.889   9.588  0.00  0.00    +0.000 HD
ENDBRANCH   5   7
BRANCH   1  13
ATOM     12  C   UNL     1      48.047   8.049  14.311  0.00  0.00    +0.000 C 
ATOM     13  C   UNL     1      47.250   7.751  13.025  0.00  0.00    +0.000 C 
ATOM     14  C   UNL     1      46.051   8.716  12.929  0.00  0.00    +0.000 C 
ATOM     15  C   UNL     1      48.171   8.022  11.818  0.00  0.00    +0.000 C 
ENDBRANCH   1  13
BRANCH   3  16
ATOM     16  O   UNL     1      47.516   3.075  14.749  0.00  0.00    +0.000 OA
BRANCH  16  17
ATOM     17  C   UNL     1      47.455   3.341  16.152  0.00  0.00    +0.000 C 
BRANCH  17  18
ATOM     18  C   UNL     1      48.833   3.502  16.735  0.00  0.00    +0.000 A 
ATOM     19  C   UNL     1      49.207   4.696  17.364  0.00  0.00    +0.000 A 
ATOM     20  C   UNL     1      50.448   4.805  17.990  0.00  0.00    +0.000 A 
ATOM     21  C   UNL     1      51.321   3.717  18.007  0.00  0.00    +0.000 A 
ATOM     22  C   UNL     1      50.967   2.511  17.388  0.00  0.00    +0.000 A 
ATOM     23  C   UNL     1      49.727   2.423  16.735  0.00  0.00    +0.000 A 
BRANCH  22  24
ATOM     24  C   UNL     1      51.889   1.319  17.423  0.00  0.00    +0.000 C 
BRANCH  24  25
ATOM     25  N   UNL     1      51.312   0.224  18.198  0.00  0.00    +0.000 NA
ATOM     26  H   UNL     1      52.045  -0.191  18.771  0.00  0.00    +0.000 HD
ATOM     27  H   UNL     1      50.992  -0.503  17.562  0.00  0.00    +0.000 HD
ENDBRANCH  24  25
ENDBRANCH  22  24
ENDBRANCH  17  18
ENDBRANCH  16  17
ENDBRANCH   3  16
TORSDOF 7
ENDMDL
MODEL 7
REMARK VINA RESULT:    -6.199      2.942      6.044
REMARK INTER + INTRA:          -9.401
REMARK INTER:                  -8.637
REMARK INTRA:                  -0.763
REMARK UNBOUND:                -0.847
REMARK  Name = 
REMARK  10 active torsions:
REMARK  status: ('A' for Active; 'I' for Inactive)
REMARK    1  A    between atoms: C_1  and  C_2
REMARK    2  A    between atoms: C_2  and  C_3
REMARK    3  A    between atoms: C_2  and  C_4
REMARK    4  A    between atoms: C_2  and  C_5
REMARK    5  A    between atoms: C_7  and  O_8
REMARK    6  A    between atoms: O_8  and  C_9
REMARK    7  A    between atoms: C_9  and  C_10
REMARK    8  A    between atoms: C_14  and  C_15
REMARK    9  A    between atoms: C_15  and  N_16
REMARK   10  A    between atoms: C_19  and  C_20
REMARK                            x       y       z     vdW  Elec       q    Type
REMARK                         _______ _______ _______ _____ _____    ______ ____
ROOT
ATOM      1  C   UNL     1      45.013   4.916  12.107  0.00  0.00    +0.000 A 
ATOM      2  C   UNL     1      45.663   6.016  11.541  0.00  0.00    +0.000 A 
ATOM      3  C   UNL     1      46.854   6.488  12.090  0.00  0.00    +0.000 A 
ATOM      4  C   UNL     1      47.371   5.861  13.213  0.00  0.00    +0.000 A 
ATOM      5  C   UNL     1      46.668   4.785  13.732  0.00  0.00    +0.000 A 
ATOM      6  N   UNL     1      45.506   4.296  13.205  0.00  0.00    +0.000 NA
ENDROOT
BRANCH   5   7
ATOM      7  C   UNL     1      47.195   4.079  14.944  0.00  0.00    +0.000 C 
ATOM      8  N   UNL     1      47.158   4.801  16.106  0.00  0.00    +0.000 N 
ATOM      9  O   UNL     1      47.632   2.933  14.912  0.00  0.00    +0.000 OA
ATOM     10  H   UNL     1      46.788   5.744  16.093  0.00  0.00    +0.000 HD
ATOM     11  H   UNL     1      47.494   4.386  16.964  0.00  0.00    +0.000 HD
ENDBRANCH   5   7
BRANCH   1  13
ATOM     12  C   UNL     1      43.954   4.314   9.914  0.00  0.00    +0.000 C 
ATOM     13  C   UNL     1      43.745   4.357  11.442  0.00  0.00    +0.000 C 
ATOM     14  C   UNL     1      42.524   5.240  11.768  0.00  0.00    +0.000 C 
ATOM     15  C   UNL     1      43.433   2.925  11.922  0.00  0.00    +0.000 C 
ENDBRANCH   1  13
BRANCH   3  16
ATOM     16  O   UNL     1      47.587   7.539  11.601  0.00  0.00    +0.000 OA
BRANCH  16  17
ATOM     17  C   UNL     1      48.235   8.349  12.585  0.00  0.00    +0.000 C 
BRANCH  17  18
ATOM     18  C   UNL     1      49.710   8.466  12.304  0.00  0.00    +0.000 A 
ATOM     19  C   UNL     1      50.547   9.175  13.174  0.00  0.00    +0.000 A 
ATOM     20  C   UNL     1      51.926   9.197  12.965  0.00  0.00    +0.000 A 
ATOM     21  C   UNL     1      52.482   8.497  11.893  0.00  0.00    +0.000 A 
ATOM     22  C   UNL     1      51.664   7.777  11.013  0.00  0.00    +0.000 A 
ATOM     23  C   UNL     1      50.275   7.788  11.217  0.00  0.00    +0.000 A 
BRANCH  22  24
ATOM     24  C   UNL     1      52.254   6.994   9.868  0.00  0.00    +0.000 C 
BRANCH  24  25
ATOM     25  N   UNL     1      53.291   6.077  10.331  0.00  0.00    +0.000 NA
ATOM     26  H   UNL     1      53.397   6.185  11.338  0.00  0.00    +0.000 HD
ATOM     27  H   UNL     1      54.182   6.341   9.914  0.00  0.00    +0.000 HD
ENDBRANCH  24  25
ENDBRANCH  22  24
ENDBRANCH  17  18
ENDBRANCH  16  17
ENDBRANCH   3  16
TORSDOF 7
ENDMDL
MODEL 8
REMARK VINA RESULT:    -6.174      3.967      6.239
REMARK INTER + INTRA:          -9.367
REMARK INTER:                  -8.711
REMARK INTRA:                  -0.656
REMARK UNBOUND:                -0.847
REMARK  Name = 
REMARK  10 active torsions:
REMARK  status: ('A' for Active; 'I' for Inactive)
REMARK    1  A    between atoms: C_1  and  C_2
REMARK    2  A    between atoms: C_2  and  C_3
REMARK    3  A    between atoms: C_2  and  C_4
REMARK    4  A    between atoms: C_2  and  C_5
REMARK    5  A    between atoms: C_7  and  O_8
REMARK    6  A    between atoms: O_8  and  C_9
REMARK    7  A    between atoms: C_9  and  C_10
REMARK    8  A    between atoms: C_14  and  C_15
REMARK    9  A    between atoms: C_15  and  N_16
REMARK   10  A    between atoms: C_19  and  C_20
REMARK                            x       y       z     vdW  Elec       q    Type
REMARK                         _______ _______ _______ _____ _____    ______ ____
ROOT
ATOM      1  C   UNL     1      48.608   5.008  18.647  0.00  0.00    +0.000 A 
ATOM      2  C   UNL     1      47.579   5.016  17.701  0.00  0.00    +0.000 A 
ATOM      3  C   UNL     1      47.576   4.093  16.656  0.00  0.00    +0.000 A 
ATOM      4  C   UNL     1      48.616   3.182  16.562  0.00  0.00    +0.000 A 
ATOM      5  C   UNL     1      49.612   3.238  17.524  0.00  0.00    +0.000 A 
ATOM      6  N   UNL     1      49.630   4.125  18.564  0.00  0.00    +0.000 NA
ENDROOT
BRANCH   5   7
ATOM      7  C   UNL     1      50.753   2.269  17.459  0.00  0.00    +0.000 C 
ATOM      8  N   UNL     1      51.821   2.566  18.261  0.00  0.00    +0.000 N 
ATOM      9  O   UNL     1      50.744   1.275  16.741  0.00  0.00    +0.000 OA
ATOM     10  H   UNL     1      51.791   3.395  18.842  0.00  0.00    +0.000 HD
ATOM     11  H   UNL     1      52.625   1.954  18.270  0.00  0.00    +0.000 HD
ENDBRANCH   5   7
BRANCH   1  13
ATOM     12  C   UNL     1      49.945   6.619  20.029  0.00  0.00    +0.000 C 
ATOM     13  C   UNL     1      48.555   5.977  19.837  0.00  0.00    +0.000 C 
ATOM     14  C   UNL     1      48.150   5.235  21.127  0.00  0.00    +0.000 C 
ATOM     15  C   UNL     1      47.534   7.110  19.605  0.00  0.00    +0.000 C 
ENDBRANCH   1  13
BRANCH   3  16
ATOM     16  O   UNL     1      46.605   3.995  15.693  0.00  0.00    +0.000 OA
BRANCH  16  17
ATOM     17  C   UNL     1      47.078   3.777  14.361  0.00  0.00    +0.000 C 
BRANCH  17  18
ATOM     18  C   UNL     1      46.336   4.638  13.374  0.00  0.00    +0.000 A 
ATOM     19  C   UNL     1      46.936   5.780  12.831  0.00  0.00    +0.000 A 
ATOM     20  C   UNL     1      46.285   6.517  11.843  0.00  0.00    +0.000 A 
ATOM     21  C   UNL     1      45.034   6.110  11.376  0.00  0.00    +0.000 A 
ATOM     22  C   UNL     1      44.417   4.967  11.901  0.00  0.00    +0.000 A 
ATOM     23  C   UNL     1      45.069   4.251  12.917  0.00  0.00    +0.000 A 
BRANCH  22  24
ATOM     24  C   UNL     1      43.079   4.501  11.387  0.00  0.00    +0.000 C 
BRANCH  24  25
ATOM     25  N   UNL     1      42.966   3.046  11.445  0.00  0.00    +0.000 NA
ATOM     26  H   UNL     1      42.021   2.804  11.738  0.00  0.00    +0.000 HD
ATOM     27  H   UNL     1      43.594   2.691  12.163  0.00  0.00    +0.000 HD
ENDBRANCH  24  25
ENDBRANCH  22  24
ENDBRANCH  17  18
ENDBRANCH  16  17
ENDBRANCH   3  16
TORSDOF 7
ENDMDL
MODEL 9
REMARK VINA RESULT:    -6.006      3.997      7.107
REMARK INTER + INTRA:          -9.135
REMARK INTER:                  -8.363
REMARK INTRA:                  -0.772
REMARK UNBOUND:                -0.847
REMARK  Name = 
REMARK  10 active torsions:
REMARK  status: ('A' for Active; 'I' for Inactive)
REMARK    1  A    between atoms: C_1  and  C_2
REMARK    2  A    between atoms: C_2  and  C_3
REMARK    3  A    between atoms: C_2  and  C_4
REMARK    4  A    between atoms: C_2  and  C_5
REMARK    5  A    between atoms: C_7  and  O_8
REMARK    6  A    between atoms: O_8  and  C_9
REMARK    7  A    between atoms: C_9  and  C_10
REMARK    8  A    between atoms: C_14  and  C_15
REMARK    9  A    between atoms: C_15  and  N_16
REMARK   10  A    between atoms: C_19  and  C_20
REMARK                            x       y       z     vdW  Elec       q    Type
REMARK                         _______ _______ _______ _____ _____    ______ ____
ROOT
ATOM      1  C   UNL     1      46.825   6.862  13.059  0.00  0.00    +0.000 A 
ATOM      2  C   UNL     1      47.424   5.827  13.783  0.00  0.00    +0.000 A 
ATOM      3  C   UNL     1      46.730   4.641  14.021  0.00  0.00    +0.000 A 
ATOM      4  C   UNL     1      45.435   4.514  13.543  0.00  0.00    +0.000 A 
ATOM      5  C   UNL     1      44.897   5.583  12.845  0.00  0.00    +0.000 A 
ATOM      6  N   UNL     1      45.561   6.750  12.590  0.00  0.00    +0.000 NA
ENDROOT
BRANCH   5   7
ATOM      7  C   UNL     1      43.500   5.484  12.311  0.00  0.00    +0.000 C 
ATOM      8  N   UNL     1      43.344   5.864  11.005  0.00  0.00    +0.000 N 
ATOM      9  O   UNL     1      42.554   5.093  12.985  0.00  0.00    +0.000 OA
ATOM     10  H   UNL     1      44.150   6.180  10.479  0.00  0.00    +0.000 HD
ATOM     11  H   UNL     1      42.429   5.819  10.578  0.00  0.00    +0.000 HD
ENDBRANCH   5   7
BRANCH   1  13
ATOM     12  C   UNL     1      48.338   8.619  14.018  0.00  0.00    +0.000 C 
ATOM     13  C   UNL     1      47.631   8.129  12.736  0.00  0.00    +0.000 C 
ATOM     14  C   UNL     1      46.707   9.242  12.203  0.00  0.00    +0.000 C 
ATOM     15  C   UNL     1      48.711   7.861  11.668  0.00  0.00    +0.000 C 
ENDBRANCH   1  13
BRANCH   3  16
ATOM     16  O   UNL     1      47.229   3.556  14.694  0.00  0.00    +0.000 OA
BRANCH  16  17
ATOM     17  C   UNL     1      47.172   3.635  16.120  0.00  0.00    +0.000 C 
BRANCH  17  18
ATOM     18  C   UNL     1      48.541   3.479  16.728  0.00  0.00    +0.000 A 
ATOM     19  C   UNL     1      49.166   2.227  16.766  0.00  0.00    +0.000 A 
ATOM     20  C   UNL     1      50.473   2.105  17.238  0.00  0.00    +0.000 A 
ATOM     21  C   UNL     1      51.171   3.236  17.662  0.00  0.00    +0.000 A 
ATOM     22  C   UNL     1      50.568   4.500  17.628  0.00  0.00    +0.000 A 
ATOM     23  C   UNL     1      49.242   4.605  17.179  0.00  0.00    +0.000 A 
BRANCH  22  24
ATOM     24  C   UNL     1      51.320   5.734  18.057  0.00  0.00    +0.000 C 
BRANCH  24  25
ATOM     25  N   UNL     1      50.730   6.327  19.253  0.00  0.00    +0.000 NA
ATOM     26  H   UNL     1      49.834   5.875  19.432  0.00  0.00    +0.000 HD
ATOM     27  H   UNL     1      50.531   7.309  19.076  0.00  0.00    +0.000 HD
ENDBRANCH  24  25
ENDBRANCH  22  24
ENDBRANCH  17  18
ENDBRANCH  16  17
ENDBRANCH   3  16
TORSDOF 7
ENDMDL
