MODEL 1
REMARK VINA RESULT:    -7.785      0.000      0.000
REMARK INTER + INTRA:         -10.700
REMARK INTER:                 -10.061
REMARK INTRA:                  -0.639
REMARK UNBOUND:                -0.639
REMARK  Name = 
REMARK  6 active torsions:
REMARK  status: ('A' for Active; 'I' for Inactive)
REMARK    1  A    between atoms: C_1  and  C_2
REMARK    2  A    between atoms: C_4  and  C_5
REMARK    3  A    between atoms: C_10  and  N_11
REMARK    4  A    between atoms: N_11  and  C_12
REMARK    5  A    between atoms: C_12  and  C_13
REMARK    6  A    between atoms: C_13  and  C_14
REMARK                            x       y       z     vdW  Elec       q    Type
REMARK                         _______ _______ _______ _____ _____    ______ ____
ROOT
ATOM      1  C   UNL     1      45.073   7.315  11.451  0.00  0.00    +0.000 C 
ATOM      2  C   UNL     1      45.306   5.909  11.923  0.00  0.00    +0.000 A 
ATOM      3  C   UNL     1      46.137   5.692  13.039  0.00  0.00    +0.000 A 
ATOM      4  C   UNL     1      46.371   4.402  13.511  0.00  0.00    +0.000 A 
ATOM      5  C   UNL     1      45.760   3.371  12.826  0.00  0.00    +0.000 A 
ATOM      6  N   UNL     1      44.935   3.547  11.763  0.00  0.00    +0.000 NA
ATOM      7  C   UNL     1      44.696   4.800  11.318  0.00  0.00    +0.000 A 
ENDROOT
BRANCH   4   8
ATOM      8  C   UNL     1      47.214   4.210  14.715  0.00  0.00    +0.000 C 
ATOM      9  N   UNL     1      47.552   5.292  15.478  0.00  0.00    +0.000 N 
ATOM     10  O   UNL     1      47.621   3.095  15.030  0.00  0.00    +0.000 OA
ATOM     11  H   UNL     1      47.288   6.248  15.304  0.00  0.00    +0.000 HD
ATOM     12  H   UNL     1      48.151   5.111  16.274  0.00  0.00    +0.000 HD
ENDBRANCH   4   8
BRANCH   7  13
ATOM     13  N   UNL     1      43.799   4.980  10.246  0.00  0.00    +0.000 N 
ATOM     14  H   UNL     1      43.729   5.970  10.034  0.00  0.00    +0.000 HD
BRANCH  13  15
ATOM     15  C   UNL     1      44.097   4.139   9.077  0.00  0.00    +0.000 C 
BRANCH  15  16
ATOM     16  C   UNL     1      45.429   4.523   8.421  0.00  0.00    +0.000 C 
BRANCH  16  17
ATOM     17  C   UNL     1      46.105   3.320   7.796  0.00  0.00    +0.000 A 
ATOM     18  C   UNL     1      46.772   3.447   6.568  0.00  0.00    +0.000 A 
ATOM     19  C   UNL     1      47.362   2.336   5.961  0.00  0.00    +0.000 A 
ATOM     20  C   UNL     1      47.291   1.086   6.572  0.00  0.00    +0.000 A 
ATOM     21  C   UNL     1      46.630   0.945   7.791  0.00  0.00    +0.000 A 
ATOM     22  C   UNL     1      46.039   2.057   8.399  0.00  0.00    +0.000 A 
ENDBRANCH  16  17
ENDBRANCH  15  16
ENDBRANCH  13  15
ENDBRANCH   7  13
TORSDOF 5
ENDMDL
MODEL 2
REMARK VINA RESULT:    -7.664      1.399      2.140
REMARK INTER + INTRA:         -10.543
REMARK INTER:                  -9.935
REMARK INTRA:                  -0.608
REMARK UNBOUND:                -0.639
REMARK  Name = 
REMARK  6 active torsions:
REMARK  status: ('A' for Active; 'I' for Inactive)
REMARK    1  A    between atoms: C_1  and  C_2
REMARK    2  A    between atoms: C_4  and  C_5
REMARK    3  A    between atoms: C_10  and  N_11
REMARK    4  A    between atoms: N_11  and  C_12
REMARK    5  A    between atoms: C_12  and  C_13
REMARK    6  A    between atoms: C_13  and  C_14
REMARK                            x       y       z     vdW  Elec       q    Type
REMARK                         _______ _______ _______ _____ _____    ______ ____
ROOT
ATOM      1  C   UNL     1      43.493   3.677  12.862  0.00  0.00    +0.000 C 
ATOM      2  C   UNL     1      44.598   4.621  12.483  0.00  0.00    +0.000 A 
ATOM      3  C   UNL     1      45.651   4.840  13.393  0.00  0.00    +0.000 A 
ATOM      4  C   UNL     1      46.697   5.704  13.073  0.00  0.00    +0.000 A 
ATOM      5  C   UNL     1      46.634   6.326  11.844  0.00  0.00    +0.000 A 
ATOM      6  N   UNL     1      45.648   6.119  10.935  0.00  0.00    +0.000 NA
ATOM      7  C   UNL     1      44.643   5.268  11.239  0.00  0.00    +0.000 A 
ENDROOT
BRANCH   4   8
ATOM      8  C   UNL     1      47.813   5.879  14.033  0.00  0.00    +0.000 C 
ATOM      9  N   UNL     1      47.661   5.461  15.325  0.00  0.00    +0.000 N 
ATOM     10  O   UNL     1      48.868   6.403  13.686  0.00  0.00    +0.000 OA
ATOM     11  H   UNL     1      46.838   5.035  15.720  0.00  0.00    +0.000 HD
ATOM     12  H   UNL     1      48.443   5.627  15.946  0.00  0.00    +0.000 HD
ENDBRANCH   4   8
BRANCH   7  13
ATOM     13  N   UNL     1      43.649   5.018  10.273  0.00  0.00    +0.000 N 
ATOM     14  H   UNL     1      43.105   5.863  10.129  0.00  0.00    +0.000 HD
BRANCH  13  15
ATOM     15  C   UNL     1      44.166   4.424   9.031  0.00  0.00    +0.000 C 
BRANCH  15  16
ATOM     16  C   UNL     1      44.689   2.999   9.253  0.00  0.00    +0.000 C 
BRANCH  16  17
ATOM     17  C   UNL     1      45.664   2.592   8.167  0.00  0.00    +0.000 A 
ATOM     18  C   UNL     1      46.251   1.318   8.191  0.00  0.00    +0.000 A 
ATOM     19  C   UNL     1      47.183   0.946   7.219  0.00  0.00    +0.000 A 
ATOM     20  C   UNL     1      47.542   1.844   6.216  0.00  0.00    +0.000 A 
ATOM     21  C   UNL     1      46.968   3.113   6.182  0.00  0.00    +0.000 A 
ATOM     22  C   UNL     1      46.035   3.486   7.154  0.00  0.00    +0.000 A 
ENDBRANCH  16  17
ENDBRANCH  15  16
ENDBRANCH  13  15
ENDBRANCH   7  13
TORSDOF 5
ENDMDL
MODEL 3
REMARK VINA RESULT:    -7.309      2.112      2.988
REMARK INTER + INTRA:         -10.084
REMARK INTER:                  -9.619
REMARK INTRA:                  -0.466
REMARK UNBOUND:                -0.639
REMARK  Name = 
REMARK  6 active torsions:
REMARK  status: ('A' for Active; 'I' for Inactive)
REMARK    1  A    between atoms: C_1  and  C_2
REMARK    2  A    between atoms: C_4  and  C_5
REMARK    3  A    between atoms: C_10  and  N_11
REMARK    4  A    between atoms: N_11  and  C_12
REMARK    5  A    between atoms: C_12  and  C_13
REMARK    6  A    between atoms: C_13  and  C_14
REMARK                            x       y       z     vdW  Elec       q    Type
REMARK                         _______ _______ _______ _____ _____    ______ ____
ROOT
ATOM      1  C   UNL     1      46.700   3.657  13.562  0.00  0.00    +0.000 C 
ATOM      2  C   UNL     1      46.005   4.825  12.923  0.00  0.00    +0.000 A 
ATOM      3  C   UNL     1      46.409   6.130  13.266  0.00  0.00    +0.000 A 
ATOM      4  C   UNL     1      45.792   7.239  12.688  0.00  0.00    +0.000 A 
ATOM      5  C   UNL     1      44.777   6.985  11.789  0.00  0.00    +0.000 A 
ATOM      6  N   UNL     1      44.381   5.742  11.419  0.00  0.00    +0.000 NA
ATOM      7  C   UNL     1      44.992   4.668  11.966  0.00  0.00    +0.000 A 
ENDROOT
BRANCH   4   8
ATOM      8  C   UNL     1      46.271   8.598  13.036  0.00  0.00    +0.000 C 
ATOM      9  N   UNL     1      46.908   8.803  14.226  0.00  0.00    +0.000 N 
ATOM     10  O   UNL     1      46.091   9.545  12.273  0.00  0.00    +0.000 OA
ATOM     11  H   UNL     1      47.093   8.106  14.930  0.00  0.00    +0.000 HD
ATOM     12  H   UNL     1      47.192   9.754  14.427  0.00  0.00    +0.000 HD
ENDBRANCH   4   8
BRANCH   7  13
ATOM     13  N   UNL     1      44.611   3.380  11.541  0.00  0.00    +0.000 N 
ATOM     14  H   UNL     1      43.944   2.995  12.203  0.00  0.00    +0.000 HD
BRANCH  13  15
ATOM     15  C   UNL     1      44.160   3.327  10.142  0.00  0.00    +0.000 C 
BRANCH  15  16
ATOM     16  C   UNL     1      44.566   2.015   9.459  0.00  0.00    +0.000 C 
BRANCH  16  17
ATOM     17  C   UNL     1      45.637   2.244   8.414  0.00  0.00    +0.000 A 
ATOM     18  C   UNL     1      45.795   3.512   7.834  0.00  0.00    +0.000 A 
ATOM     19  C   UNL     1      46.751   3.725   6.839  0.00  0.00    +0.000 A 
ATOM     20  C   UNL     1      47.558   2.673   6.408  0.00  0.00    +0.000 A 
ATOM     21  C   UNL     1      47.410   1.408   6.974  0.00  0.00    +0.000 A 
ATOM     22  C   UNL     1      46.453   1.194   7.971  0.00  0.00    +0.000 A 
ENDBRANCH  16  17
ENDBRANCH  15  16
ENDBRANCH  13  15
ENDBRANCH   7  13
TORSDOF 5
ENDMDL
MODEL 4
REMARK VINA RESULT:    -7.274      3.047      6.387
REMARK INTER + INTRA:         -10.039
REMARK INTER:                  -9.399
REMARK INTRA:                  -0.640
REMARK UNBOUND:                -0.639
REMARK  Name = 
REMARK  6 active torsions:
REMARK  status: ('A' for Active; 'I' for Inactive)
REMARK    1  A    between atoms: C_1  and  C_2
REMARK    2  A    between atoms: C_4  and  C_5
REMARK    3  A    between atoms: C_10  and  N_11
REMARK    4  A    between atoms: N_11  and  C_12
REMARK    5  A    between atoms: C_12  and  C_13
REMARK    6  A    between atoms: C_13  and  C_14
REMARK                            x       y       z     vdW  Elec       q    Type
REMARK                         _______ _______ _______ _____ _____    ______ ____
ROOT
ATOM      1  C   UNL     1      43.989   2.233  10.438  0.00  0.00    +0.000 C 
ATOM      2  C   UNL     1      44.892   2.911   9.447  0.00  0.00    +0.000 A 
ATOM      3  C   UNL     1      45.745   2.122   8.651  0.00  0.00    +0.000 A 
ATOM      4  C   UNL     1      46.592   2.714   7.716  0.00  0.00    +0.000 A 
ATOM      5  C   UNL     1      46.553   4.090   7.628  0.00  0.00    +0.000 A 
ATOM      6  N   UNL     1      45.727   4.877   8.362  0.00  0.00    +0.000 NA
ATOM      7  C   UNL     1      44.893   4.300   9.256  0.00  0.00    +0.000 A 
ENDROOT
BRANCH   4   8
ATOM      8  C   UNL     1      47.445   1.853   6.861  0.00  0.00    +0.000 C 
ATOM      9  N   UNL     1      48.495   2.407   6.184  0.00  0.00    +0.000 N 
ATOM     10  O   UNL     1      47.214   0.652   6.745  0.00  0.00    +0.000 OA
ATOM     11  H   UNL     1      48.764   3.377   6.194  0.00  0.00    +0.000 HD
ATOM     12  H   UNL     1      49.029   1.781   5.595  0.00  0.00    +0.000 HD
ENDBRANCH   4   8
BRANCH   7  13
ATOM     13  N   UNL     1      44.002   5.117   9.979  0.00  0.00    +0.000 N 
ATOM     14  H   UNL     1      43.290   4.534  10.408  0.00  0.00    +0.000 HD
BRANCH  13  15
ATOM     15  C   UNL     1      44.668   6.033  10.917  0.00  0.00    +0.000 C 
BRANCH  15  16
ATOM     16  C   UNL     1      45.458   5.276  11.992  0.00  0.00    +0.000 C 
BRANCH  16  17
ATOM     17  C   UNL     1      46.711   6.028  12.390  0.00  0.00    +0.000 A 
ATOM     18  C   UNL     1      47.247   5.871  13.678  0.00  0.00    +0.000 A 
ATOM     19  C   UNL     1      48.377   6.591  14.070  0.00  0.00    +0.000 A 
ATOM     20  C   UNL     1      48.983   7.479  13.183  0.00  0.00    +0.000 A 
ATOM     21  C   UNL     1      48.460   7.646  11.902  0.00  0.00    +0.000 A 
ATOM     22  C   UNL     1      47.328   6.925  11.508  0.00  0.00    +0.000 A 
ENDBRANCH  16  17
ENDBRANCH  15  16
ENDBRANCH  13  15
ENDBRANCH   7  13
TORSDOF 5
ENDMDL
MODEL 5
REMARK VINA RESULT:    -6.800      1.946      2.850
REMARK INTER + INTRA:          -9.427
REMARK INTER:                  -8.807
REMARK INTRA:                  -0.619
REMARK UNBOUND:                -0.639
REMARK  Name = 
REMARK  6 active torsions:
REMARK  status: ('A' for Active; 'I' for Inactive)
REMARK    1  A    between atoms: C_1  and  C_2
REMARK    2  A    between atoms: C_4  and  C_5
REMARK    3  A    between atoms: C_10  and  N_11
REMARK    4  A    between atoms: N_11  and  C_12
REMARK    5  A    between atoms: C_12  and  C_13
REMARK    6  A    between atoms: C_13  and  C_14
REMARK                            x       y       z     vdW  Elec       q    Type
REMARK                         _______ _______ _______ _____ _____    ______ ____
ROOT
ATOM      1  C   UNL     1      44.365   7.819  11.420  0.00  0.00    +0.000 C 
ATOM      2  C   UNL     1      45.165   6.867  12.261  0.00  0.00    +0.000 A 
ATOM      3  C   UNL     1      46.533   7.126  12.471  0.00  0.00    +0.000 A 
ATOM      4  C   UNL     1      47.306   6.269  13.253  0.00  0.00    +0.000 A 
ATOM      5  C   UNL     1      46.666   5.170  13.787  0.00  0.00    +0.000 A 
ATOM      6  N   UNL     1      45.345   4.904  13.625  0.00  0.00    +0.000 NA
ATOM      7  C   UNL     1      44.593   5.746  12.881  0.00  0.00    +0.000 A 
ENDROOT
BRANCH   4   8
ATOM      8  C   UNL     1      48.733   6.593  13.492  0.00  0.00    +0.000 C 
ATOM      9  N   UNL     1      49.527   6.951  12.439  0.00  0.00    +0.000 N 
ATOM     10  O   UNL     1      49.213   6.534  14.621  0.00  0.00    +0.000 OA
ATOM     11  H   UNL     1      49.243   7.016  11.475  0.00  0.00    +0.000 HD
ATOM     12  H   UNL     1      50.499   7.137  12.652  0.00  0.00    +0.000 HD
ENDBRANCH   4   8
BRANCH   7  13
ATOM     13  N   UNL     1      43.213   5.493  12.757  0.00  0.00    +0.000 N 
ATOM     14  H   UNL     1      42.698   6.340  12.979  0.00  0.00    +0.000 HD
BRANCH  13  15
ATOM     15  C   UNL     1      42.835   4.885  11.473  0.00  0.00    +0.000 C 
BRANCH  15  16
ATOM     16  C   UNL     1      43.403   3.468  11.321  0.00  0.00    +0.000 C 
BRANCH  16  17
ATOM     17  C   UNL     1      44.278   3.352  10.090  0.00  0.00    +0.000 A 
ATOM     18  C   UNL     1      44.628   2.087   9.593  0.00  0.00    +0.000 A 
ATOM     19  C   UNL     1      45.469   1.967   8.485  0.00  0.00    +0.000 A 
ATOM     20  C   UNL     1      45.972   3.108   7.862  0.00  0.00    +0.000 A 
ATOM     21  C   UNL     1      45.633   4.370   8.346  0.00  0.00    +0.000 A 
ATOM     22  C   UNL     1      44.792   4.491   9.456  0.00  0.00    +0.000 A 
ENDBRANCH  16  17
ENDBRANCH  15  16
ENDBRANCH  13  15
ENDBRANCH   7  13
TORSDOF 5
ENDMDL
MODEL 6
REMARK VINA RESULT:    -6.609      2.367      3.611
REMARK INTER + INTRA:          -9.179
REMARK INTER:                  -8.502
REMARK INTRA:                  -0.677
REMARK UNBOUND:                -0.639
REMARK  Name = 
REMARK  6 active torsions:
REMARK  status: ('A' for Active; 'I' for Inactive)
REMARK    1  A    between atoms: C_1  and  C_2
REMARK    2  A    between atoms: C_4  and  C_5
REMARK    3  A    between atoms: C_10  and  N_11
REMARK    4  A    between atoms: N_11  and  C_12
REMARK    5  A    between atoms: C_12  and  C_13
REMARK    6  A    between atoms: C_13  and  C_14
REMARK                            x       y       z     vdW  Elec       q    Type
REMARK                         _______ _______ _______ _____ _____    ______ ____
ROOT
ATOM      1  C   UNL     1      47.097   3.727  14.027  0.00  0.00    +0.000 C 
ATOM      2  C   UNL     1      46.450   5.004  13.575  0.00  0.00    +0.000 A 
ATOM      3  C   UNL     1      47.232   6.172  13.491  0.00  0.00    +0.000 A 
ATOM      4  C   UNL     1      46.668   7.375  13.068  0.00  0.00    +0.000 A 
ATOM      5  C   UNL     1      45.324   7.354  12.756  0.00  0.00    +0.000 A 
ATOM      6  N   UNL     1      44.549   6.241  12.803  0.00  0.00    +0.000 NA
ATOM      7  C   UNL     1      45.101   5.072  13.196  0.00  0.00    +0.000 A 
ENDROOT
BRANCH   4   8
ATOM      8  C   UNL     1      47.528   8.577  12.947  0.00  0.00    +0.000 C 
ATOM      9  N   UNL     1      47.446   9.561  13.891  0.00  0.00    +0.000 N 
ATOM     10  O   UNL     1      48.303   8.705  12.003  0.00  0.00    +0.000 OA
ATOM     11  H   UNL     1      46.837   9.567  14.693  0.00  0.00    +0.000 HD
ATOM     12  H   UNL     1      48.035  10.372  13.747  0.00  0.00    +0.000 HD
ENDBRANCH   4   8
BRANCH   7  13
ATOM     13  N   UNL     1      44.305   3.911  13.195  0.00  0.00    +0.000 N 
ATOM     14  H   UNL     1      43.906   3.780  14.119  0.00  0.00    +0.000 HD
BRANCH  13  15
ATOM     15  C   UNL     1      43.314   3.873  12.109  0.00  0.00    +0.000 C 
BRANCH  15  16
ATOM     16  C   UNL     1      43.495   2.643  11.211  0.00  0.00    +0.000 C 
BRANCH  16  17
ATOM     17  C   UNL     1      44.360   2.957  10.008  0.00  0.00    +0.000 A 
ATOM     18  C   UNL     1      44.963   1.917   9.285  0.00  0.00    +0.000 A 
ATOM     19  C   UNL     1      45.797   2.196   8.200  0.00  0.00    +0.000 A 
ATOM     20  C   UNL     1      46.042   3.517   7.828  0.00  0.00    +0.000 A 
ATOM     21  C   UNL     1      45.452   4.559   8.540  0.00  0.00    +0.000 A 
ATOM     22  C   UNL     1      44.616   4.281   9.626  0.00  0.00    +0.000 A 
ENDBRANCH  16  17
ENDBRANCH  15  16
ENDBRANCH  13  15
ENDBRANCH   7  13
TORSDOF 5
ENDMDL
MODEL 7
REMARK VINA RESULT:    -6.133      3.194      7.537
REMARK INTER + INTRA:          -8.565
REMARK INTER:                  -8.216
REMARK INTRA:                  -0.348
REMARK UNBOUND:                -0.639
REMARK  Name = 
REMARK  6 active torsions:
REMARK  status: ('A' for Active; 'I' for Inactive)
REMARK    1  A    between atoms: C_1  and  C_2
REMARK    2  A    between atoms: C_4  and  C_5
REMARK    3  A    between atoms: C_10  and  N_11
REMARK    4  A    between atoms: N_11  and  C_12
REMARK    5  A    between atoms: C_12  and  C_13
REMARK    6  A    between atoms: C_13  and  C_14
REMARK                            x       y       z     vdW  Elec       q    Type
REMARK                         _______ _______ _______ _____ _____    ______ ____
ROOT
ATOM      1  C   UNL     1      47.021   7.209  12.855  0.00  0.00    +0.000 C 
ATOM      2  C   UNL     1      46.387   5.853  12.735  0.00  0.00    +0.000 A 
ATOM      3  C   UNL     1      45.733   5.509  11.535  0.00  0.00    +0.000 A 
ATOM      4  C   UNL     1      45.140   4.257  11.384  0.00  0.00    +0.000 A 
ATOM      5  C   UNL     1      45.221   3.398  12.461  0.00  0.00    +0.000 A 
ATOM      6  N   UNL     1      45.864   3.689  13.620  0.00  0.00    +0.000 NA
ATOM      7  C   UNL     1      46.454   4.897  13.759  0.00  0.00    +0.000 A 
ENDROOT
BRANCH   4   8
ATOM      8  C   UNL     1      44.498   3.909  10.094  0.00  0.00    +0.000 C 
ATOM      9  N   UNL     1      44.632   4.752   9.027  0.00  0.00    +0.000 N 
ATOM     10  O   UNL     1      43.840   2.878   9.974  0.00  0.00    +0.000 OA
ATOM     11  H   UNL     1      45.133   5.625   9.018  0.00  0.00    +0.000 HD
ATOM     12  H   UNL     1      44.153   4.481   8.177  0.00  0.00    +0.000 HD
ENDBRANCH   4   8
BRANCH   7  13
ATOM     13  N   UNL     1      47.163   5.174  14.944  0.00  0.00    +0.000 N 
ATOM     14  H   UNL     1      46.768   6.001  15.382  0.00  0.00    +0.000 HD
BRANCH  13  15
ATOM     15  C   UNL     1      47.281   4.020  15.847  0.00  0.00    +0.000 C 
BRANCH  15  16
ATOM     16  C   UNL     1      47.921   4.405  17.187  0.00  0.00    +0.000 C 
BRANCH  16  17
ATOM     17  C   UNL     1      49.291   3.780  17.346  0.00  0.00    +0.000 A 
ATOM     18  C   UNL     1      49.481   2.420  17.060  0.00  0.00    +0.000 A 
ATOM     19  C   UNL     1      50.730   1.823  17.244  0.00  0.00    +0.000 A 
ATOM     20  C   UNL     1      51.803   2.576  17.719  0.00  0.00    +0.000 A 
ATOM     21  C   UNL     1      51.627   3.928  18.009  0.00  0.00    +0.000 A 
ATOM     22  C   UNL     1      50.377   4.526  17.825  0.00  0.00    +0.000 A 
ENDBRANCH  16  17
ENDBRANCH  15  16
ENDBRANCH  13  15
ENDBRANCH   7  13
TORSDOF 5
ENDMDL
MODEL 8
REMARK VINA RESULT:    -6.018      2.943      6.390
REMARK INTER + INTRA:          -8.416
REMARK INTER:                  -8.921
REMARK INTRA:                   0.505
REMARK UNBOUND:                -0.639
REMARK  Name = 
REMARK  6 active torsions:
REMARK  status: ('A' for Active; 'I' for Inactive)
REMARK    1  A    between atoms: C_1  and  C_2
REMARK    2  A    between atoms: C_4  and  C_5
REMARK    3  A    between atoms: C_10  and  N_11
REMARK    4  A    between atoms: N_11  and  C_12
REMARK    5  A    between atoms: C_12  and  C_13
REMARK    6  A    between atoms: C_13  and  C_14
REMARK                            x       y       z     vdW  Elec       q    Type
REMARK                         _______ _______ _______ _____ _____    ______ ____
ROOT
ATOM      1  C   UNL     1      45.492   5.296   9.452  0.00  0.00    +0.000 C 
ATOM      2  C   UNL     1      45.719   3.909   8.921  0.00  0.00    +0.000 A 
ATOM      3  C   UNL     1      46.430   3.748   7.716  0.00  0.00    +0.000 A 
ATOM      4  C   UNL     1      46.667   2.477   7.196  0.00  0.00    +0.000 A 
ATOM      5  C   UNL     1      46.163   1.410   7.912  0.00  0.00    +0.000 A 
ATOM      6  N   UNL     1      45.496   1.529   9.087  0.00  0.00    +0.000 NA
ATOM      7  C   UNL     1      45.282   2.762   9.599  0.00  0.00    +0.000 A 
ENDROOT
BRANCH   4   8
ATOM      8  C   UNL     1      47.457   2.338   5.949  0.00  0.00    +0.000 C 
ATOM      9  N   UNL     1      47.221   3.186   4.905  0.00  0.00    +0.000 N 
ATOM     10  O   UNL     1      48.314   1.464   5.839  0.00  0.00    +0.000 OA
ATOM     11  H   UNL     1      46.536   3.924   4.881  0.00  0.00    +0.000 HD
ATOM     12  H   UNL     1      47.770   3.032   4.068  0.00  0.00    +0.000 HD
ENDBRANCH   4   8
BRANCH   7  13
ATOM     13  N   UNL     1      44.633   2.877  10.844  0.00  0.00    +0.000 N 
ATOM     14  H   UNL     1      45.331   2.978  11.575  0.00  0.00    +0.000 HD
BRANCH  13  15
ATOM     15  C   UNL     1      43.586   3.909  10.873  0.00  0.00    +0.000 C 
BRANCH  15  16
ATOM     16  C   UNL     1      43.406   4.501  12.276  0.00  0.00    +0.000 C 
BRANCH  16  17
ATOM     17  C   UNL     1      44.627   5.287  12.706  0.00  0.00    +0.000 A 
ATOM     18  C   UNL     1      44.679   6.674  12.502  0.00  0.00    +0.000 A 
ATOM     19  C   UNL     1      45.817   7.403  12.855  0.00  0.00    +0.000 A 
ATOM     20  C   UNL     1      46.917   6.754  13.414  0.00  0.00    +0.000 A 
ATOM     21  C   UNL     1      46.879   5.376  13.620  0.00  0.00    +0.000 A 
ATOM     22  C   UNL     1      45.740   4.646  13.266  0.00  0.00    +0.000 A 
ENDBRANCH  16  17
ENDBRANCH  15  16
ENDBRANCH  13  15
ENDBRANCH   7  13
TORSDOF 5
ENDMDL
MODEL 9
REMARK VINA RESULT:    -5.839      2.111      3.451
REMARK INTER + INTRA:          -8.185
REMARK INTER:                  -7.767
REMARK INTRA:                  -0.418
REMARK UNBOUND:                -0.639
REMARK  Name = 
REMARK  6 active torsions:
REMARK  status: ('A' for Active; 'I' for Inactive)
REMARK    1  A    between atoms: C_1  and  C_2
REMARK    2  A    between atoms: C_4  and  C_5
REMARK    3  A    between atoms: C_10  and  N_11
REMARK    4  A    between atoms: N_11  and  C_12
REMARK    5  A    between atoms: C_12  and  C_13
REMARK    6  A    between atoms: C_13  and  C_14
REMARK                            x       y       z     vdW  Elec       q    Type
REMARK                         _______ _______ _______ _____ _____    ______ ____
ROOT
ATOM      1  C   UNL     1      48.387   7.219  13.273  0.00  0.00    +0.000 C 
ATOM      2  C   UNL     1      47.930   6.121  14.190  0.00  0.00    +0.000 A 
ATOM      3  C   UNL     1      48.415   6.090  15.512  0.00  0.00    +0.000 A 
ATOM      4  C   UNL     1      48.008   5.091  16.395  0.00  0.00    +0.000 A 
ATOM      5  C   UNL     1      47.130   4.149  15.902  0.00  0.00    +0.000 A 
ATOM      6  N   UNL     1      46.625   4.163  14.642  0.00  0.00    +0.000 NA
ATOM      7  C   UNL     1      47.007   5.143  13.793  0.00  0.00    +0.000 A 
ENDROOT
BRANCH   4   8
ATOM      8  C   UNL     1      48.501   5.112  17.793  0.00  0.00    +0.000 C 
ATOM      9  N   UNL     1      47.816   4.430  18.758  0.00  0.00    +0.000 N 
ATOM     10  O   UNL     1      49.510   5.744  18.097  0.00  0.00    +0.000 OA
ATOM     11  H   UNL     1      46.973   3.896  18.624  0.00  0.00    +0.000 HD
ATOM     12  H   UNL     1      48.180   4.498  19.701  0.00  0.00    +0.000 HD
ENDBRANCH   4   8
BRANCH   7  13
ATOM     13  N   UNL     1      46.441   5.182  12.504  0.00  0.00    +0.000 N 
ATOM     14  H   UNL     1      47.002   4.612  11.877  0.00  0.00    +0.000 HD
BRANCH  13  15
ATOM     15  C   UNL     1      45.006   4.862  12.476  0.00  0.00    +0.000 C 
BRANCH  15  16
ATOM     16  C   UNL     1      44.364   5.232  11.133  0.00  0.00    +0.000 C 
BRANCH  16  17
ATOM     17  C   UNL     1      44.836   4.316  10.023  0.00  0.00    +0.000 A 
ATOM     18  C   UNL     1      44.563   2.941  10.081  0.00  0.00    +0.000 A 
ATOM     19  C   UNL     1      45.030   2.081   9.084  0.00  0.00    +0.000 A 
ATOM     20  C   UNL     1      45.778   2.584   8.021  0.00  0.00    +0.000 A 
ATOM     21  C   UNL     1      46.058   3.947   7.952  0.00  0.00    +0.000 A 
ATOM     22  C   UNL     1      45.591   4.809   8.950  0.00  0.00    +0.000 A 
ENDBRANCH  16  17
ENDBRANCH  15  16
ENDBRANCH  13  15
ENDBRANCH   7  13
TORSDOF 5
ENDMDL
