MODEL 1
REMARK VINA RESULT:    -8.033      0.000      0.000
REMARK INTER + INTRA:         -10.753
REMARK INTER:                 -10.147
REMARK INTRA:                  -0.607
REMARK UNBOUND:                -0.607
REMARK  Name = 
REMARK  5 active torsions:
REMARK  status: ('A' for Active; 'I' for Inactive)
REMARK    1  A    between atoms: N_1  and  C_2
REMARK    2  A    between atoms: C_2  and  C_3
REMARK    3  A    between atoms: C_6  and  C_7
REMARK    4  A    between atoms: C_7  and  N_8
REMARK    5  A    between atoms: C_13  and  C_14
REMARK                            x       y       z     vdW  Elec       q    Type
REMARK                         _______ _______ _______ _____ _____    ______ ____
ROOT
ATOM      1  N   UNL     1      44.092   4.440  11.026  0.00  0.00    +0.000 N 
ATOM      2  C   UNL     1      43.380   3.680  11.927  0.00  0.00    +0.000 A 
ATOM      3  C   UNL     1      43.956   3.842  13.170  0.00  0.00    +0.000 A 
ATOM      4  C   UNL     1      45.060   4.720  13.020  0.00  0.00    +0.000 A 
ATOM      5  C   UNL     1      46.043   5.245  13.876  0.00  0.00    +0.000 A 
ATOM      6  C   UNL     1      47.010   6.096  13.328  0.00  0.00    +0.000 A 
ATOM      7  C   UNL     1      46.936   6.390  11.969  0.00  0.00    +0.000 A 
ATOM      8  N   UNL     1      46.015   5.911  11.101  0.00  0.00    +0.000 NA
ATOM      9  C   UNL     1      45.116   5.086  11.676  0.00  0.00    +0.000 A 
ENDROOT
BRANCH   6  10
ATOM     10  C   UNL     1      48.121   6.677  14.145  0.00  0.00    +0.000 C 
ATOM     11  F   UNL     1      47.877   7.949  14.569  0.00  0.00    +0.000 F 
ATOM     12  F   UNL     1      48.372   5.954  15.273  0.00  0.00    +0.000 F 
ATOM     13  F   UNL     1      49.301   6.730  13.468  0.00  0.00    +0.000 F 
ENDBRANCH   6  10
BRANCH   1  14
ATOM     14  C   UNL     1      43.884   4.447   9.582  0.00  0.00    +0.000 C 
BRANCH  14  18
ATOM     15  C   UNL     1      46.851   2.147   7.404  0.00  0.00    +0.000 A 
ATOM     16  C   UNL     1      45.985   1.520   8.310  0.00  0.00    +0.000 A 
ATOM     17  C   UNL     1      45.027   2.258   9.012  0.00  0.00    +0.000 A 
ATOM     18  C   UNL     1      44.919   3.644   8.833  0.00  0.00    +0.000 A 
ATOM     19  C   UNL     1      45.769   4.266   7.906  0.00  0.00    +0.000 A 
ATOM     20  C   UNL     1      46.722   3.526   7.200  0.00  0.00    +0.000 A 
BRANCH  15  21
ATOM     21  C   UNL     1      47.931   1.361   6.704  0.00  0.00    +0.000 C 
BRANCH  21  22
ATOM     22  N   UNL     1      48.409   2.027   5.498  0.00  0.00    +0.000 NA
ATOM     23  H   UNL     1      47.798   1.784   4.721  0.00  0.00    +0.000 HD
ATOM     24  H   UNL     1      49.332   1.663   5.266  0.00  0.00    +0.000 HD
ENDBRANCH  21  22
ENDBRANCH  15  21
ENDBRANCH  14  18
ENDBRANCH   1  14
TORSDOF 5
ENDMDL
MODEL 2
REMARK VINA RESULT:    -8.020      1.720      2.367
REMARK INTER + INTRA:         -10.737
REMARK INTER:                 -10.206
REMARK INTRA:                  -0.531
REMARK UNBOUND:                -0.607
REMARK  Name = 
REMARK  5 active torsions:
REMARK  status: ('A' for Active; 'I' for Inactive)
REMARK    1  A    between atoms: N_1  and  C_2
REMARK    2  A    between atoms: C_2  and  C_3
REMARK    3  A    between atoms: C_6  and  C_7
REMARK    4  A    between atoms: C_7  and  N_8
REMARK    5  A    between atoms: C_13  and  C_14
REMARK                            x       y       z     vdW  Elec       q    Type
REMARK                         _______ _______ _______ _____ _____    ______ ____
ROOT
ATOM      1  N   UNL     1      44.878   3.600  11.512  0.00  0.00    +0.000 N 
ATOM      2  C   UNL     1      45.618   2.883  12.426  0.00  0.00    +0.000 A 
ATOM      3  C   UNL     1      46.261   3.783  13.251  0.00  0.00    +0.000 A 
ATOM      4  C   UNL     1      45.910   5.088  12.821  0.00  0.00    +0.000 A 
ATOM      5  C   UNL     1      46.244   6.394  13.215  0.00  0.00    +0.000 A 
ATOM      6  C   UNL     1      45.685   7.463  12.504  0.00  0.00    +0.000 A 
ATOM      7  C   UNL     1      44.815   7.174  11.456  0.00  0.00    +0.000 A 
ATOM      8  N   UNL     1      44.462   5.938  11.034  0.00  0.00    +0.000 NA
ATOM      9  C   UNL     1      45.038   4.945  11.743  0.00  0.00    +0.000 A 
ENDROOT
BRANCH   6  10
ATOM     10  C   UNL     1      46.006   8.890  12.819  0.00  0.00    +0.000 C 
ATOM     11  F   UNL     1      46.810   9.484  11.892  0.00  0.00    +0.000 F 
ATOM     12  F   UNL     1      44.892   9.670  12.895  0.00  0.00    +0.000 F 
ATOM     13  F   UNL     1      46.644   9.035  14.013  0.00  0.00    +0.000 F 
ENDBRANCH   6  10
BRANCH   1  14
ATOM     14  C   UNL     1      44.150   3.026  10.385  0.00  0.00    +0.000 C 
BRANCH  14  18
ATOM     15  C   UNL     1      46.583   2.705   6.806  0.00  0.00    +0.000 A 
ATOM     16  C   UNL     1      46.012   3.931   7.174  0.00  0.00    +0.000 A 
ATOM     17  C   UNL     1      45.229   4.037   8.327  0.00  0.00    +0.000 A 
ATOM     18  C   UNL     1      44.989   2.917   9.135  0.00  0.00    +0.000 A 
ATOM     19  C   UNL     1      45.583   1.697   8.781  0.00  0.00    +0.000 A 
ATOM     20  C   UNL     1      46.372   1.593   7.630  0.00  0.00    +0.000 A 
BRANCH  15  21
ATOM     21  C   UNL     1      47.366   2.576   5.523  0.00  0.00    +0.000 C 
BRANCH  21  22
ATOM     22  N   UNL     1      48.590   1.802   5.695  0.00  0.00    +0.000 NA
ATOM     23  H   UNL     1      49.378   2.349   5.354  0.00  0.00    +0.000 HD
ATOM     24  H   UNL     1      48.539   0.972   5.107  0.00  0.00    +0.000 HD
ENDBRANCH  21  22
ENDBRANCH  15  21
ENDBRANCH  14  18
ENDBRANCH   1  14
TORSDOF 5
ENDMDL
MODEL 3
REMARK VINA RESULT:    -7.989      1.557      2.376
REMARK INTER + INTRA:         -10.698
REMARK INTER:                 -10.135
REMARK INTRA:                  -0.563
REMARK UNBOUND:                -0.607
REMARK  Name = 
REMARK  5 active torsions:
REMARK  status: ('A' for Active; 'I' for Inactive)
REMARK    1  A    between atoms: N_1  and  C_2
REMARK    2  A    between atoms: C_2  and  C_3
REMARK    3  A    between atoms: C_6  and  C_7
REMARK    4  A    between atoms: C_7  and  N_8
REMARK    5  A    between atoms: C_13  and  C_14
REMARK                            x       y       z     vdW  Elec       q    Type
REMARK                         _______ _______ _______ _____ _____    ______ ____
ROOT
ATOM      1  N   UNL     1      44.726   5.205  11.219  0.00  0.00    +0.000 N 
ATOM      2  C   UNL     1      44.687   6.582  11.242  0.00  0.00    +0.000 A 
ATOM      3  C   UNL     1      45.381   7.009  12.355  0.00  0.00    +0.000 A 
ATOM      4  C   UNL     1      45.851   5.857  13.037  0.00  0.00    +0.000 A 
ATOM      5  C   UNL     1      46.576   5.621  14.216  0.00  0.00    +0.000 A 
ATOM      6  C   UNL     1      46.836   4.293  14.578  0.00  0.00    +0.000 A 
ATOM      7  C   UNL     1      46.376   3.280  13.740  0.00  0.00    +0.000 A 
ATOM      8  N   UNL     1      45.672   3.452  12.597  0.00  0.00    +0.000 NA
ATOM      9  C   UNL     1      45.438   4.747  12.302  0.00  0.00    +0.000 A 
ENDROOT
BRANCH   6  10
ATOM     10  C   UNL     1      47.566   3.932  15.833  0.00  0.00    +0.000 C 
ATOM     11  F   UNL     1      48.200   2.728  15.766  0.00  0.00    +0.000 F 
ATOM     12  F   UNL     1      48.530   4.840  16.154  0.00  0.00    +0.000 F 
ATOM     13  F   UNL     1      46.746   3.861  16.917  0.00  0.00    +0.000 F 
ENDBRANCH   6  10
BRANCH   1  14
ATOM     14  C   UNL     1      44.005   4.359  10.275  0.00  0.00    +0.000 C 
BRANCH  14  18
ATOM     15  C   UNL     1      46.613   2.314   7.473  0.00  0.00    +0.000 A 
ATOM     16  C   UNL     1      45.867   1.590   8.414  0.00  0.00    +0.000 A 
ATOM     17  C   UNL     1      45.025   2.246   9.317  0.00  0.00    +0.000 A 
ATOM     18  C   UNL     1      44.917   3.644   9.308  0.00  0.00    +0.000 A 
ATOM     19  C   UNL     1      45.643   4.365   8.349  0.00  0.00    +0.000 A 
ATOM     20  C   UNL     1      46.480   3.707   7.442  0.00  0.00    +0.000 A 
BRANCH  15  21
ATOM     21  C   UNL     1      47.576   1.610   6.551  0.00  0.00    +0.000 C 
BRANCH  21  22
ATOM     22  N   UNL     1      48.661   2.480   6.111  0.00  0.00    +0.000 NA
ATOM     23  H   UNL     1      49.318   2.603   6.879  0.00  0.00    +0.000 HD
ATOM     24  H   UNL     1      48.279   3.402   5.906  0.00  0.00    +0.000 HD
ENDBRANCH  21  22
ENDBRANCH  15  21
ENDBRANCH  14  18
ENDBRANCH   1  14
TORSDOF 5
ENDMDL
MODEL 4
REMARK VINA RESULT:    -7.811      3.788      6.778
REMARK INTER + INTRA:         -10.472
REMARK INTER:                  -9.993
REMARK INTRA:                  -0.479
REMARK UNBOUND:                -0.607
REMARK  Name = 
REMARK  5 active torsions:
REMARK  status: ('A' for Active; 'I' for Inactive)
REMARK    1  A    between atoms: N_1  and  C_2
REMARK    2  A    between atoms: C_2  and  C_3
REMARK    3  A    between atoms: C_6  and  C_7
REMARK    4  A    between atoms: C_7  and  N_8
REMARK    5  A    between atoms: C_13  and  C_14
REMARK                            x       y       z     vdW  Elec       q    Type
REMARK                         _______ _______ _______ _____ _____    ______ ____
ROOT
ATOM      1  N   UNL     1      43.991   4.673  10.744  0.00  0.00    +0.000 N 
ATOM      2  C   UNL     1      43.405   3.635  11.433  0.00  0.00    +0.000 A 
ATOM      3  C   UNL     1      43.831   2.452  10.865  0.00  0.00    +0.000 A 
ATOM      4  C   UNL     1      44.696   2.780   9.789  0.00  0.00    +0.000 A 
ATOM      5  C   UNL     1      45.413   2.051   8.826  0.00  0.00    +0.000 A 
ATOM      6  C   UNL     1      46.168   2.763   7.885  0.00  0.00    +0.000 A 
ATOM      7  C   UNL     1      46.181   4.153   7.966  0.00  0.00    +0.000 A 
ATOM      8  N   UNL     1      45.508   4.903   8.869  0.00  0.00    +0.000 NA
ATOM      9  C   UNL     1      44.787   4.170   9.743  0.00  0.00    +0.000 A 
ENDROOT
BRANCH   6  10
ATOM     10  C   UNL     1      46.936   2.084   6.795  0.00  0.00    +0.000 C 
ATOM     11  F   UNL     1      46.849   0.725   6.834  0.00  0.00    +0.000 F 
ATOM     12  F   UNL     1      46.508   2.446   5.553  0.00  0.00    +0.000 F 
ATOM     13  F   UNL     1      48.266   2.373   6.830  0.00  0.00    +0.000 F 
ENDBRANCH   6  10
BRANCH   1  14
ATOM     14  C   UNL     1      43.701   6.088  10.949  0.00  0.00    +0.000 C 
BRANCH  14  18
ATOM     15  C   UNL     1      46.815   8.162  13.148  0.00  0.00    +0.000 A 
ATOM     16  C   UNL     1      46.733   6.763  13.174  0.00  0.00    +0.000 A 
ATOM     17  C   UNL     1      45.732   6.093  12.466  0.00  0.00    +0.000 A 
ATOM     18  C   UNL     1      44.781   6.806  11.722  0.00  0.00    +0.000 A 
ATOM     19  C   UNL     1      44.881   8.204  11.674  0.00  0.00    +0.000 A 
ATOM     20  C   UNL     1      45.887   8.873  12.379  0.00  0.00    +0.000 A 
BRANCH  15  21
ATOM     21  C   UNL     1      47.850   8.887  13.972  0.00  0.00    +0.000 C 
BRANCH  21  22
ATOM     22  N   UNL     1      47.434   9.058  15.359  0.00  0.00    +0.000 NA
ATOM     23  H   UNL     1      46.691   9.752  15.399  0.00  0.00    +0.000 HD
ATOM     24  H   UNL     1      48.215   9.440  15.891  0.00  0.00    +0.000 HD
ENDBRANCH  21  22
ENDBRANCH  15  21
ENDBRANCH  14  18
ENDBRANCH   1  14
TORSDOF 5
ENDMDL
MODEL 5
REMARK VINA RESULT:    -7.215      1.356      1.950
REMARK INTER + INTRA:          -9.720
REMARK INTER:                  -9.318
REMARK INTRA:                  -0.402
REMARK UNBOUND:                -0.607
REMARK  Name = 
REMARK  5 active torsions:
REMARK  status: ('A' for Active; 'I' for Inactive)
REMARK    1  A    between atoms: N_1  and  C_2
REMARK    2  A    between atoms: C_2  and  C_3
REMARK    3  A    between atoms: C_6  and  C_7
REMARK    4  A    between atoms: C_7  and  N_8
REMARK    5  A    between atoms: C_13  and  C_14
REMARK                            x       y       z     vdW  Elec       q    Type
REMARK                         _______ _______ _______ _____ _____    ______ ____
ROOT
ATOM      1  N   UNL     1      44.229   4.661  10.969  0.00  0.00    +0.000 N 
ATOM      2  C   UNL     1      43.034   5.338  10.861  0.00  0.00    +0.000 A 
ATOM      3  C   UNL     1      43.205   6.592  11.408  0.00  0.00    +0.000 A 
ATOM      4  C   UNL     1      44.543   6.679  11.873  0.00  0.00    +0.000 A 
ATOM      5  C   UNL     1      45.310   7.654  12.533  0.00  0.00    +0.000 A 
ATOM      6  C   UNL     1      46.638   7.346  12.851  0.00  0.00    +0.000 A 
ATOM      7  C   UNL     1      47.133   6.098  12.480  0.00  0.00    +0.000 A 
ATOM      8  N   UNL     1      46.438   5.124  11.848  0.00  0.00    +0.000 NA
ATOM      9  C   UNL     1      45.162   5.466  11.577  0.00  0.00    +0.000 A 
ENDROOT
BRANCH   6  10
ATOM     10  C   UNL     1      47.528   8.298  13.586  0.00  0.00    +0.000 C 
ATOM     11  F   UNL     1      47.991   9.319  12.811  0.00  0.00    +0.000 F 
ATOM     12  F   UNL     1      46.899   8.891  14.639  0.00  0.00    +0.000 F 
ATOM     13  F   UNL     1      48.632   7.694  14.104  0.00  0.00    +0.000 F 
ENDBRANCH   6  10
BRANCH   1  14
ATOM     14  C   UNL     1      44.435   3.258  10.623  0.00  0.00    +0.000 C 
BRANCH  14  18
ATOM     15  C   UNL     1      46.619   2.717   6.912  0.00  0.00    +0.000 A 
ATOM     16  C   UNL     1      46.210   3.994   7.321  0.00  0.00    +0.000 A 
ATOM     17  C   UNL     1      45.508   4.171   8.517  0.00  0.00    +0.000 A 
ATOM     18  C   UNL     1      45.187   3.074   9.328  0.00  0.00    +0.000 A 
ATOM     19  C   UNL     1      45.620   1.800   8.932  0.00  0.00    +0.000 A 
ATOM     20  C   UNL     1      46.329   1.625   7.738  0.00  0.00    +0.000 A 
BRANCH  15  21
ATOM     21  C   UNL     1      47.311   2.519   5.587  0.00  0.00    +0.000 C 
BRANCH  21  22
ATOM     22  N   UNL     1      48.556   1.769   5.718  0.00  0.00    +0.000 NA
ATOM     23  H   UNL     1      48.725   1.577   6.703  0.00  0.00    +0.000 HD
ATOM     24  H   UNL     1      49.326   2.355   5.401  0.00  0.00    +0.000 HD
ENDBRANCH  21  22
ENDBRANCH  15  21
ENDBRANCH  14  18
ENDBRANCH   1  14
TORSDOF 5
ENDMDL
MODEL 6
REMARK VINA RESULT:    -6.297      4.691      7.552
REMARK INTER + INTRA:          -8.560
REMARK INTER:                  -8.188
REMARK INTRA:                  -0.372
REMARK UNBOUND:                -0.607
REMARK  Name = 
REMARK  5 active torsions:
REMARK  status: ('A' for Active; 'I' for Inactive)
REMARK    1  A    between atoms: N_1  and  C_2
REMARK    2  A    between atoms: C_2  and  C_3
REMARK    3  A    between atoms: C_6  and  C_7
REMARK    4  A    between atoms: C_7  and  N_8
REMARK    5  A    between atoms: C_13  and  C_14
REMARK                            x       y       z     vdW  Elec       q    Type
REMARK                         _______ _______ _______ _____ _____    ______ ____
ROOT
ATOM      1  N   UNL     1      47.240   5.174  15.102  0.00  0.00    +0.000 N 
ATOM      2  C   UNL     1      48.155   6.174  14.863  0.00  0.00    +0.000 A 
ATOM      3  C   UNL     1      48.005   6.586  13.555  0.00  0.00    +0.000 A 
ATOM      4  C   UNL     1      46.972   5.805  12.975  0.00  0.00    +0.000 A 
ATOM      5  C   UNL     1      46.379   5.718  11.705  0.00  0.00    +0.000 A 
ATOM      6  C   UNL     1      45.363   4.774  11.513  0.00  0.00    +0.000 A 
ATOM      7  C   UNL     1      44.984   3.984  12.596  0.00  0.00    +0.000 A 
ATOM      8  N   UNL     1      45.523   4.025  13.836  0.00  0.00    +0.000 NA
ATOM      9  C   UNL     1      46.505   4.941  13.964  0.00  0.00    +0.000 A 
ENDROOT
BRANCH   6  10
ATOM     10  C   UNL     1      44.693   4.575  10.190  0.00  0.00    +0.000 C 
ATOM     11  F   UNL     1      43.425   5.074  10.142  0.00  0.00    +0.000 F 
ATOM     12  F   UNL     1      45.365   5.177   9.170  0.00  0.00    +0.000 F 
ATOM     13  F   UNL     1      44.589   3.262   9.844  0.00  0.00    +0.000 F 
ENDBRANCH   6  10
BRANCH   1  14
ATOM     14  C   UNL     1      47.157   4.384  16.325  0.00  0.00    +0.000 C 
BRANCH  14  18
ATOM     15  C   UNL     1      50.916   2.515  17.423  0.00  0.00    +0.000 A 
ATOM     16  C   UNL     1      50.668   3.858  17.736  0.00  0.00    +0.000 A 
ATOM     17  C   UNL     1      49.458   4.463  17.385  0.00  0.00    +0.000 A 
ATOM     18  C   UNL     1      48.469   3.740  16.702  0.00  0.00    +0.000 A 
ATOM     19  C   UNL     1      48.707   2.389  16.413  0.00  0.00    +0.000 A 
ATOM     20  C   UNL     1      49.917   1.784  16.771  0.00  0.00    +0.000 A 
BRANCH  15  21
ATOM     21  C   UNL     1      52.251   1.887  17.737  0.00  0.00    +0.000 C 
BRANCH  21  22
ATOM     22  N   UNL     1      52.321   0.492  17.316  0.00  0.00    +0.000 NA
ATOM     23  H   UNL     1      51.375   0.138  17.187  0.00  0.00    +0.000 HD
ATOM     24  H   UNL     1      52.735  -0.057  18.068  0.00  0.00    +0.000 HD
ENDBRANCH  21  22
ENDBRANCH  15  21
ENDBRANCH  14  18
ENDBRANCH   1  14
TORSDOF 5
ENDMDL
MODEL 7
REMARK VINA RESULT:    -5.841      4.434      8.100
REMARK INTER + INTRA:          -7.984
REMARK INTER:                  -7.400
REMARK INTRA:                  -0.585
REMARK UNBOUND:                -0.607
REMARK  Name = 
REMARK  5 active torsions:
REMARK  status: ('A' for Active; 'I' for Inactive)
REMARK    1  A    between atoms: N_1  and  C_2
REMARK    2  A    between atoms: C_2  and  C_3
REMARK    3  A    between atoms: C_6  and  C_7
REMARK    4  A    between atoms: C_7  and  N_8
REMARK    5  A    between atoms: C_13  and  C_14
REMARK                            x       y       z     vdW  Elec       q    Type
REMARK                         _______ _______ _______ _____ _____    ______ ____
ROOT
ATOM      1  N   UNL     1      47.524   7.148  13.842  0.00  0.00    +0.000 N 
ATOM      2  C   UNL     1      47.269   8.492  13.677  0.00  0.00    +0.000 A 
ATOM      3  C   UNL     1      46.089   8.619  12.975  0.00  0.00    +0.000 A 
ATOM      4  C   UNL     1      45.613   7.312  12.694  0.00  0.00    +0.000 A 
ATOM      5  C   UNL     1      44.511   6.776  12.008  0.00  0.00    +0.000 A 
ATOM      6  C   UNL     1      44.395   5.382  11.930  0.00  0.00    +0.000 A 
ATOM      7  C   UNL     1      45.369   4.604  12.552  0.00  0.00    +0.000 A 
ATOM      8  N   UNL     1      46.449   5.068  13.221  0.00  0.00    +0.000 NA
ATOM      9  C   UNL     1      46.520   6.414  13.255  0.00  0.00    +0.000 A 
ENDROOT
BRANCH   6  10
ATOM     10  C   UNL     1      43.281   4.711  11.191  0.00  0.00    +0.000 C 
ATOM     11  F   UNL     1      43.140   3.391  11.500  0.00  0.00    +0.000 F 
ATOM     12  F   UNL     1      42.070   5.281  11.445  0.00  0.00    +0.000 F 
ATOM     13  F   UNL     1      43.440   4.761   9.840  0.00  0.00    +0.000 F 
ENDBRANCH   6  10
BRANCH   1  14
ATOM     14  C   UNL     1      48.739   6.587  14.421  0.00  0.00    +0.000 C 
BRANCH  14  18
ATOM     15  C   UNL     1      48.322   5.688  18.646  0.00  0.00    +0.000 A 
ATOM     16  C   UNL     1      48.759   6.951  18.224  0.00  0.00    +0.000 A 
ATOM     17  C   UNL     1      48.893   7.244  16.864  0.00  0.00    +0.000 A 
ATOM     18  C   UNL     1      48.603   6.277  15.892  0.00  0.00    +0.000 A 
ATOM     19  C   UNL     1      48.140   5.022  16.314  0.00  0.00    +0.000 A 
ATOM     20  C   UNL     1      48.001   4.732  17.675  0.00  0.00    +0.000 A 
BRANCH  15  21
ATOM     21  C   UNL     1      48.249   5.350  20.114  0.00  0.00    +0.000 C 
BRANCH  21  22
ATOM     22  N   UNL     1      48.516   3.940  20.373  0.00  0.00    +0.000 NA
ATOM     23  H   UNL     1      48.916   3.520  19.537  0.00  0.00    +0.000 HD
ATOM     24  H   UNL     1      47.631   3.464  20.542  0.00  0.00    +0.000 HD
ENDBRANCH  21  22
ENDBRANCH  15  21
ENDBRANCH  14  18
ENDBRANCH   1  14
TORSDOF 5
ENDMDL
MODEL 8
REMARK VINA RESULT:    -5.784      4.019      6.595
REMARK INTER + INTRA:          -7.913
REMARK INTER:                  -7.445
REMARK INTRA:                  -0.468
REMARK UNBOUND:                -0.607
REMARK  Name = 
REMARK  5 active torsions:
REMARK  status: ('A' for Active; 'I' for Inactive)
REMARK    1  A    between atoms: N_1  and  C_2
REMARK    2  A    between atoms: C_2  and  C_3
REMARK    3  A    between atoms: C_6  and  C_7
REMARK    4  A    between atoms: C_7  and  N_8
REMARK    5  A    between atoms: C_13  and  C_14
REMARK                            x       y       z     vdW  Elec       q    Type
REMARK                         _______ _______ _______ _____ _____    ______ ____
ROOT
ATOM      1  N   UNL     1      45.684   6.482  12.198  0.00  0.00    +0.000 N 
ATOM      2  C   UNL     1      45.357   5.912  13.409  0.00  0.00    +0.000 A 
ATOM      3  C   UNL     1      45.038   4.589  13.184  0.00  0.00    +0.000 A 
ATOM      4  C   UNL     1      45.166   4.347  11.792  0.00  0.00    +0.000 A 
ATOM      5  C   UNL     1      44.963   3.243  10.947  0.00  0.00    +0.000 A 
ATOM      6  C   UNL     1      45.187   3.411   9.575  0.00  0.00    +0.000 A 
ATOM      7  C   UNL     1      45.616   4.658   9.124  0.00  0.00    +0.000 A 
ATOM      8  N   UNL     1      45.823   5.752   9.893  0.00  0.00    +0.000 NA
ATOM      9  C   UNL     1      45.581   5.540  11.203  0.00  0.00    +0.000 A 
ENDROOT
BRANCH   6  10
ATOM     10  C   UNL     1      44.963   2.311   8.586  0.00  0.00    +0.000 C 
ATOM     11  F   UNL     1      46.096   1.620   8.276  0.00  0.00    +0.000 F 
ATOM     12  F   UNL     1      44.074   1.381   9.034  0.00  0.00    +0.000 F 
ATOM     13  F   UNL     1      44.466   2.761   7.401  0.00  0.00    +0.000 F 
ENDBRANCH   6  10
BRANCH   1  14
ATOM     14  C   UNL     1      45.959   7.898  11.983  0.00  0.00    +0.000 C 
BRANCH  14  18
ATOM     15  C   UNL     1      50.187   8.866  12.123  0.00  0.00    +0.000 A 
ATOM     16  C   UNL     1      49.763   7.538  11.984  0.00  0.00    +0.000 A 
ATOM     17  C   UNL     1      48.401   7.223  11.937  0.00  0.00    +0.000 A 
ATOM     18  C   UNL     1      47.431   8.229  12.039  0.00  0.00    +0.000 A 
ATOM     19  C   UNL     1      47.857   9.561  12.151  0.00  0.00    +0.000 A 
ATOM     20  C   UNL     1      49.219   9.875  12.192  0.00  0.00    +0.000 A 
BRANCH  15  21
ATOM     21  C   UNL     1      51.654   9.195  12.248  0.00  0.00    +0.000 C 
BRANCH  21  22
ATOM     22  N   UNL     1      52.396   8.163  12.963  0.00  0.00    +0.000 NA
ATOM     23  H   UNL     1      52.634   7.416  12.313  0.00  0.00    +0.000 HD
ATOM     24  H   UNL     1      51.786   7.750  13.668  0.00  0.00    +0.000 HD
ENDBRANCH  21  22
ENDBRANCH  15  21
ENDBRANCH  14  18
ENDBRANCH   1  14
TORSDOF 5
ENDMDL
MODEL 9
REMARK VINA RESULT:    -5.663      4.673      7.231
REMARK INTER + INTRA:          -7.760
REMARK INTER:                  -7.273
REMARK INTRA:                  -0.487
REMARK UNBOUND:                -0.607
REMARK  Name = 
REMARK  5 active torsions:
REMARK  status: ('A' for Active; 'I' for Inactive)
REMARK    1  A    between atoms: N_1  and  C_2
REMARK    2  A    between atoms: C_2  and  C_3
REMARK    3  A    between atoms: C_6  and  C_7
REMARK    4  A    between atoms: C_7  and  N_8
REMARK    5  A    between atoms: C_13  and  C_14
REMARK                            x       y       z     vdW  Elec       q    Type
REMARK                         _______ _______ _______ _____ _____    ______ ____
ROOT
ATOM      1  N   UNL     1      47.236   4.984  15.036  0.00  0.00    +0.000 N 
ATOM      2  C   UNL     1      46.266   4.475  14.201  0.00  0.00    +0.000 A 
ATOM      3  C   UNL     1      46.391   5.095  12.975  0.00  0.00    +0.000 A 
ATOM      4  C   UNL     1      47.465   6.018  13.068  0.00  0.00    +0.000 A 
ATOM      5  C   UNL     1      48.060   6.948  12.200  0.00  0.00    +0.000 A 
ATOM      6  C   UNL     1      49.126   7.716  12.685  0.00  0.00    +0.000 A 
ATOM      7  C   UNL     1      49.550   7.503  13.995  0.00  0.00    +0.000 A 
ATOM      8  N   UNL     1      49.011   6.624  14.871  0.00  0.00    +0.000 NA
ATOM      9  C   UNL     1      47.981   5.921  14.359  0.00  0.00    +0.000 A 
ENDROOT
BRANCH   6  10
ATOM     10  C   UNL     1      49.804   8.761  11.856  0.00  0.00    +0.000 C 
ATOM     11  F   UNL     1      50.689   8.249  10.954  0.00  0.00    +0.000 F 
ATOM     12  F   UNL     1      48.922   9.501  11.128  0.00  0.00    +0.000 F 
ATOM     13  F   UNL     1      50.510   9.652  12.605  0.00  0.00    +0.000 F 
ENDBRANCH   6  10
BRANCH   1  14
ATOM     14  C   UNL     1      47.364   4.684  16.457  0.00  0.00    +0.000 C 
BRANCH  14  18
ATOM     15  C   UNL     1      50.895   2.330  17.367  0.00  0.00    +0.000 A 
ATOM     16  C   UNL     1      49.788   1.744  16.738  0.00  0.00    +0.000 A 
ATOM     17  C   UNL     1      48.650   2.500  16.443  0.00  0.00    +0.000 A 
ATOM     18  C   UNL     1      48.587   3.860  16.779  0.00  0.00    +0.000 A 
ATOM     19  C   UNL     1      49.705   4.451  17.383  0.00  0.00    +0.000 A 
ATOM     20  C   UNL     1      50.846   3.695  17.672  0.00  0.00    +0.000 A 
BRANCH  15  21
ATOM     21  C   UNL     1      52.091   1.496  17.751  0.00  0.00    +0.000 C 
BRANCH  21  22
ATOM     22  N   UNL     1      51.721   0.141  18.143  0.00  0.00    +0.000 NA
ATOM     23  H   UNL     1      50.770   0.150  18.506  0.00  0.00    +0.000 HD
ATOM     24  H   UNL     1      52.321  -0.154  18.911  0.00  0.00    +0.000 HD
ENDBRANCH  21  22
ENDBRANCH  15  21
ENDBRANCH  14  18
ENDBRANCH   1  14
TORSDOF 5
ENDMDL
