MODEL 1
REMARK VINA RESULT:    -8.524      0.000      0.000
REMARK INTER + INTRA:         -12.067
REMARK INTER:                 -11.514
REMARK INTRA:                  -0.553
REMARK UNBOUND:                -0.553
REMARK  Name = 
REMARK  7 active torsions:
REMARK  status: ('A' for Active; 'I' for Inactive)
REMARK    1  A    between atoms: C_1  and  C_2
REMARK    2  A    between atoms: C_2  and  N_3
REMARK    3  A    between atoms: C_2  and  C_16
REMARK    4  A    between atoms: C_4  and  C_6
REMARK    5  A    between atoms: C_19  and  C_20
REMARK    6  A    between atoms: C_20  and  N_21
REMARK    7  A    between atoms: C_22  and  C_24
REMARK                            x       y       z     vdW  Elec       q    Type
REMARK                         _______ _______ _______ _____ _____    ______ ____
ROOT
ATOM      1  C   UNL     1      48.129   9.335  12.911  0.00  0.00    +0.000 C 
ATOM      2  C   UNL     1      47.019   8.478  13.525  0.00  0.00    +0.000 C 
ENDROOT
BRANCH   2   3
ATOM      3  C   UNL     1      46.368   7.489  12.566  0.00  0.00    +0.000 A 
ATOM      4  C   UNL     1      45.143   6.904  12.927  0.00  0.00    +0.000 A 
ATOM      5  C   UNL     1      44.530   5.946  12.112  0.00  0.00    +0.000 A 
ATOM      6  C   UNL     1      45.133   5.531  10.920  0.00  0.00    +0.000 A 
ATOM      7  C   UNL     1      46.344   6.125  10.544  0.00  0.00    +0.000 A 
ATOM      8  C   UNL     1      46.962   7.082  11.363  0.00  0.00    +0.000 A 
BRANCH   6   9
ATOM      9  C   UNL     1      44.489   4.477  10.061  0.00  0.00    +0.000 C 
BRANCH   9  10
ATOM     10  N   UNL     1      45.359   4.065   8.988  0.00  0.00    +0.000 N 
ATOM     11  C   UNL     1      45.468   2.744   8.621  0.00  0.00    +0.000 C 
ATOM     12  O   UNL     1      44.863   1.844   9.201  0.00  0.00    +0.000 OA
ATOM     13  H   UNL     1      45.803   4.780   8.434  0.00  0.00    +0.000 HD
BRANCH  11  14
ATOM     14  C   UNL     1      46.334   2.492   7.502  0.00  0.00    +0.000 A 
ATOM     15  C   UNL     1      46.575   3.164   6.317  0.00  0.00    +0.000 A 
ATOM     16  C   UNL     1      47.546   2.400   5.648  0.00  0.00    +0.000 A 
ATOM     17  N   UNL     1      47.907   1.319   6.340  0.00  0.00    +0.000 NA
ATOM     18  N   UNL     1      47.162   1.401   7.460  0.00  0.00    +0.000 N 
ATOM     19  H   UNL     1      47.259   0.680   8.168  0.00  0.00    +0.000 HD
ENDBRANCH  11  14
ENDBRANCH   9  10
ENDBRANCH   6   9
ENDBRANCH   2   3
BRANCH   2  20
ATOM     20  N   UNL     1      47.518   7.760  14.685  0.00  0.00    +0.000 N 
ATOM     21  C   UNL     1      48.652   6.988  14.639  0.00  0.00    +0.000 C 
ATOM     22  O   UNL     1      49.374   6.940  13.646  0.00  0.00    +0.000 OA
ATOM     23  H   UNL     1      46.869   7.642  15.455  0.00  0.00    +0.000 HD
BRANCH  21  24
ATOM     24  C   UNL     1      48.995   6.264  15.867  0.00  0.00    +0.000 A 
ATOM     25  C   UNL     1      50.072   6.679  16.640  0.00  0.00    +0.000 A 
ATOM     26  S   UNL     1      50.315   5.732  18.037  0.00  0.00    +0.000 S 
ATOM     27  C   UNL     1      49.025   4.700  17.628  0.00  0.00    +0.000 A 
ATOM     28  N   UNL     1      48.714   3.626  18.404  0.00  0.00    +0.000 NA
ATOM     29  C   UNL     1      47.747   2.903  17.947  0.00  0.00    +0.000 A 
ATOM     30  N   UNL     1      47.056   3.160  16.791  0.00  0.00    +0.000 N 
ATOM     31  C   UNL     1      47.294   4.265  16.008  0.00  0.00    +0.000 A 
ATOM     32  O   UNL     1      46.595   4.520  15.034  0.00  0.00    +0.000 OA
ATOM     33  C   UNL     1      48.399   5.092  16.458  0.00  0.00    +0.000 A 
ATOM     34  H   UNL     1      46.294   2.565  16.503  0.00  0.00    +0.000 HD
ENDBRANCH  21  24
ENDBRANCH   2  20
TORSDOF 6
ENDMDL
MODEL 2
REMARK VINA RESULT:    -8.138      2.654      3.612
REMARK INTER + INTRA:         -11.545
REMARK INTER:                 -10.354
REMARK INTRA:                  -1.192
REMARK UNBOUND:                -0.553
REMARK  Name = 
REMARK  7 active torsions:
REMARK  status: ('A' for Active; 'I' for Inactive)
REMARK    1  A    between atoms: C_1  and  C_2
REMARK    2  A    between atoms: C_2  and  N_3
REMARK    3  A    between atoms: C_2  and  C_16
REMARK    4  A    between atoms: C_4  and  C_6
REMARK    5  A    between atoms: C_19  and  C_20
REMARK    6  A    between atoms: C_20  and  N_21
REMARK    7  A    between atoms: C_22  and  C_24
REMARK                            x       y       z     vdW  Elec       q    Type
REMARK                         _______ _______ _______ _____ _____    ______ ____
ROOT
ATOM      1  C   UNL     1      47.212   4.184  16.117  0.00  0.00    +0.000 C 
ATOM      2  C   UNL     1      47.675   5.053  14.945  0.00  0.00    +0.000 C 
ENDROOT
BRANCH   2   3
ATOM      3  C   UNL     1      46.817   4.947  13.691  0.00  0.00    +0.000 A 
ATOM      4  C   UNL     1      46.221   3.713  13.382  0.00  0.00    +0.000 A 
ATOM      5  C   UNL     1      45.470   3.543  12.213  0.00  0.00    +0.000 A 
ATOM      6  C   UNL     1      45.307   4.599  11.310  0.00  0.00    +0.000 A 
ATOM      7  C   UNL     1      45.881   5.837  11.621  0.00  0.00    +0.000 A 
ATOM      8  C   UNL     1      46.638   6.007  12.790  0.00  0.00    +0.000 A 
BRANCH   6   9
ATOM      9  C   UNL     1      44.527   4.406  10.037  0.00  0.00    +0.000 C 
BRANCH   9  10
ATOM     10  N   UNL     1      45.386   4.027   8.943  0.00  0.00    +0.000 N 
ATOM     11  C   UNL     1      45.541   2.710   8.576  0.00  0.00    +0.000 C 
ATOM     12  O   UNL     1      44.988   1.788   9.174  0.00  0.00    +0.000 OA
ATOM     13  H   UNL     1      45.786   4.757   8.376  0.00  0.00    +0.000 HD
BRANCH  11  14
ATOM     14  C   UNL     1      46.388   2.490   7.436  0.00  0.00    +0.000 A 
ATOM     15  C   UNL     1      46.592   3.184   6.257  0.00  0.00    +0.000 A 
ATOM     16  C   UNL     1      47.563   2.447   5.557  0.00  0.00    +0.000 A 
ATOM     17  N   UNL     1      47.957   1.363   6.225  0.00  0.00    +0.000 NA
ATOM     18  N   UNL     1      47.233   1.414   7.361  0.00  0.00    +0.000 N 
ATOM     19  H   UNL     1      47.357   0.685   8.056  0.00  0.00    +0.000 HD
ENDBRANCH  11  14
ENDBRANCH   9  10
ENDBRANCH   6   9
ENDBRANCH   2   3
BRANCH   2  20
ATOM     20  N   UNL     1      47.760   6.445  15.350  0.00  0.00    +0.000 N 
ATOM     21  C   UNL     1      48.960   7.096  15.494  0.00  0.00    +0.000 C 
ATOM     22  O   UNL     1      50.030   6.577  15.188  0.00  0.00    +0.000 OA
ATOM     23  H   UNL     1      46.927   6.843  15.768  0.00  0.00    +0.000 HD
BRANCH  21  24
ATOM     24  C   UNL     1      48.895   8.478  15.979  0.00  0.00    +0.000 A 
ATOM     25  C   UNL     1      49.354   9.517  15.181  0.00  0.00    +0.000 A 
ATOM     26  S   UNL     1      49.187  11.055  15.898  0.00  0.00    +0.000 S 
ATOM     27  C   UNL     1      48.547  10.381  17.324  0.00  0.00    +0.000 A 
ATOM     28  N   UNL     1      48.221  11.168  18.385  0.00  0.00    +0.000 NA
ATOM     29  C   UNL     1      47.795  10.518  19.417  0.00  0.00    +0.000 A 
ATOM     30  N   UNL     1      47.656   9.155  19.480  0.00  0.00    +0.000 N 
ATOM     31  C   UNL     1      47.915   8.327  18.414  0.00  0.00    +0.000 A 
ATOM     32  O   UNL     1      47.689   7.123  18.471  0.00  0.00    +0.000 OA
ATOM     33  C   UNL     1      48.434   9.004  17.241  0.00  0.00    +0.000 A 
ATOM     34  H   UNL     1      47.295   8.713  20.312  0.00  0.00    +0.000 HD
ENDBRANCH  21  24
ENDBRANCH   2  20
TORSDOF 6
ENDMDL
MODEL 3
REMARK VINA RESULT:    -8.081      1.244      1.334
REMARK INTER + INTRA:         -11.469
REMARK INTER:                 -10.288
REMARK INTRA:                  -1.181
REMARK UNBOUND:                -0.553
REMARK  Name = 
REMARK  7 active torsions:
REMARK  status: ('A' for Active; 'I' for Inactive)
REMARK    1  A    between atoms: C_1  and  C_2
REMARK    2  A    between atoms: C_2  and  N_3
REMARK    3  A    between atoms: C_2  and  C_16
REMARK    4  A    between atoms: C_4  and  C_6
REMARK    5  A    between atoms: C_19  and  C_20
REMARK    6  A    between atoms: C_20  and  N_21
REMARK    7  A    between atoms: C_22  and  C_24
REMARK                            x       y       z     vdW  Elec       q    Type
REMARK                         _______ _______ _______ _____ _____    ______ ____
ROOT
ATOM      1  C   UNL     1      48.237   9.261  13.206  0.00  0.00    +0.000 C 
ATOM      2  C   UNL     1      47.393   8.189  13.900  0.00  0.00    +0.000 C 
ENDROOT
BRANCH   2   3
ATOM      3  C   UNL     1      46.493   7.383  12.973  0.00  0.00    +0.000 A 
ATOM      4  C   UNL     1      46.654   5.988  12.918  0.00  0.00    +0.000 A 
ATOM      5  C   UNL     1      45.894   5.205  12.042  0.00  0.00    +0.000 A 
ATOM      6  C   UNL     1      44.963   5.795  11.181  0.00  0.00    +0.000 A 
ATOM      7  C   UNL     1      44.782   7.182  11.245  0.00  0.00    +0.000 A 
ATOM      8  C   UNL     1      45.547   7.969  12.119  0.00  0.00    +0.000 A 
BRANCH   6   9
ATOM      9  C   UNL     1      44.170   4.956  10.216  0.00  0.00    +0.000 C 
BRANCH   9  10
ATOM     10  N   UNL     1      45.013   4.384   9.196  0.00  0.00    +0.000 N 
ATOM     11  C   UNL     1      45.100   3.023   9.018  0.00  0.00    +0.000 C 
ATOM     12  O   UNL     1      44.496   2.223   9.731  0.00  0.00    +0.000 OA
ATOM     13  H   UNL     1      45.455   5.007   8.538  0.00  0.00    +0.000 HD
BRANCH  11  14
ATOM     14  C   UNL     1      45.940   2.602   7.931  0.00  0.00    +0.000 A 
ATOM     15  C   UNL     1      46.360   3.215   6.764  0.00  0.00    +0.000 A 
ATOM     16  C   UNL     1      47.181   2.270   6.124  0.00  0.00    +0.000 A 
ATOM     17  N   UNL     1      47.286   1.137   6.818  0.00  0.00    +0.000 NA
ATOM     18  N   UNL     1      46.529   1.365   7.909  0.00  0.00    +0.000 N 
ATOM     19  H   UNL     1      46.449   0.638   8.613  0.00  0.00    +0.000 HD
ENDBRANCH  11  14
ENDBRANCH   9  10
ENDBRANCH   6   9
ENDBRANCH   2   3
BRANCH   2  20
ATOM     20  N   UNL     1      48.246   7.279  14.647  0.00  0.00    +0.000 N 
ATOM     21  C   UNL     1      48.723   7.581  15.898  0.00  0.00    +0.000 C 
ATOM     22  O   UNL     1      48.374   8.589  16.509  0.00  0.00    +0.000 OA
ATOM     23  H   UNL     1      48.683   6.535  14.116  0.00  0.00    +0.000 HD
BRANCH  21  24
ATOM     24  C   UNL     1      49.631   6.601  16.501  0.00  0.00    +0.000 A 
ATOM     25  C   UNL     1      50.934   6.963  16.816  0.00  0.00    +0.000 A 
ATOM     26  S   UNL     1      51.840   5.702  17.522  0.00  0.00    +0.000 S 
ATOM     27  C   UNL     1      50.541   4.613  17.378  0.00  0.00    +0.000 A 
ATOM     28  N   UNL     1      50.668   3.316  17.768  0.00  0.00    +0.000 NA
ATOM     29  C   UNL     1      49.621   2.591  17.554  0.00  0.00    +0.000 A 
ATOM     30  N   UNL     1      48.454   3.048  16.996  0.00  0.00    +0.000 N 
ATOM     31  C   UNL     1      48.259   4.363  16.643  0.00  0.00    +0.000 A 
ATOM     32  O   UNL     1      47.173   4.760  16.236  0.00  0.00    +0.000 OA
ATOM     33  C   UNL     1      49.422   5.212  16.827  0.00  0.00    +0.000 A 
ATOM     34  H   UNL     1      47.664   2.432  16.877  0.00  0.00    +0.000 HD
ENDBRANCH  21  24
ENDBRANCH   2  20
TORSDOF 6
ENDMDL
MODEL 4
REMARK VINA RESULT:    -7.930      1.987      2.204
REMARK INTER + INTRA:         -11.265
REMARK INTER:                 -10.314
REMARK INTRA:                  -0.951
REMARK UNBOUND:                -0.553
REMARK  Name = 
REMARK  7 active torsions:
REMARK  status: ('A' for Active; 'I' for Inactive)
REMARK    1  A    between atoms: C_1  and  C_2
REMARK    2  A    between atoms: C_2  and  N_3
REMARK    3  A    between atoms: C_2  and  C_16
REMARK    4  A    between atoms: C_4  and  C_6
REMARK    5  A    between atoms: C_19  and  C_20
REMARK    6  A    between atoms: C_20  and  N_21
REMARK    7  A    between atoms: C_22  and  C_24
REMARK                            x       y       z     vdW  Elec       q    Type
REMARK                         _______ _______ _______ _____ _____    ______ ____
ROOT
ATOM      1  C   UNL     1      49.552   7.405  13.342  0.00  0.00    +0.000 C 
ATOM      2  C   UNL     1      48.098   7.617  13.770  0.00  0.00    +0.000 C 
ENDROOT
BRANCH   2   3
ATOM      3  C   UNL     1      47.081   6.756  13.032  0.00  0.00    +0.000 A 
ATOM      4  C   UNL     1      46.777   5.482  13.541  0.00  0.00    +0.000 A 
ATOM      5  C   UNL     1      45.895   4.626  12.873  0.00  0.00    +0.000 A 
ATOM      6  C   UNL     1      45.304   5.011  11.665  0.00  0.00    +0.000 A 
ATOM      7  C   UNL     1      45.587   6.287  11.161  0.00  0.00    +0.000 A 
ATOM      8  C   UNL     1      46.475   7.144  11.829  0.00  0.00    +0.000 A 
BRANCH   6   9
ATOM      9  C   UNL     1      44.381   4.077  10.929  0.00  0.00    +0.000 C 
BRANCH   9  10
ATOM     10  N   UNL     1      45.114   3.158  10.095  0.00  0.00    +0.000 N 
ATOM     11  C   UNL     1      45.309   3.405   8.756  0.00  0.00    +0.000 C 
ATOM     12  O   UNL     1      44.847   4.396   8.192  0.00  0.00    +0.000 OA
ATOM     13  H   UNL     1      45.581   2.381  10.536  0.00  0.00    +0.000 HD
BRANCH  11  14
ATOM     14  C   UNL     1      46.102   2.426   8.064  0.00  0.00    +0.000 A 
ATOM     15  C   UNL     1      47.060   2.512   7.070  0.00  0.00    +0.000 A 
ATOM     16  C   UNL     1      47.465   1.187   6.831  0.00  0.00    +0.000 A 
ATOM     17  N   UNL     1      46.824   0.313   7.606  0.00  0.00    +0.000 NA
ATOM     18  N   UNL     1      46.007   1.089   8.346  0.00  0.00    +0.000 N 
ATOM     19  H   UNL     1      45.402   0.651   9.033  0.00  0.00    +0.000 HD
ENDBRANCH  11  14
ENDBRANCH   9  10
ENDBRANCH   6   9
ENDBRANCH   2   3
BRANCH   2  20
ATOM     20  N   UNL     1      47.956   7.403  15.200  0.00  0.00    +0.000 N 
ATOM     21  C   UNL     1      48.597   8.186  16.127  0.00  0.00    +0.000 C 
ATOM     22  O   UNL     1      49.245   9.181  15.810  0.00  0.00    +0.000 OA
ATOM     23  H   UNL     1      47.577   6.507  15.486  0.00  0.00    +0.000 HD
BRANCH  21  24
ATOM     24  C   UNL     1      48.418   7.809  17.532  0.00  0.00    +0.000 A 
ATOM     25  C   UNL     1      47.995   8.754  18.457  0.00  0.00    +0.000 A 
ATOM     26  S   UNL     1      47.827   8.136  20.037  0.00  0.00    +0.000 S 
ATOM     27  C   UNL     1      48.369   6.598  19.552  0.00  0.00    +0.000 A 
ATOM     28  N   UNL     1      48.503   5.586  20.452  0.00  0.00    +0.000 NA
ATOM     29  C   UNL     1      48.972   4.491  19.955  0.00  0.00    +0.000 A 
ATOM     30  N   UNL     1      49.308   4.311  18.637  0.00  0.00    +0.000 N 
ATOM     31  C   UNL     1      49.133   5.284  17.682  0.00  0.00    +0.000 A 
ATOM     32  O   UNL     1      49.352   5.061  16.496  0.00  0.00    +0.000 OA
ATOM     33  C   UNL     1      48.645   6.549  18.197  0.00  0.00    +0.000 A 
ATOM     34  H   UNL     1      49.649   3.419  18.310  0.00  0.00    +0.000 HD
ENDBRANCH  21  24
ENDBRANCH   2  20
TORSDOF 6
ENDMDL
MODEL 5
REMARK VINA RESULT:    -7.894      1.732      2.068
REMARK INTER + INTRA:         -11.216
REMARK INTER:                 -10.227
REMARK INTRA:                  -0.990
REMARK UNBOUND:                -0.553
REMARK  Name = 
REMARK  7 active torsions:
REMARK  status: ('A' for Active; 'I' for Inactive)
REMARK    1  A    between atoms: C_1  and  C_2
REMARK    2  A    between atoms: C_2  and  N_3
REMARK    3  A    between atoms: C_2  and  C_16
REMARK    4  A    between atoms: C_4  and  C_6
REMARK    5  A    between atoms: C_19  and  C_20
REMARK    6  A    between atoms: C_20  and  N_21
REMARK    7  A    between atoms: C_22  and  C_24
REMARK                            x       y       z     vdW  Elec       q    Type
REMARK                         _______ _______ _______ _____ _____    ______ ____
ROOT
ATOM      1  C   UNL     1      47.706   9.062  12.773  0.00  0.00    +0.000 C 
ATOM      2  C   UNL     1      47.286   7.864  13.629  0.00  0.00    +0.000 C 
ENDROOT
BRANCH   2   3
ATOM      3  C   UNL     1      46.514   6.784  12.883  0.00  0.00    +0.000 A 
ATOM      4  C   UNL     1      45.671   7.164  11.825  0.00  0.00    +0.000 A 
ATOM      5  C   UNL     1      44.893   6.221  11.143  0.00  0.00    +0.000 A 
ATOM      6  C   UNL     1      44.922   4.872  11.511  0.00  0.00    +0.000 A 
ATOM      7  C   UNL     1      45.775   4.482  12.551  0.00  0.00    +0.000 A 
ATOM      8  C   UNL     1      46.551   5.428  13.238  0.00  0.00    +0.000 A 
BRANCH   6   9
ATOM      9  C   UNL     1      44.060   3.863  10.799  0.00  0.00    +0.000 C 
BRANCH   9  10
ATOM     10  N   UNL     1      44.850   2.975   9.984  0.00  0.00    +0.000 N 
ATOM     11  C   UNL     1      45.252   3.332   8.718  0.00  0.00    +0.000 C 
ATOM     12  O   UNL     1      44.938   4.403   8.202  0.00  0.00    +0.000 OA
ATOM     13  H   UNL     1      45.200   2.128  10.403  0.00  0.00    +0.000 HD
BRANCH  11  14
ATOM     14  C   UNL     1      46.076   2.366   8.045  0.00  0.00    +0.000 A 
ATOM     15  C   UNL     1      47.042   2.465   7.059  0.00  0.00    +0.000 A 
ATOM     16  C   UNL     1      47.484   1.149   6.839  0.00  0.00    +0.000 A 
ATOM     17  N   UNL     1      46.857   0.267   7.618  0.00  0.00    +0.000 NA
ATOM     18  N   UNL     1      46.013   1.030   8.341  0.00  0.00    +0.000 N 
ATOM     19  H   UNL     1      45.412   0.584   9.027  0.00  0.00    +0.000 HD
ENDBRANCH  11  14
ENDBRANCH   9  10
ENDBRANCH   6   9
ENDBRANCH   2   3
BRANCH   2  20
ATOM     20  N   UNL     1      48.447   7.267  14.266  0.00  0.00    +0.000 N 
ATOM     21  C   UNL     1      48.902   7.676  15.495  0.00  0.00    +0.000 C 
ATOM     22  O   UNL     1      48.295   8.496  16.180  0.00  0.00    +0.000 OA
ATOM     23  H   UNL     1      49.058   6.721  13.668  0.00  0.00    +0.000 HD
BRANCH  21  24
ATOM     24  C   UNL     1      50.126   7.033  15.982  0.00  0.00    +0.000 A 
ATOM     25  C   UNL     1      51.365   7.585  15.684  0.00  0.00    +0.000 A 
ATOM     26  S   UNL     1      52.676   6.715  16.344  0.00  0.00    +0.000 S 
ATOM     27  C   UNL     1      51.636   5.540  17.001  0.00  0.00    +0.000 A 
ATOM     28  N   UNL     1      52.130   4.465  17.674  0.00  0.00    +0.000 NA
ATOM     29  C   UNL     1      51.230   3.629  18.073  0.00  0.00    +0.000 A 
ATOM     30  N   UNL     1      49.882   3.774  17.871  0.00  0.00    +0.000 N 
ATOM     31  C   UNL     1      49.333   4.872  17.250  0.00  0.00    +0.000 A 
ATOM     32  O   UNL     1      48.119   5.019  17.170  0.00  0.00    +0.000 OA
ATOM     33  C   UNL     1      50.305   5.824  16.747  0.00  0.00    +0.000 A 
ATOM     34  H   UNL     1      49.230   3.092  18.230  0.00  0.00    +0.000 HD
ENDBRANCH  21  24
ENDBRANCH   2  20
TORSDOF 6
ENDMDL
MODEL 6
REMARK VINA RESULT:    -7.868      2.068      3.928
REMARK INTER + INTRA:         -11.181
REMARK INTER:                 -10.001
REMARK INTRA:                  -1.180
REMARK UNBOUND:                -0.553
REMARK  Name = 
REMARK  7 active torsions:
REMARK  status: ('A' for Active; 'I' for Inactive)
REMARK    1  A    between atoms: C_1  and  C_2
REMARK    2  A    between atoms: C_2  and  N_3
REMARK    3  A    between atoms: C_2  and  C_16
REMARK    4  A    between atoms: C_4  and  C_6
REMARK    5  A    between atoms: C_19  and  C_20
REMARK    6  A    between atoms: C_20  and  N_21
REMARK    7  A    between atoms: C_22  and  C_24
REMARK                            x       y       z     vdW  Elec       q    Type
REMARK                         _______ _______ _______ _____ _____    ______ ____
ROOT
ATOM      1  C   UNL     1      47.047   3.821  16.489  0.00  0.00    +0.000 C 
ATOM      2  C   UNL     1      47.640   4.605  15.315  0.00  0.00    +0.000 C 
ENDROOT
BRANCH   2   3
ATOM      3  C   UNL     1      46.795   4.598  14.048  0.00  0.00    +0.000 A 
ATOM      4  C   UNL     1      46.364   3.364  13.530  0.00  0.00    +0.000 A 
ATOM      5  C   UNL     1      45.635   3.294  12.337  0.00  0.00    +0.000 A 
ATOM      6  C   UNL     1      45.331   4.455  11.618  0.00  0.00    +0.000 A 
ATOM      7  C   UNL     1      45.739   5.689  12.139  0.00  0.00    +0.000 A 
ATOM      8  C   UNL     1      46.474   5.759  13.331  0.00  0.00    +0.000 A 
BRANCH   6   9
ATOM      9  C   UNL     1      44.575   4.375  10.318  0.00  0.00    +0.000 C 
BRANCH   9  10
ATOM     10  N   UNL     1      45.436   3.988   9.229  0.00  0.00    +0.000 N 
ATOM     11  C   UNL     1      45.366   2.732   8.673  0.00  0.00    +0.000 C 
ATOM     12  O   UNL     1      44.598   1.866   9.089  0.00  0.00    +0.000 OA
ATOM     13  H   UNL     1      46.016   4.694   8.805  0.00  0.00    +0.000 HD
BRANCH  11  14
ATOM     14  C   UNL     1      46.250   2.506   7.562  0.00  0.00    +0.000 A 
ATOM     15  C   UNL     1      46.468   3.176   6.371  0.00  0.00    +0.000 A 
ATOM     16  C   UNL     1      47.477   2.449   5.716  0.00  0.00    +0.000 A 
ATOM     17  N   UNL     1      47.881   1.394   6.422  0.00  0.00    +0.000 NA
ATOM     18  N   UNL     1      47.126   1.453   7.537  0.00  0.00    +0.000 N 
ATOM     19  H   UNL     1      47.251   0.745   8.254  0.00  0.00    +0.000 HD
ENDBRANCH  11  14
ENDBRANCH   9  10
ENDBRANCH   6   9
ENDBRANCH   2   3
BRANCH   2  20
ATOM     20  N   UNL     1      47.902   5.979  15.707  0.00  0.00    +0.000 N 
ATOM     21  C   UNL     1      49.073   6.359  16.314  0.00  0.00    +0.000 C 
ATOM     22  O   UNL     1      50.014   5.585  16.468  0.00  0.00    +0.000 OA
ATOM     23  H   UNL     1      47.098   6.596  15.751  0.00  0.00    +0.000 HD
BRANCH  21  24
ATOM     24  C   UNL     1      49.169   7.765  16.718  0.00  0.00    +0.000 A 
ATOM     25  C   UNL     1      49.237   8.098  18.065  0.00  0.00    +0.000 A 
ATOM     26  S   UNL     1      49.360   9.775  18.348  0.00  0.00    +0.000 S 
ATOM     27  C   UNL     1      49.267  10.119  16.684  0.00  0.00    +0.000 A 
ATOM     28  N   UNL     1      49.274  11.402  16.233  0.00  0.00    +0.000 NA
ATOM     29  C   UNL     1      49.147  11.516  14.952  0.00  0.00    +0.000 A 
ATOM     30  N   UNL     1      49.024  10.463  14.082  0.00  0.00    +0.000 N 
ATOM     31  C   UNL     1      49.072   9.150  14.486  0.00  0.00    +0.000 A 
ATOM     32  O   UNL     1      49.056   8.231  13.674  0.00  0.00    +0.000 OA
ATOM     33  C   UNL     1      49.175   8.967  15.922  0.00  0.00    +0.000 A 
ATOM     34  H   UNL     1      48.950  10.623  13.088  0.00  0.00    +0.000 HD
ENDBRANCH  21  24
ENDBRANCH   2  20
TORSDOF 6
ENDMDL
MODEL 7
REMARK VINA RESULT:    -7.629      2.956      4.191
REMARK INTER + INTRA:         -10.857
REMARK INTER:                  -9.716
REMARK INTRA:                  -1.142
REMARK UNBOUND:                -0.553
REMARK  Name = 
REMARK  7 active torsions:
REMARK  status: ('A' for Active; 'I' for Inactive)
REMARK    1  A    between atoms: C_1  and  C_2
REMARK    2  A    between atoms: C_2  and  N_3
REMARK    3  A    between atoms: C_2  and  C_16
REMARK    4  A    between atoms: C_4  and  C_6
REMARK    5  A    between atoms: C_19  and  C_20
REMARK    6  A    between atoms: C_20  and  N_21
REMARK    7  A    between atoms: C_22  and  C_24
REMARK                            x       y       z     vdW  Elec       q    Type
REMARK                         _______ _______ _______ _____ _____    ______ ____
ROOT
ATOM      1  C   UNL     1      45.962   9.601  12.186  0.00  0.00    +0.000 C 
ATOM      2  C   UNL     1      46.253   8.384  13.069  0.00  0.00    +0.000 C 
ENDROOT
BRANCH   2   3
ATOM      3  C   UNL     1      45.628   7.081  12.589  0.00  0.00    +0.000 A 
ATOM      4  C   UNL     1      46.224   5.866  12.968  0.00  0.00    +0.000 A 
ATOM      5  C   UNL     1      45.728   4.641  12.509  0.00  0.00    +0.000 A 
ATOM      6  C   UNL     1      44.631   4.595  11.641  0.00  0.00    +0.000 A 
ATOM      7  C   UNL     1      44.020   5.800  11.275  0.00  0.00    +0.000 A 
ATOM      8  C   UNL     1      44.520   7.029  11.731  0.00  0.00    +0.000 A 
BRANCH   6   9
ATOM      9  C   UNL     1      44.119   3.279  11.121  0.00  0.00    +0.000 C 
BRANCH   9  10
ATOM     10  N   UNL     1      45.038   2.687  10.181  0.00  0.00    +0.000 N 
ATOM     11  C   UNL     1      45.047   3.059   8.857  0.00  0.00    +0.000 C 
ATOM     12  O   UNL     1      44.259   3.883   8.396  0.00  0.00    +0.000 OA
ATOM     13  H   UNL     1      45.755   2.074  10.536  0.00  0.00    +0.000 HD
BRANCH  11  14
ATOM     14  C   UNL     1      46.051   2.422   8.051  0.00  0.00    +0.000 A 
ATOM     15  C   UNL     1      46.994   2.898   7.157  0.00  0.00    +0.000 A 
ATOM     16  C   UNL     1      47.684   1.760   6.705  0.00  0.00    +0.000 A 
ATOM     17  N   UNL     1      47.228   0.637   7.259  0.00  0.00    +0.000 NA
ATOM     18  N   UNL     1      46.243   1.065   8.073  0.00  0.00    +0.000 N 
ATOM     19  H   UNL     1      45.730   0.385   8.624  0.00  0.00    +0.000 HD
ENDBRANCH  11  14
ENDBRANCH   9  10
ENDBRANCH   6   9
ENDBRANCH   2   3
BRANCH   2  20
ATOM     20  N   UNL     1      47.686   8.200  13.219  0.00  0.00    +0.000 N 
ATOM     21  C   UNL     1      48.372   8.646  14.322  0.00  0.00    +0.000 C 
ATOM     22  O   UNL     1      47.803   9.131  15.297  0.00  0.00    +0.000 OA
ATOM     23  H   UNL     1      48.200   7.965  12.378  0.00  0.00    +0.000 HD
BRANCH  21  24
ATOM     24  C   UNL     1      49.825   8.455  14.304  0.00  0.00    +0.000 A 
ATOM     25  C   UNL     1      50.475   7.965  15.429  0.00  0.00    +0.000 A 
ATOM     26  S   UNL     1      52.159   7.793  15.222  0.00  0.00    +0.000 S 
ATOM     27  C   UNL     1      52.086   8.422  13.643  0.00  0.00    +0.000 A 
ATOM     28  N   UNL     1      53.215   8.587  12.902  0.00  0.00    +0.000 NA
ATOM     29  C   UNL     1      53.016   9.121  11.743  0.00  0.00    +0.000 A 
ATOM     30  N   UNL     1      51.791   9.495  11.254  0.00  0.00    +0.000 N 
ATOM     31  C   UNL     1      50.618   9.292  11.941  0.00  0.00    +0.000 A 
ATOM     32  O   UNL     1      49.530   9.549  11.438  0.00  0.00    +0.000 OA
ATOM     33  C   UNL     1      50.790   8.730  13.268  0.00  0.00    +0.000 A 
ATOM     34  H   UNL     1      51.704   9.888  10.328  0.00  0.00    +0.000 HD
ENDBRANCH  21  24
ENDBRANCH   2  20
TORSDOF 6
ENDMDL
MODEL 8
REMARK VINA RESULT:    -7.044      3.196      4.486
REMARK INTER + INTRA:         -10.068
REMARK INTER:                  -9.558
REMARK INTRA:                  -0.510
REMARK UNBOUND:                -0.553
REMARK  Name = 
REMARK  7 active torsions:
REMARK  status: ('A' for Active; 'I' for Inactive)
REMARK    1  A    between atoms: C_1  and  C_2
REMARK    2  A    between atoms: C_2  and  N_3
REMARK    3  A    between atoms: C_2  and  C_16
REMARK    4  A    between atoms: C_4  and  C_6
REMARK    5  A    between atoms: C_19  and  C_20
REMARK    6  A    between atoms: C_20  and  N_21
REMARK    7  A    between atoms: C_22  and  C_24
REMARK                            x       y       z     vdW  Elec       q    Type
REMARK                         _______ _______ _______ _____ _____    ______ ____
ROOT
ATOM      1  C   UNL     1      45.646   9.169  13.044  0.00  0.00    +0.000 C 
ATOM      2  C   UNL     1      46.566   7.964  13.260  0.00  0.00    +0.000 C 
ENDROOT
BRANCH   2   3
ATOM      3  C   UNL     1      46.069   6.661  12.648  0.00  0.00    +0.000 A 
ATOM      4  C   UNL     1      45.690   6.652  11.295  0.00  0.00    +0.000 A 
ATOM      5  C   UNL     1      45.171   5.498  10.696  0.00  0.00    +0.000 A 
ATOM      6  C   UNL     1      45.001   4.324  11.438  0.00  0.00    +0.000 A 
ATOM      7  C   UNL     1      45.396   4.320  12.781  0.00  0.00    +0.000 A 
ATOM      8  C   UNL     1      45.911   5.478  13.383  0.00  0.00    +0.000 A 
BRANCH   6   9
ATOM      9  C   UNL     1      44.412   3.093  10.801  0.00  0.00    +0.000 C 
BRANCH   9  10
ATOM     10  N   UNL     1      45.282   2.557   9.785  0.00  0.00    +0.000 N 
ATOM     11  C   UNL     1      45.199   2.975   8.477  0.00  0.00    +0.000 C 
ATOM     12  O   UNL     1      44.367   3.796   8.097  0.00  0.00    +0.000 OA
ATOM     13  H   UNL     1      46.032   1.948  10.072  0.00  0.00    +0.000 HD
BRANCH  11  14
ATOM     14  C   UNL     1      46.164   2.389   7.587  0.00  0.00    +0.000 A 
ATOM     15  C   UNL     1      46.800   2.843   6.445  0.00  0.00    +0.000 A 
ATOM     16  C   UNL     1      47.640   1.789   6.045  0.00  0.00    +0.000 A 
ATOM     17  N   UNL     1      47.558   0.738   6.860  0.00  0.00    +0.000 NA
ATOM     18  N   UNL     1      46.661   1.128   7.788  0.00  0.00    +0.000 N 
ATOM     19  H   UNL     1      46.423   0.490   8.541  0.00  0.00    +0.000 HD
ENDBRANCH  11  14
ENDBRANCH   9  10
ENDBRANCH   6   9
ENDBRANCH   2   3
BRANCH   2  20
ATOM     20  N   UNL     1      47.899   8.251  12.758  0.00  0.00    +0.000 N 
ATOM     21  C   UNL     1      49.013   7.593  13.217  0.00  0.00    +0.000 C 
ATOM     22  O   UNL     1      48.943   6.650  14.001  0.00  0.00    +0.000 OA
ATOM     23  H   UNL     1      48.011   9.121  12.250  0.00  0.00    +0.000 HD
BRANCH  21  24
ATOM     24  C   UNL     1      50.299   8.037  12.672  0.00  0.00    +0.000 A 
ATOM     25  C   UNL     1      50.641   7.732  11.361  0.00  0.00    +0.000 A 
ATOM     26  S   UNL     1      52.164   8.341  10.893  0.00  0.00    +0.000 S 
ATOM     27  C   UNL     1      52.445   8.983  12.443  0.00  0.00    +0.000 A 
ATOM     28  N   UNL     1      53.613   9.614  12.739  0.00  0.00    +0.000 NA
ATOM     29  C   UNL     1      53.711  10.006  13.966  0.00  0.00    +0.000 A 
ATOM     30  N   UNL     1      52.742   9.834  14.921  0.00  0.00    +0.000 N 
ATOM     31  C   UNL     1      51.523   9.256  14.654  0.00  0.00    +0.000 A 
ATOM     32  O   UNL     1      50.641   9.203  15.504  0.00  0.00    +0.000 OA
ATOM     33  C   UNL     1      51.378   8.763  13.297  0.00  0.00    +0.000 A 
ATOM     34  H   UNL     1      52.874  10.185  15.858  0.00  0.00    +0.000 HD
ENDBRANCH  21  24
ENDBRANCH   2  20
TORSDOF 6
ENDMDL
MODEL 9
REMARK VINA RESULT:    -7.007      2.146      2.906
REMARK INTER + INTRA:         -10.018
REMARK INTER:                  -8.972
REMARK INTRA:                  -1.046
REMARK UNBOUND:                -0.553
REMARK  Name = 
REMARK  7 active torsions:
REMARK  status: ('A' for Active; 'I' for Inactive)
REMARK    1  A    between atoms: C_1  and  C_2
REMARK    2  A    between atoms: C_2  and  N_3
REMARK    3  A    between atoms: C_2  and  C_16
REMARK    4  A    between atoms: C_4  and  C_6
REMARK    5  A    between atoms: C_19  and  C_20
REMARK    6  A    between atoms: C_20  and  N_21
REMARK    7  A    between atoms: C_22  and  C_24
REMARK                            x       y       z     vdW  Elec       q    Type
REMARK                         _______ _______ _______ _____ _____    ______ ____
ROOT
ATOM      1  C   UNL     1      50.621   9.190  13.906  0.00  0.00    +0.000 C 
ATOM      2  C   UNL     1      49.684   8.373  14.799  0.00  0.00    +0.000 C 
ENDROOT
BRANCH   2   3
ATOM      3  C   UNL     1      48.417   7.878  14.114  0.00  0.00    +0.000 A 
ATOM      4  C   UNL     1      48.304   6.512  13.805  0.00  0.00    +0.000 A 
ATOM      5  C   UNL     1      47.188   6.012  13.124  0.00  0.00    +0.000 A 
ATOM      6  C   UNL     1      46.159   6.867  12.716  0.00  0.00    +0.000 A 
ATOM      7  C   UNL     1      46.254   8.226  13.039  0.00  0.00    +0.000 A 
ATOM      8  C   UNL     1      47.375   8.729  13.717  0.00  0.00    +0.000 A 
BRANCH   6   9
ATOM      9  C   UNL     1      44.975   6.334  11.955  0.00  0.00    +0.000 C 
BRANCH   9  10
ATOM     10  N   UNL     1      45.375   5.364  10.967  0.00  0.00    +0.000 N 
ATOM     11  C   UNL     1      44.492   4.427  10.484  0.00  0.00    +0.000 C 
ATOM     12  O   UNL     1      43.333   4.341  10.888  0.00  0.00    +0.000 OA
ATOM     13  H   UNL     1      46.288   5.458  10.549  0.00  0.00    +0.000 HD
BRANCH  11  14
ATOM     14  C   UNL     1      45.018   3.560   9.466  0.00  0.00    +0.000 A 
ATOM     15  C   UNL     1      45.489   3.778   8.184  0.00  0.00    +0.000 A 
ATOM     16  C   UNL     1      45.871   2.512   7.708  0.00  0.00    +0.000 A 
ATOM     17  N   UNL     1      45.665   1.549   8.607  0.00  0.00    +0.000 NA
ATOM     18  N   UNL     1      45.153   2.211   9.664  0.00  0.00    +0.000 N 
ATOM     19  H   UNL     1      44.911   1.688  10.500  0.00  0.00    +0.000 HD
ENDBRANCH  11  14
ENDBRANCH   9  10
ENDBRANCH   6   9
ENDBRANCH   2   3
BRANCH   2  20
ATOM     20  N   UNL     1      50.392   7.240  15.370  0.00  0.00    +0.000 N 
ATOM     21  C   UNL     1      50.356   6.952  16.712  0.00  0.00    +0.000 C 
ATOM     22  O   UNL     1      49.639   7.569  17.497  0.00  0.00    +0.000 OA
ATOM     23  H   UNL     1      51.114   6.823  14.793  0.00  0.00    +0.000 HD
BRANCH  21  24
ATOM     24  C   UNL     1      51.176   5.821  17.156  0.00  0.00    +0.000 A 
ATOM     25  C   UNL     1      52.501   6.025  17.519  0.00  0.00    +0.000 A 
ATOM     26  S   UNL     1      53.296   4.603  18.023  0.00  0.00    +0.000 S 
ATOM     27  C   UNL     1      51.915   3.657  17.719  0.00  0.00    +0.000 A 
ATOM     28  N   UNL     1      51.934   2.309  17.907  0.00  0.00    +0.000 NA
ATOM     29  C   UNL     1      50.834   1.713  17.589  0.00  0.00    +0.000 A 
ATOM     30  N   UNL     1      49.713   2.342  17.110  0.00  0.00    +0.000 N 
ATOM     31  C   UNL     1      49.628   3.706  16.962  0.00  0.00    +0.000 A 
ATOM     32  O   UNL     1      48.581   4.247  16.623  0.00  0.00    +0.000 OA
ATOM     33  C   UNL     1      50.853   4.420  17.269  0.00  0.00    +0.000 A 
ATOM     34  H   UNL     1      48.877   1.816  16.902  0.00  0.00    +0.000 HD
ENDBRANCH  21  24
ENDBRANCH   2  20
TORSDOF 6
ENDMDL
