MODEL 1
REMARK VINA RESULT:    -8.264      0.000      0.000
REMARK INTER + INTRA:         -12.330
REMARK INTER:                 -11.163
REMARK INTRA:                  -1.166
REMARK UNBOUND:                -1.166
REMARK  Name = 
REMARK  6 active torsions:
REMARK  status: ('A' for Active; 'I' for Inactive)
REMARK    1  A    between atoms: C_2  and  C_25
REMARK    2  A    between atoms: N_3  and  C_4
REMARK    3  A    between atoms: C_4  and  C_5
REMARK    4  A    between atoms: C_8  and  C_9
REMARK    5  A    between atoms: C_9  and  N_10
REMARK    6  A    between atoms: C_11  and  C_13
REMARK                            x       y       z     vdW  Elec       q    Type
REMARK                         _______ _______ _______ _____ _____    ______ ____
ROOT
ATOM      1  C   UNL     1      44.759   5.779  10.847  0.00  0.00    +0.000 A 
ATOM      2  C   UNL     1      46.145   5.878  10.663  0.00  0.00    +0.000 A 
ATOM      3  C   UNL     1      46.919   6.700  11.492  0.00  0.00    +0.000 A 
ATOM      4  C   UNL     1      46.328   7.423  12.535  0.00  0.00    +0.000 A 
ATOM      5  C   UNL     1      44.939   7.345  12.701  0.00  0.00    +0.000 A 
ATOM      6  C   UNL     1      44.164   6.522  11.875  0.00  0.00    +0.000 A 
ENDROOT
BRANCH   1   7
ATOM      7  C   UNL     1      43.930   4.886   9.962  0.00  0.00    +0.000 C 
BRANCH   7  10
ATOM      8  O   UNL     1      44.441   2.097  10.043  0.00  0.00    +0.000 OA
ATOM      9  C   UNL     1      44.931   2.796   9.169  0.00  0.00    +0.000 C 
ATOM     10  N   UNL     1      44.728   4.148   9.015  0.00  0.00    +0.000 N 
ATOM     11  H   UNL     1      45.225   4.621   8.266  0.00  0.00    +0.000 HD
BRANCH   9  12
ATOM     12  C   UNL     1      45.857   2.181   8.154  0.00  0.00    +0.000 C 
ATOM     13  C   UNL     1      46.378   2.930   6.998  0.00  0.00    +0.000 C 
ATOM     14  C   UNL     1      47.191   1.965   6.326  0.00  0.00    +0.000 C 
ATOM     15  C   UNL     1      47.108   0.848   7.064  0.00  0.00    +0.000 C 
ATOM     16  N   UNL     1      46.298   0.944   8.188  0.00  0.00    +0.000 NA
ENDBRANCH   9  12
ENDBRANCH   7  10
ENDBRANCH   1   7
BRANCH   4  17
ATOM     17  C   UNL     1      47.164   8.276  13.458  0.00  0.00    +0.000 C 
BRANCH  17  18
ATOM     18  N   UNL     1      47.562   7.560  14.642  0.00  0.00    +0.000 N 
ATOM     19  C   UNL     1      48.788   6.947  14.720  0.00  0.00    +0.000 C 
ATOM     20  O   UNL     1      49.622   7.035  13.825  0.00  0.00    +0.000 OA
ATOM     21  H   UNL     1      46.825   7.289  15.285  0.00  0.00    +0.000 HD
BRANCH  19  22
ATOM     22  C   UNL     1      49.078   6.219  15.966  0.00  0.00    +0.000 A 
ATOM     23  C   UNL     1      50.126   6.625  16.775  0.00  0.00    +0.000 A 
ATOM     24  S   UNL     1      50.295   5.701  18.199  0.00  0.00    +0.000 S 
ATOM     25  C   UNL     1      49.003   4.686  17.756  0.00  0.00    +0.000 A 
ATOM     26  N   UNL     1      48.634   3.642  18.543  0.00  0.00    +0.000 NA
ATOM     27  C   UNL     1      47.659   2.936  18.071  0.00  0.00    +0.000 A 
ATOM     28  N   UNL     1      47.019   3.186  16.885  0.00  0.00    +0.000 N 
ATOM     29  C   UNL     1      47.338   4.246  16.073  0.00  0.00    +0.000 A 
ATOM     30  O   UNL     1      46.714   4.468  15.041  0.00  0.00    +0.000 OA
ATOM     31  C   UNL     1      48.437   5.063  16.550  0.00  0.00    +0.000 A 
ATOM     32  H   UNL     1      46.255   2.602  16.575  0.00  0.00    +0.000 HD
ENDBRANCH  19  22
ENDBRANCH  17  18
ENDBRANCH   4  17
TORSDOF 6
ENDMDL
MODEL 2
REMARK VINA RESULT:    -7.312      1.543      1.746
REMARK INTER + INTRA:         -11.043
REMARK INTER:                 -10.198
REMARK INTRA:                  -0.846
REMARK UNBOUND:                -1.166
REMARK  Name = 
REMARK  6 active torsions:
REMARK  status: ('A' for Active; 'I' for Inactive)
REMARK    1  A    between atoms: C_2  and  C_25
REMARK    2  A    between atoms: N_3  and  C_4
REMARK    3  A    between atoms: C_4  and  C_5
REMARK    4  A    between atoms: C_8  and  C_9
REMARK    5  A    between atoms: C_9  and  N_10
REMARK    6  A    between atoms: C_11  and  C_13
REMARK                            x       y       z     vdW  Elec       q    Type
REMARK                         _______ _______ _______ _____ _____    ______ ____
ROOT
ATOM      1  C   UNL     1      45.106   6.265  11.352  0.00  0.00    +0.000 A 
ATOM      2  C   UNL     1      46.402   5.939  11.775  0.00  0.00    +0.000 A 
ATOM      3  C   UNL     1      47.166   6.854  12.510  0.00  0.00    +0.000 A 
ATOM      4  C   UNL     1      46.645   8.107  12.856  0.00  0.00    +0.000 A 
ATOM      5  C   UNL     1      45.359   8.444  12.409  0.00  0.00    +0.000 A 
ATOM      6  C   UNL     1      44.593   7.529  11.677  0.00  0.00    +0.000 A 
ENDROOT
BRANCH   1   7
ATOM      7  C   UNL     1      44.281   5.276  10.573  0.00  0.00    +0.000 C 
BRANCH   7  10
ATOM      8  O   UNL     1      44.261   2.563   9.746  0.00  0.00    +0.000 OA
ATOM      9  C   UNL     1      44.927   3.393   9.146  0.00  0.00    +0.000 C 
ATOM     10  N   UNL     1      44.988   4.735   9.439  0.00  0.00    +0.000 N 
ATOM     11  H   UNL     1      45.612   5.315   8.884  0.00  0.00    +0.000 HD
BRANCH   9  12
ATOM     12  C   UNL     1      45.787   2.963   7.988  0.00  0.00    +0.000 C 
ATOM     13  C   UNL     1      46.443   1.647   7.931  0.00  0.00    +0.000 C 
ATOM     14  C   UNL     1      47.139   1.684   6.683  0.00  0.00    +0.000 C 
ATOM     15  C   UNL     1      46.858   2.883   6.150  0.00  0.00    +0.000 C 
ATOM     16  N   UNL     1      46.036   3.692   6.924  0.00  0.00    +0.000 NA
ENDBRANCH   9  12
ENDBRANCH   7  10
ENDBRANCH   1   7
BRANCH   4  17
ATOM     17  C   UNL     1      47.448   9.080  13.684  0.00  0.00    +0.000 C 
BRANCH  17  18
ATOM     18  N   UNL     1      47.549   8.663  15.059  0.00  0.00    +0.000 N 
ATOM     19  C   UNL     1      48.768   8.385  15.627  0.00  0.00    +0.000 C 
ATOM     20  O   UNL     1      49.823   8.543  15.020  0.00  0.00    +0.000 OA
ATOM     21  H   UNL     1      46.703   8.318  15.498  0.00  0.00    +0.000 HD
BRANCH  19  22
ATOM     22  C   UNL     1      48.751   7.940  17.029  0.00  0.00    +0.000 A 
ATOM     23  C   UNL     1      48.838   8.872  18.050  0.00  0.00    +0.000 A 
ATOM     24  S   UNL     1      48.759   8.191  19.612  0.00  0.00    +0.000 S 
ATOM     25  C   UNL     1      48.662   6.615  18.977  0.00  0.00    +0.000 A 
ATOM     26  N   UNL     1      48.599   5.534  19.798  0.00  0.00    +0.000 NA
ATOM     27  C   UNL     1      48.561   4.398  19.182  0.00  0.00    +0.000 A 
ATOM     28  N   UNL     1      48.575   4.249  17.820  0.00  0.00    +0.000 N 
ATOM     29  C   UNL     1      48.607   5.312  16.953  0.00  0.00    +0.000 A 
ATOM     30  O   UNL     1      48.571   5.146  15.738  0.00  0.00    +0.000 OA
ATOM     31  C   UNL     1      48.666   6.613  17.593  0.00  0.00    +0.000 A 
ATOM     32  H   UNL     1      48.532   3.332  17.398  0.00  0.00    +0.000 HD
ENDBRANCH  19  22
ENDBRANCH  17  18
ENDBRANCH   4  17
TORSDOF 6
ENDMDL
MODEL 3
REMARK VINA RESULT:    -6.544      3.100      4.553
REMARK INTER + INTRA:         -10.006
REMARK INTER:                  -9.032
REMARK INTRA:                  -0.974
REMARK UNBOUND:                -1.166
REMARK  Name = 
REMARK  6 active torsions:
REMARK  status: ('A' for Active; 'I' for Inactive)
REMARK    1  A    between atoms: C_2  and  C_25
REMARK    2  A    between atoms: N_3  and  C_4
REMARK    3  A    between atoms: C_4  and  C_5
REMARK    4  A    between atoms: C_8  and  C_9
REMARK    5  A    between atoms: C_9  and  N_10
REMARK    6  A    between atoms: C_11  and  C_13
REMARK                            x       y       z     vdW  Elec       q    Type
REMARK                         _______ _______ _______ _____ _____    ______ ____
ROOT
ATOM      1  C   UNL     1      45.015   4.874  12.000  0.00  0.00    +0.000 A 
ATOM      2  C   UNL     1      44.591   6.167  11.665  0.00  0.00    +0.000 A 
ATOM      3  C   UNL     1      45.249   7.291  12.178  0.00  0.00    +0.000 A 
ATOM      4  C   UNL     1      46.359   7.148  13.020  0.00  0.00    +0.000 A 
ATOM      5  C   UNL     1      46.767   5.855  13.377  0.00  0.00    +0.000 A 
ATOM      6  C   UNL     1      46.111   4.730  12.862  0.00  0.00    +0.000 A 
ENDROOT
BRANCH   1   7
ATOM      7  C   UNL     1      44.314   3.667  11.437  0.00  0.00    +0.000 C 
BRANCH   7  10
ATOM      8  O   UNL     1      44.399   4.138   8.642  0.00  0.00    +0.000 OA
ATOM      9  C   UNL     1      45.065   3.246   9.144  0.00  0.00    +0.000 C 
ATOM     10  N   UNL     1      45.124   2.948  10.485  0.00  0.00    +0.000 N 
ATOM     11  H   UNL     1      45.690   2.154  10.772  0.00  0.00    +0.000 HD
BRANCH   9  12
ATOM     12  C   UNL     1      45.900   2.352   8.266  0.00  0.00    +0.000 C 
ATOM     13  C   UNL     1      46.664   2.860   7.115  0.00  0.00    +0.000 C 
ATOM     14  C   UNL     1      47.282   1.682   6.591  0.00  0.00    +0.000 C 
ATOM     15  C   UNL     1      46.891   0.682   7.394  0.00  0.00    +0.000 C 
ATOM     16  N   UNL     1      46.041   1.056   8.428  0.00  0.00    +0.000 NA
ENDBRANCH   9  12
ENDBRANCH   7  10
ENDBRANCH   1   7
BRANCH   4  17
ATOM     17  C   UNL     1      47.099   8.356  13.541  0.00  0.00    +0.000 C 
BRANCH  17  18
ATOM     18  N   UNL     1      48.527   8.172  13.503  0.00  0.00    +0.000 N 
ATOM     19  C   UNL     1      49.355   8.882  14.336  0.00  0.00    +0.000 C 
ATOM     20  O   UNL     1      48.922   9.649  15.191  0.00  0.00    +0.000 OA
ATOM     21  H   UNL     1      48.911   7.727  12.677  0.00  0.00    +0.000 HD
BRANCH  19  22
ATOM     22  C   UNL     1      50.798   8.635  14.192  0.00  0.00    +0.000 A 
ATOM     23  C   UNL     1      51.547   8.254  15.294  0.00  0.00    +0.000 A 
ATOM     24  S   UNL     1      53.191   7.965  14.941  0.00  0.00    +0.000 S 
ATOM     25  C   UNL     1      52.971   8.395  13.309  0.00  0.00    +0.000 A 
ATOM     26  N   UNL     1      54.016   8.392  12.440  0.00  0.00    +0.000 NA
ATOM     27  C   UNL     1      53.713   8.769  11.241  0.00  0.00    +0.000 A 
ATOM     28  N   UNL     1      52.458   9.144  10.835  0.00  0.00    +0.000 N 
ATOM     29  C   UNL     1      51.369   9.132  11.670  0.00  0.00    +0.000 A 
ATOM     30  O   UNL     1      50.251   9.428  11.263  0.00  0.00    +0.000 OA
ATOM     31  C   UNL     1      51.657   8.730  13.034  0.00  0.00    +0.000 A 
ATOM     32  H   UNL     1      52.283   9.419   9.879  0.00  0.00    +0.000 HD
ENDBRANCH  19  22
ENDBRANCH  17  18
ENDBRANCH   4  17
TORSDOF 6
ENDMDL
MODEL 4
REMARK VINA RESULT:    -6.414      2.296      2.959
REMARK INTER + INTRA:          -9.830
REMARK INTER:                  -8.919
REMARK INTRA:                  -0.911
REMARK UNBOUND:                -1.166
REMARK  Name = 
REMARK  6 active torsions:
REMARK  status: ('A' for Active; 'I' for Inactive)
REMARK    1  A    between atoms: C_2  and  C_25
REMARK    2  A    between atoms: N_3  and  C_4
REMARK    3  A    between atoms: C_4  and  C_5
REMARK    4  A    between atoms: C_8  and  C_9
REMARK    5  A    between atoms: C_9  and  N_10
REMARK    6  A    between atoms: C_11  and  C_13
REMARK                            x       y       z     vdW  Elec       q    Type
REMARK                         _______ _______ _______ _____ _____    ______ ____
ROOT
ATOM      1  C   UNL     1      46.176   5.994  11.796  0.00  0.00    +0.000 A 
ATOM      2  C   UNL     1      47.130   6.935  11.385  0.00  0.00    +0.000 A 
ATOM      3  C   UNL     1      48.141   7.357  12.258  0.00  0.00    +0.000 A 
ATOM      4  C   UNL     1      48.232   6.832  13.553  0.00  0.00    +0.000 A 
ATOM      5  C   UNL     1      47.263   5.911  13.973  0.00  0.00    +0.000 A 
ATOM      6  C   UNL     1      46.254   5.487  13.100  0.00  0.00    +0.000 A 
ENDROOT
BRANCH   1   7
ATOM      7  C   UNL     1      45.098   5.533  10.852  0.00  0.00    +0.000 C 
BRANCH   7  10
ATOM      8  O   UNL     1      44.192   3.090   9.732  0.00  0.00    +0.000 OA
ATOM      9  C   UNL     1      45.127   3.697   9.231  0.00  0.00    +0.000 C 
ATOM     10  N   UNL     1      45.629   4.900   9.671  0.00  0.00    +0.000 N 
ATOM     11  H   UNL     1      46.436   5.283   9.187  0.00  0.00    +0.000 HD
BRANCH   9  12
ATOM     12  C   UNL     1      45.841   3.117   8.039  0.00  0.00    +0.000 C 
ATOM     13  C   UNL     1      46.326   1.728   8.002  0.00  0.00    +0.000 C 
ATOM     14  C   UNL     1      46.927   1.629   6.709  0.00  0.00    +0.000 C 
ATOM     15  C   UNL     1      46.754   2.830   6.138  0.00  0.00    +0.000 C 
ATOM     16  N   UNL     1      46.097   3.766   6.926  0.00  0.00    +0.000 NA
ENDBRANCH   9  12
ENDBRANCH   7  10
ENDBRANCH   1   7
BRANCH   4  17
ATOM     17  C   UNL     1      49.345   7.250  14.483  0.00  0.00    +0.000 C 
BRANCH  17  18
ATOM     18  N   UNL     1      49.162   6.729  15.813  0.00  0.00    +0.000 N 
ATOM     19  C   UNL     1      48.852   7.557  16.863  0.00  0.00    +0.000 C 
ATOM     20  O   UNL     1      48.650   8.758  16.711  0.00  0.00    +0.000 OA
ATOM     21  H   UNL     1      49.535   5.804  15.999  0.00  0.00    +0.000 HD
BRANCH  19  22
ATOM     22  C   UNL     1      48.716   6.920  18.182  0.00  0.00    +0.000 A 
ATOM     23  C   UNL     1      47.506   6.977  18.855  0.00  0.00    +0.000 A 
ATOM     24  S   UNL     1      47.510   6.150  20.347  0.00  0.00    +0.000 S 
ATOM     25  C   UNL     1      49.151   5.734  20.173  0.00  0.00    +0.000 A 
ATOM     26  N   UNL     1      49.799   5.031  21.139  0.00  0.00    +0.000 NA
ATOM     27  C   UNL     1      51.048   4.811  20.890  0.00  0.00    +0.000 A 
ATOM     28  N   UNL     1      51.704   5.228  19.761  0.00  0.00    +0.000 N 
ATOM     29  C   UNL     1      51.082   5.912  18.747  0.00  0.00    +0.000 A 
ATOM     30  O   UNL     1      51.687   6.229  17.728  0.00  0.00    +0.000 OA
ATOM     31  C   UNL     1      49.680   6.199  18.982  0.00  0.00    +0.000 A 
ATOM     32  H   UNL     1      52.681   5.015  19.620  0.00  0.00    +0.000 HD
ENDBRANCH  19  22
ENDBRANCH  17  18
ENDBRANCH   4  17
TORSDOF 6
ENDMDL
MODEL 5
REMARK VINA RESULT:    -6.286      5.558      7.859
REMARK INTER + INTRA:          -9.658
REMARK INTER:                  -8.797
REMARK INTRA:                  -0.861
REMARK UNBOUND:                -1.166
REMARK  Name = 
REMARK  6 active torsions:
REMARK  status: ('A' for Active; 'I' for Inactive)
REMARK    1  A    between atoms: C_2  and  C_25
REMARK    2  A    between atoms: N_3  and  C_4
REMARK    3  A    between atoms: C_4  and  C_5
REMARK    4  A    between atoms: C_8  and  C_9
REMARK    5  A    between atoms: C_9  and  N_10
REMARK    6  A    between atoms: C_11  and  C_13
REMARK                            x       y       z     vdW  Elec       q    Type
REMARK                         _______ _______ _______ _____ _____    ______ ____
ROOT
ATOM      1  C   UNL     1      48.767   6.832  13.892  0.00  0.00    +0.000 A 
ATOM      2  C   UNL     1      48.682   6.958  12.499  0.00  0.00    +0.000 A 
ATOM      3  C   UNL     1      49.543   7.817  11.805  0.00  0.00    +0.000 A 
ATOM      4  C   UNL     1      50.521   8.553  12.485  0.00  0.00    +0.000 A 
ATOM      5  C   UNL     1      50.588   8.448  13.881  0.00  0.00    +0.000 A 
ATOM      6  C   UNL     1      49.730   7.587  14.576  0.00  0.00    +0.000 A 
ENDROOT
BRANCH   1   7
ATOM      7  C   UNL     1      47.849   5.898  14.635  0.00  0.00    +0.000 C 
BRANCH   7  10
ATOM      8  O   UNL     1      47.183   3.256  13.851  0.00  0.00    +0.000 OA
ATOM      9  C   UNL     1      46.488   4.201  13.511  0.00  0.00    +0.000 C 
ATOM     10  N   UNL     1      46.698   5.515  13.856  0.00  0.00    +0.000 N 
ATOM     11  H   UNL     1      46.065   6.214  13.476  0.00  0.00    +0.000 HD
BRANCH   9  12
ATOM     12  C   UNL     1      45.295   3.969  12.622  0.00  0.00    +0.000 C 
ATOM     13  C   UNL     1      45.098   4.687  11.353  0.00  0.00    +0.000 C 
ATOM     14  C   UNL     1      43.861   4.158  10.869  0.00  0.00    +0.000 C 
ATOM     15  C   UNL     1      43.473   3.256  11.783  0.00  0.00    +0.000 C 
ATOM     16  N   UNL     1      44.325   3.117  12.871  0.00  0.00    +0.000 NA
ENDBRANCH   9  12
ENDBRANCH   7  10
ENDBRANCH   1   7
BRANCH   4  17
ATOM     17  C   UNL     1      51.479   9.448  11.737  0.00  0.00    +0.000 C 
BRANCH  17  18
ATOM     18  N   UNL     1      51.731   8.972  10.402  0.00  0.00    +0.000 N 
ATOM     19  C   UNL     1      52.990   8.588  10.012  0.00  0.00    +0.000 C 
ATOM     20  O   UNL     1      53.937   8.566  10.791  0.00  0.00    +0.000 OA
ATOM     21  H   UNL     1      51.034   9.190   9.698  0.00  0.00    +0.000 HD
BRANCH  19  22
ATOM     22  C   UNL     1      53.137   8.146   8.616  0.00  0.00    +0.000 A 
ATOM     23  C   UNL     1      52.977   9.056   7.583  0.00  0.00    +0.000 A 
ATOM     24  S   UNL     1      53.225   8.387   6.033  0.00  0.00    +0.000 S 
ATOM     25  C   UNL     1      53.500   6.840   6.687  0.00  0.00    +0.000 A 
ATOM     26  N   UNL     1      53.748   5.775   5.880  0.00  0.00    +0.000 NA
ATOM     27  C   UNL     1      53.907   4.656   6.507  0.00  0.00    +0.000 A 
ATOM     28  N   UNL     1      53.845   4.510   7.868  0.00  0.00    +0.000 N 
ATOM     29  C   UNL     1      53.627   5.561   8.723  0.00  0.00    +0.000 A 
ATOM     30  O   UNL     1      53.624   5.404   9.939  0.00  0.00    +0.000 OA
ATOM     31  C   UNL     1      53.427   6.841   8.069  0.00  0.00    +0.000 A 
ATOM     32  H   UNL     1      53.989   3.608   8.300  0.00  0.00    +0.000 HD
ENDBRANCH  19  22
ENDBRANCH  17  18
ENDBRANCH   4  17
TORSDOF 6
ENDMDL
MODEL 6
REMARK VINA RESULT:    -6.234      3.104      8.906
REMARK INTER + INTRA:          -9.587
REMARK INTER:                  -8.696
REMARK INTRA:                  -0.891
REMARK UNBOUND:                -1.166
REMARK  Name = 
REMARK  6 active torsions:
REMARK  status: ('A' for Active; 'I' for Inactive)
REMARK    1  A    between atoms: C_2  and  C_25
REMARK    2  A    between atoms: N_3  and  C_4
REMARK    3  A    between atoms: C_4  and  C_5
REMARK    4  A    between atoms: C_8  and  C_9
REMARK    5  A    between atoms: C_9  and  N_10
REMARK    6  A    between atoms: C_11  and  C_13
REMARK                            x       y       z     vdW  Elec       q    Type
REMARK                         _______ _______ _______ _____ _____    ______ ____
ROOT
ATOM      1  C   UNL     1      50.388   7.420  15.043  0.00  0.00    +0.000 A 
ATOM      2  C   UNL     1      49.127   6.826  15.192  0.00  0.00    +0.000 A 
ATOM      3  C   UNL     1      48.147   6.973  14.203  0.00  0.00    +0.000 A 
ATOM      4  C   UNL     1      48.412   7.698  13.035  0.00  0.00    +0.000 A 
ATOM      5  C   UNL     1      49.664   8.315  12.898  0.00  0.00    +0.000 A 
ATOM      6  C   UNL     1      50.646   8.166  13.885  0.00  0.00    +0.000 A 
ENDROOT
BRANCH   1   7
ATOM      7  C   UNL     1      51.445   7.251  16.102  0.00  0.00    +0.000 C 
BRANCH   7  10
ATOM      8  O   UNL     1      51.449   4.604  17.122  0.00  0.00    +0.000 OA
ATOM      9  C   UNL     1      50.933   5.514  17.752  0.00  0.00    +0.000 C 
ATOM     10  N   UNL     1      50.899   6.835  17.370  0.00  0.00    +0.000 N 
ATOM     11  H   UNL     1      50.404   7.490  17.969  0.00  0.00    +0.000 HD
BRANCH   9  12
ATOM     12  C   UNL     1      50.246   5.221  19.059  0.00  0.00    +0.000 C 
ATOM     13  C   UNL     1      48.832   4.821  19.140  0.00  0.00    +0.000 C 
ATOM     14  C   UNL     1      48.621   4.658  20.544  0.00  0.00    +0.000 C 
ATOM     15  C   UNL     1      49.801   4.930  21.120  0.00  0.00    +0.000 C 
ATOM     16  N   UNL     1      50.817   5.281  20.240  0.00  0.00    +0.000 NA
ENDBRANCH   9  12
ENDBRANCH   7  10
ENDBRANCH   1   7
BRANCH   4  17
ATOM     17  C   UNL     1      47.374   7.823  11.946  0.00  0.00    +0.000 C 
BRANCH  17  18
ATOM     18  N   UNL     1      46.726   6.567  11.671  0.00  0.00    +0.000 N 
ATOM     19  C   UNL     1      45.358   6.459  11.677  0.00  0.00    +0.000 C 
ATOM     20  O   UNL     1      44.626   7.429  11.846  0.00  0.00    +0.000 OA
ATOM     21  H   UNL     1      47.294   5.730  11.750  0.00  0.00    +0.000 HD
BRANCH  19  22
ATOM     22  C   UNL     1      44.805   5.121  11.411  0.00  0.00    +0.000 A 
ATOM     23  C   UNL     1      44.063   4.474  12.386  0.00  0.00    +0.000 A 
ATOM     24  S   UNL     1      43.461   2.955  11.897  0.00  0.00    +0.000 S 
ATOM     25  C   UNL     1      44.221   3.083  10.379  0.00  0.00    +0.000 A 
ATOM     26  N   UNL     1      44.129   2.081   9.465  0.00  0.00    +0.000 NA
ATOM     27  C   UNL     1      44.780   2.298   8.369  0.00  0.00    +0.000 A 
ATOM     28  N   UNL     1      45.509   3.428   8.106  0.00  0.00    +0.000 N 
ATOM     29  C   UNL     1      45.604   4.477   8.986  0.00  0.00    +0.000 A 
ATOM     30  O   UNL     1      46.226   5.494   8.700  0.00  0.00    +0.000 OA
ATOM     31  C   UNL     1      44.904   4.279  10.241  0.00  0.00    +0.000 A 
ATOM     32  H   UNL     1      45.987   3.543   7.224  0.00  0.00    +0.000 HD
ENDBRANCH  19  22
ENDBRANCH  17  18
ENDBRANCH   4  17
TORSDOF 6
ENDMDL
MODEL 7
REMARK VINA RESULT:    -6.097      2.036      2.968
REMARK INTER + INTRA:          -9.403
REMARK INTER:                  -8.458
REMARK INTRA:                  -0.944
REMARK UNBOUND:                -1.166
REMARK  Name = 
REMARK  6 active torsions:
REMARK  status: ('A' for Active; 'I' for Inactive)
REMARK    1  A    between atoms: C_2  and  C_25
REMARK    2  A    between atoms: N_3  and  C_4
REMARK    3  A    between atoms: C_4  and  C_5
REMARK    4  A    between atoms: C_8  and  C_9
REMARK    5  A    between atoms: C_9  and  N_10
REMARK    6  A    between atoms: C_11  and  C_13
REMARK                            x       y       z     vdW  Elec       q    Type
REMARK                         _______ _______ _______ _____ _____    ______ ____
ROOT
ATOM      1  C   UNL     1      46.572   7.605  12.349  0.00  0.00    +0.000 A 
ATOM      2  C   UNL     1      47.699   6.908  11.894  0.00  0.00    +0.000 A 
ATOM      3  C   UNL     1      48.930   7.035  12.550  0.00  0.00    +0.000 A 
ATOM      4  C   UNL     1      49.056   7.845  13.685  0.00  0.00    +0.000 A 
ATOM      5  C   UNL     1      47.935   8.563  14.123  0.00  0.00    +0.000 A 
ATOM      6  C   UNL     1      46.703   8.435  13.470  0.00  0.00    +0.000 A 
ENDROOT
BRANCH   1   7
ATOM      7  C   UNL     1      45.246   7.458  11.650  0.00  0.00    +0.000 C 
BRANCH   7  10
ATOM      8  O   UNL     1      43.919   4.959  11.840  0.00  0.00    +0.000 OA
ATOM      9  C   UNL     1      44.598   5.232  10.861  0.00  0.00    +0.000 C 
ATOM     10  N   UNL     1      45.258   6.419  10.650  0.00  0.00    +0.000 N 
ATOM     11  H   UNL     1      45.821   6.507   9.809  0.00  0.00    +0.000 HD
BRANCH   9  12
ATOM     12  C   UNL     1      44.775   4.212   9.768  0.00  0.00    +0.000 C 
ATOM     13  C   UNL     1      44.514   2.778   9.970  0.00  0.00    +0.000 C 
ATOM     14  C   UNL     1      44.814   2.210   8.693  0.00  0.00    +0.000 C 
ATOM     15  C   UNL     1      45.174   3.243   7.916  0.00  0.00    +0.000 C 
ATOM     16  N   UNL     1      45.165   4.482   8.543  0.00  0.00    +0.000 NA
ENDBRANCH   9  12
ENDBRANCH   7  10
ENDBRANCH   1   7
BRANCH   4  17
ATOM     17  C   UNL     1      50.370   7.952  14.421  0.00  0.00    +0.000 C 
BRANCH  17  18
ATOM     18  N   UNL     1      50.247   7.567  15.803  0.00  0.00    +0.000 N 
ATOM     19  C   UNL     1      51.271   6.923  16.453  0.00  0.00    +0.000 C 
ATOM     20  O   UNL     1      52.353   6.708  15.916  0.00  0.00    +0.000 OA
ATOM     21  H   UNL     1      49.309   7.531  16.188  0.00  0.00    +0.000 HD
BRANCH  19  22
ATOM     22  C   UNL     1      51.025   6.551  17.855  0.00  0.00    +0.000 A 
ATOM     23  C   UNL     1      51.821   7.079  18.859  0.00  0.00    +0.000 A 
ATOM     24  S   UNL     1      51.372   6.580  20.427  0.00  0.00    +0.000 S 
ATOM     25  C   UNL     1      50.129   5.593  19.814  0.00  0.00    +0.000 A 
ATOM     26  N   UNL     1      49.357   4.845  20.646  0.00  0.00    +0.000 NA
ATOM     27  C   UNL     1      48.472   4.119  20.044  0.00  0.00    +0.000 A 
ATOM     28  N   UNL     1      48.290   4.080  18.686  0.00  0.00    +0.000 N 
ATOM     29  C   UNL     1      49.025   4.840  17.811  0.00  0.00    +0.000 A 
ATOM     30  O   UNL     1      48.804   4.816  16.605  0.00  0.00    +0.000 OA
ATOM     31  C   UNL     1      50.044   5.663  18.435  0.00  0.00    +0.000 A 
ATOM     32  H   UNL     1      47.573   3.499  18.276  0.00  0.00    +0.000 HD
ENDBRANCH  19  22
ENDBRANCH  17  18
ENDBRANCH   4  17
TORSDOF 6
ENDMDL
MODEL 8
REMARK VINA RESULT:    -5.873      2.158      2.618
REMARK INTER + INTRA:          -9.099
REMARK INTER:                  -8.279
REMARK INTRA:                  -0.819
REMARK UNBOUND:                -1.166
REMARK  Name = 
REMARK  6 active torsions:
REMARK  status: ('A' for Active; 'I' for Inactive)
REMARK    1  A    between atoms: C_2  and  C_25
REMARK    2  A    between atoms: N_3  and  C_4
REMARK    3  A    between atoms: C_4  and  C_5
REMARK    4  A    between atoms: C_8  and  C_9
REMARK    5  A    between atoms: C_9  and  N_10
REMARK    6  A    between atoms: C_11  and  C_13
REMARK                            x       y       z     vdW  Elec       q    Type
REMARK                         _______ _______ _______ _____ _____    ______ ____
ROOT
ATOM      1  C   UNL     1      46.335   6.285  11.875  0.00  0.00    +0.000 A 
ATOM      2  C   UNL     1      46.472   5.862  13.204  0.00  0.00    +0.000 A 
ATOM      3  C   UNL     1      47.573   6.263  13.972  0.00  0.00    +0.000 A 
ATOM      4  C   UNL     1      48.549   7.111  13.434  0.00  0.00    +0.000 A 
ATOM      5  C   UNL     1      48.426   7.512  12.096  0.00  0.00    +0.000 A 
ATOM      6  C   UNL     1      47.324   7.114  11.329  0.00  0.00    +0.000 A 
ENDROOT
BRANCH   1   7
ATOM      7  C   UNL     1      45.144   5.863  11.055  0.00  0.00    +0.000 C 
BRANCH   7  10
ATOM      8  O   UNL     1      44.570   3.122  10.610  0.00  0.00    +0.000 OA
ATOM      9  C   UNL     1      45.206   3.767   9.791  0.00  0.00    +0.000 C 
ATOM     10  N   UNL     1      45.516   5.103   9.888  0.00  0.00    +0.000 N 
ATOM     11  H   UNL     1      46.085   5.514   9.153  0.00  0.00    +0.000 HD
BRANCH   9  12
ATOM     12  C   UNL     1      45.736   3.088   8.556  0.00  0.00    +0.000 C 
ATOM     13  C   UNL     1      46.046   3.821   7.318  0.00  0.00    +0.000 C 
ATOM     14  C   UNL     1      46.504   2.792   6.437  0.00  0.00    +0.000 C 
ATOM     15  C   UNL     1      46.450   1.658   7.151  0.00  0.00    +0.000 C 
ATOM     16  N   UNL     1      45.981   1.802   8.450  0.00  0.00    +0.000 NA
ENDBRANCH   9  12
ENDBRANCH   7  10
ENDBRANCH   1   7
BRANCH   4  17
ATOM     17  C   UNL     1      49.715   7.581  14.270  0.00  0.00    +0.000 C 
BRANCH  17  18
ATOM     18  N   UNL     1      49.880   6.788  15.460  0.00  0.00    +0.000 N 
ATOM     19  C   UNL     1      50.179   7.373  16.665  0.00  0.00    +0.000 C 
ATOM     20  O   UNL     1      50.252   8.590  16.802  0.00  0.00    +0.000 OA
ATOM     21  H   UNL     1      50.044   5.795  15.331  0.00  0.00    +0.000 HD
BRANCH  19  22
ATOM     22  C   UNL     1      50.353   6.463  17.809  0.00  0.00    +0.000 A 
ATOM     23  C   UNL     1      51.521   5.728  17.935  0.00  0.00    +0.000 A 
ATOM     24  S   UNL     1      51.577   4.761  19.339  0.00  0.00    +0.000 S 
ATOM     25  C   UNL     1      50.013   5.248  19.801  0.00  0.00    +0.000 A 
ATOM     26  N   UNL     1      49.431   4.755  20.926  0.00  0.00    +0.000 NA
ATOM     27  C   UNL     1      48.232   5.187  21.139  0.00  0.00    +0.000 A 
ATOM     28  N   UNL     1      47.566   6.071  20.331  0.00  0.00    +0.000 N 
ATOM     29  C   UNL     1      48.125   6.618  19.203  0.00  0.00    +0.000 A 
ATOM     30  O   UNL     1      47.519   7.443  18.527  0.00  0.00    +0.000 OA
ATOM     31  C   UNL     1      49.468   6.155  18.908  0.00  0.00    +0.000 A 
ATOM     32  H   UNL     1      46.631   6.378  20.558  0.00  0.00    +0.000 HD
ENDBRANCH  19  22
ENDBRANCH  17  18
ENDBRANCH   4  17
TORSDOF 6
ENDMDL
MODEL 9
REMARK VINA RESULT:    -5.627      2.804      3.800
REMARK INTER + INTRA:          -8.766
REMARK INTER:                  -7.905
REMARK INTRA:                  -0.861
REMARK UNBOUND:                -1.166
REMARK  Name = 
REMARK  6 active torsions:
REMARK  status: ('A' for Active; 'I' for Inactive)
REMARK    1  A    between atoms: C_2  and  C_25
REMARK    2  A    between atoms: N_3  and  C_4
REMARK    3  A    between atoms: C_4  and  C_5
REMARK    4  A    between atoms: C_8  and  C_9
REMARK    5  A    between atoms: C_9  and  N_10
REMARK    6  A    between atoms: C_11  and  C_13
REMARK                            x       y       z     vdW  Elec       q    Type
REMARK                         _______ _______ _______ _____ _____    ______ ____
ROOT
ATOM      1  C   UNL     1      46.942   7.148  12.777  0.00  0.00    +0.000 A 
ATOM      2  C   UNL     1      47.588   6.935  14.003  0.00  0.00    +0.000 A 
ATOM      3  C   UNL     1      48.909   7.358  14.198  0.00  0.00    +0.000 A 
ATOM      4  C   UNL     1      49.606   8.020  13.180  0.00  0.00    +0.000 A 
ATOM      5  C   UNL     1      48.969   8.209  11.945  0.00  0.00    +0.000 A 
ATOM      6  C   UNL     1      47.648   7.790  11.750  0.00  0.00    +0.000 A 
ENDROOT
BRANCH   1   7
ATOM      7  C   UNL     1      45.518   6.705  12.574  0.00  0.00    +0.000 C 
BRANCH   7  10
ATOM      8  O   UNL     1      44.701   3.989  12.536  0.00  0.00    +0.000 OA
ATOM      9  C   UNL     1      44.977   4.572  11.498  0.00  0.00    +0.000 C 
ATOM     10  N   UNL     1      45.354   5.891  11.395  0.00  0.00    +0.000 N 
ATOM     11  H   UNL     1      45.593   6.247  10.474  0.00  0.00    +0.000 HD
BRANCH   9  12
ATOM     12  C   UNL     1      44.933   3.828  10.190  0.00  0.00    +0.000 C 
ATOM     13  C   UNL     1      45.302   4.453   8.909  0.00  0.00    +0.000 C 
ATOM     14  C   UNL     1      45.108   3.396   7.966  0.00  0.00    +0.000 C 
ATOM     15  C   UNL     1      44.699   2.341   8.685  0.00  0.00    +0.000 C 
ATOM     16  N   UNL     1      44.578   2.571  10.050  0.00  0.00    +0.000 NA
ENDBRANCH   9  12
ENDBRANCH   7  10
ENDBRANCH   1   7
BRANCH   4  17
ATOM     17  C   UNL     1      51.015   8.516  13.399  0.00  0.00    +0.000 C 
BRANCH  17  18
ATOM     18  N   UNL     1      51.795   7.595  14.184  0.00  0.00    +0.000 N 
ATOM     19  C   UNL     1      52.098   7.863  15.496  0.00  0.00    +0.000 C 
ATOM     20  O   UNL     1      51.667   8.854  16.078  0.00  0.00    +0.000 OA
ATOM     21  H   UNL     1      52.336   6.903  13.677  0.00  0.00    +0.000 HD
BRANCH  19  22
ATOM     22  C   UNL     1      52.925   6.866  16.194  0.00  0.00    +0.000 A 
ATOM     23  C   UNL     1      54.304   6.998  16.204  0.00  0.00    +0.000 A 
ATOM     24  S   UNL     1      55.104   5.782  17.095  0.00  0.00    +0.000 S 
ATOM     25  C   UNL     1      53.635   5.003  17.452  0.00  0.00    +0.000 A 
ATOM     26  N   UNL     1      53.613   3.853  18.176  0.00  0.00    +0.000 NA
ATOM     27  C   UNL     1      52.433   3.352  18.346  0.00  0.00    +0.000 A 
ATOM     28  N   UNL     1      51.275   3.902  17.861  0.00  0.00    +0.000 N 
ATOM     29  C   UNL     1      51.247   5.077  17.152  0.00  0.00    +0.000 A 
ATOM     30  O   UNL     1      50.188   5.567  16.773  0.00  0.00    +0.000 OA
ATOM     31  C   UNL     1      52.548   5.674  16.920  0.00  0.00    +0.000 A 
ATOM     32  H   UNL     1      50.381   3.468  18.038  0.00  0.00    +0.000 HD
ENDBRANCH  19  22
ENDBRANCH  17  18
ENDBRANCH   4  17
TORSDOF 6
ENDMDL
