MODEL 1
REMARK VINA RESULT:    -7.780      0.000      0.000
REMARK INTER + INTRA:         -11.245
REMARK INTER:                 -10.509
REMARK INTRA:                  -0.736
REMARK UNBOUND:                -0.736
REMARK  Name = 
REMARK  6 active torsions:
REMARK  status: ('A' for Active; 'I' for Inactive)
REMARK    1  A    between atoms: C_2  and  C_19
REMARK    2  A    between atoms: N_3  and  C_4
REMARK    3  A    between atoms: C_4  and  C_5
REMARK    4  A    between atoms: C_8  and  C_9
REMARK    5  A    between atoms: C_9  and  O_10
REMARK    6  A    between atoms: O_10  and  C_11
REMARK                            x       y       z     vdW  Elec       q    Type
REMARK                         _______ _______ _______ _____ _____    ______ ____
ROOT
ATOM      1  O   UNL     1      48.617   8.255  16.227  0.00  0.00    +0.000 OA
ATOM      2  C   UNL     1      48.701   7.048  16.040  0.00  0.00    +0.000 C 
ATOM      3  N   UNL     1      48.193   6.394  14.937  0.00  0.00    +0.000 N 
ATOM      4  H   UNL     1      48.529   5.462  14.747  0.00  0.00    +0.000 HD
ENDROOT
BRANCH   2   5
ATOM      5  C   UNL     1      49.546   6.168  16.836  0.00  0.00    +0.000 A 
ATOM      6  C   UNL     1      50.775   6.559  17.339  0.00  0.00    +0.000 A 
ATOM      7  S   UNL     1      51.770   5.202  17.685  0.00  0.00    +0.000 S 
ATOM      8  C   UNL     1      50.512   4.113  17.310  0.00  0.00    +0.000 A 
ATOM      9  N   UNL     1      50.701   2.768  17.230  0.00  0.00    +0.000 NA
ATOM     10  C   UNL     1      49.625   2.095  16.982  0.00  0.00    +0.000 A 
ATOM     11  N   UNL     1      48.367   2.634  16.866  0.00  0.00    +0.000 N 
ATOM     12  C   UNL     1      48.123   3.987  16.958  0.00  0.00    +0.000 A 
ATOM     13  O   UNL     1      46.991   4.446  16.939  0.00  0.00    +0.000 OA
ATOM     14  C   UNL     1      49.327   4.775  17.090  0.00  0.00    +0.000 A 
ATOM     15  H   UNL     1      47.552   2.046  16.771  0.00  0.00    +0.000 HD
ENDBRANCH   2   5
BRANCH   3  16
ATOM     16  C   UNL     1      47.777   7.107  13.756  0.00  0.00    +0.000 C 
BRANCH  16  17
ATOM     17  C   UNL     1      46.820   6.255  12.946  0.00  0.00    +0.000 A 
ATOM     18  C   UNL     1      46.396   6.683  11.693  0.00  0.00    +0.000 A 
ATOM     19  C   UNL     1      45.529   5.874  10.963  0.00  0.00    +0.000 A 
ATOM     20  C   UNL     1      45.106   4.654  11.494  0.00  0.00    +0.000 A 
ATOM     21  C   UNL     1      45.633   4.278  12.723  0.00  0.00    +0.000 A 
ATOM     22  N   UNL     1      46.476   5.043  13.455  0.00  0.00    +0.000 NA
BRANCH  20  23
ATOM     23  C   UNL     1      44.120   3.785  10.767  0.00  0.00    +0.000 C 
BRANCH  23  24
ATOM     24  O   UNL     1      44.221   4.031   9.367  0.00  0.00    +0.000 OA
BRANCH  24  25
ATOM     25  C   UNL     1      45.145   3.291   8.694  0.00  0.00    +0.000 A 
ATOM     26  C   UNL     1      46.072   3.724   7.767  0.00  0.00    +0.000 A 
ATOM     27  N   UNL     1      46.961   2.915   7.149  0.00  0.00    +0.000 NA
ATOM     28  C   UNL     1      46.900   1.618   7.486  0.00  0.00    +0.000 A 
ATOM     29  N   UNL     1      46.047   1.074   8.366  0.00  0.00    +0.000 NA
ATOM     30  C   UNL     1      45.185   1.935   8.951  0.00  0.00    +0.000 A 
ENDBRANCH  24  25
ENDBRANCH  23  24
ENDBRANCH  20  23
ENDBRANCH  16  17
ENDBRANCH   3  16
TORSDOF 6
ENDMDL
MODEL 2
REMARK VINA RESULT:    -7.562      2.484      3.061
REMARK INTER + INTRA:         -10.951
REMARK INTER:                 -10.317
REMARK INTRA:                  -0.634
REMARK UNBOUND:                -0.736
REMARK  Name = 
REMARK  6 active torsions:
REMARK  status: ('A' for Active; 'I' for Inactive)
REMARK    1  A    between atoms: C_2  and  C_19
REMARK    2  A    between atoms: N_3  and  C_4
REMARK    3  A    between atoms: C_4  and  C_5
REMARK    4  A    between atoms: C_8  and  C_9
REMARK    5  A    between atoms: C_9  and  O_10
REMARK    6  A    between atoms: O_10  and  C_11
REMARK                            x       y       z     vdW  Elec       q    Type
REMARK                         _______ _______ _______ _____ _____    ______ ____
ROOT
ATOM      1  O   UNL     1      49.564   4.909  16.720  0.00  0.00    +0.000 OA
ATOM      2  C   UNL     1      48.792   5.799  16.385  0.00  0.00    +0.000 C 
ATOM      3  N   UNL     1      47.734   5.626  15.517  0.00  0.00    +0.000 N 
ATOM      4  H   UNL     1      47.016   6.334  15.504  0.00  0.00    +0.000 HD
ENDROOT
BRANCH   2   5
ATOM      5  C   UNL     1      48.743   7.104  17.029  0.00  0.00    +0.000 A 
ATOM      6  C   UNL     1      49.304   8.240  16.471  0.00  0.00    +0.000 A 
ATOM      7  S   UNL     1      49.625   9.431  17.665  0.00  0.00    +0.000 S 
ATOM      8  C   UNL     1      48.882   8.494  18.881  0.00  0.00    +0.000 A 
ATOM      9  N   UNL     1      48.931   8.825  20.200  0.00  0.00    +0.000 NA
ATOM     10  C   UNL     1      48.271   8.025  20.972  0.00  0.00    +0.000 A 
ATOM     11  N   UNL     1      47.517   6.959  20.544  0.00  0.00    +0.000 N 
ATOM     12  C   UNL     1      47.422   6.596  19.218  0.00  0.00    +0.000 A 
ATOM     13  O   UNL     1      46.681   5.702  18.841  0.00  0.00    +0.000 OA
ATOM     14  C   UNL     1      48.265   7.386  18.350  0.00  0.00    +0.000 A 
ATOM     15  H   UNL     1      46.945   6.431  21.187  0.00  0.00    +0.000 HD
ENDBRANCH   2   5
BRANCH   3  16
ATOM     16  C   UNL     1      47.255   4.316  15.156  0.00  0.00    +0.000 C 
BRANCH  16  17
ATOM     17  C   UNL     1      46.360   4.409  13.936  0.00  0.00    +0.000 A 
ATOM     18  C   UNL     1      45.989   5.653  13.437  0.00  0.00    +0.000 A 
ATOM     19  C   UNL     1      45.179   5.710  12.306  0.00  0.00    +0.000 A 
ATOM     20  C   UNL     1      44.760   4.528  11.692  0.00  0.00    +0.000 A 
ATOM     21  C   UNL     1      45.234   3.334  12.220  0.00  0.00    +0.000 A 
ATOM     22  N   UNL     1      46.022   3.247  13.318  0.00  0.00    +0.000 NA
BRANCH  20  23
ATOM     23  C   UNL     1      43.833   4.546  10.511  0.00  0.00    +0.000 C 
BRANCH  23  24
ATOM     24  O   UNL     1      43.899   3.288   9.843  0.00  0.00    +0.000 OA
BRANCH  24  25
ATOM     25  C   UNL     1      44.899   3.148   8.929  0.00  0.00    +0.000 A 
ATOM     26  C   UNL     1      45.435   4.113   8.100  0.00  0.00    +0.000 A 
ATOM     27  N   UNL     1      46.437   3.886   7.221  0.00  0.00    +0.000 NA
ATOM     28  C   UNL     1      46.906   2.630   7.185  0.00  0.00    +0.000 A 
ATOM     29  N   UNL     1      46.469   1.606   7.934  0.00  0.00    +0.000 NA
ATOM     30  C   UNL     1      45.467   1.898   8.793  0.00  0.00    +0.000 A 
ENDBRANCH  24  25
ENDBRANCH  23  24
ENDBRANCH  20  23
ENDBRANCH  16  17
ENDBRANCH   3  16
TORSDOF 6
ENDMDL
MODEL 3
REMARK VINA RESULT:    -7.557      2.162      3.008
REMARK INTER + INTRA:         -10.944
REMARK INTER:                 -10.078
REMARK INTRA:                  -0.865
REMARK UNBOUND:                -0.736
REMARK  Name = 
REMARK  6 active torsions:
REMARK  status: ('A' for Active; 'I' for Inactive)
REMARK    1  A    between atoms: C_2  and  C_19
REMARK    2  A    between atoms: N_3  and  C_4
REMARK    3  A    between atoms: C_4  and  C_5
REMARK    4  A    between atoms: C_8  and  C_9
REMARK    5  A    between atoms: C_9  and  O_10
REMARK    6  A    between atoms: O_10  and  C_11
REMARK                            x       y       z     vdW  Elec       q    Type
REMARK                         _______ _______ _______ _____ _____    ______ ____
ROOT
ATOM      1  O   UNL     1      50.012   6.936  14.852  0.00  0.00    +0.000 OA
ATOM      2  C   UNL     1      48.888   6.704  15.279  0.00  0.00    +0.000 C 
ATOM      3  N   UNL     1      47.726   6.920  14.567  0.00  0.00    +0.000 N 
ATOM      4  H   UNL     1      46.885   6.468  14.892  0.00  0.00    +0.000 HD
ENDROOT
BRANCH   2   5
ATOM      5  C   UNL     1      48.631   5.957  16.502  0.00  0.00    +0.000 A 
ATOM      6  C   UNL     1      48.188   4.646  16.503  0.00  0.00    +0.000 A 
ATOM      7  S   UNL     1      47.415   4.247  17.983  0.00  0.00    +0.000 S 
ATOM      8  C   UNL     1      47.807   5.762  18.662  0.00  0.00    +0.000 A 
ATOM      9  N   UNL     1      47.319   6.181  19.861  0.00  0.00    +0.000 NA
ATOM     10  C   UNL     1      47.761   7.336  20.238  0.00  0.00    +0.000 A 
ATOM     11  N   UNL     1      48.692   8.085  19.560  0.00  0.00    +0.000 N 
ATOM     12  C   UNL     1      49.228   7.694  18.353  0.00  0.00    +0.000 A 
ATOM     13  O   UNL     1      50.117   8.324  17.802  0.00  0.00    +0.000 OA
ATOM     14  C   UNL     1      48.643   6.476  17.837  0.00  0.00    +0.000 A 
ATOM     15  H   UNL     1      49.070   8.932  19.956  0.00  0.00    +0.000 HD
ENDBRANCH   2   5
BRANCH   3  16
ATOM     16  C   UNL     1      47.739   7.157  13.146  0.00  0.00    +0.000 C 
BRANCH  16  17
ATOM     17  C   UNL     1      46.769   6.220  12.455  0.00  0.00    +0.000 A 
ATOM     18  C   UNL     1      46.394   5.029  13.068  0.00  0.00    +0.000 A 
ATOM     19  C   UNL     1      45.488   4.194  12.419  0.00  0.00    +0.000 A 
ATOM     20  C   UNL     1      44.972   4.563  11.176  0.00  0.00    +0.000 A 
ATOM     21  C   UNL     1      45.351   5.800  10.671  0.00  0.00    +0.000 A 
ATOM     22  N   UNL     1      46.229   6.633  11.278  0.00  0.00    +0.000 NA
BRANCH  20  23
ATOM     23  C   UNL     1      44.045   3.660  10.414  0.00  0.00    +0.000 C 
BRANCH  23  24
ATOM     24  O   UNL     1      44.292   3.804   9.017  0.00  0.00    +0.000 OA
BRANCH  24  25
ATOM     25  C   UNL     1      45.235   2.976   8.488  0.00  0.00    +0.000 A 
ATOM     26  C   UNL     1      45.404   1.624   8.714  0.00  0.00    +0.000 A 
ATOM     27  N   UNL     1      46.370   0.874   8.138  0.00  0.00    +0.000 NA
ATOM     28  C   UNL     1      47.194   1.526   7.305  0.00  0.00    +0.000 A 
ATOM     29  N   UNL     1      47.137   2.832   7.006  0.00  0.00    +0.000 NA
ATOM     30  C   UNL     1      46.149   3.526   7.613  0.00  0.00    +0.000 A 
ENDBRANCH  24  25
ENDBRANCH  23  24
ENDBRANCH  20  23
ENDBRANCH  16  17
ENDBRANCH   3  16
TORSDOF 6
ENDMDL
MODEL 4
REMARK VINA RESULT:    -7.365      2.139      2.485
REMARK INTER + INTRA:         -10.684
REMARK INTER:                  -9.833
REMARK INTRA:                  -0.851
REMARK UNBOUND:                -0.736
REMARK  Name = 
REMARK  6 active torsions:
REMARK  status: ('A' for Active; 'I' for Inactive)
REMARK    1  A    between atoms: C_2  and  C_19
REMARK    2  A    between atoms: N_3  and  C_4
REMARK    3  A    between atoms: C_4  and  C_5
REMARK    4  A    between atoms: C_8  and  C_9
REMARK    5  A    between atoms: C_9  and  O_10
REMARK    6  A    between atoms: O_10  and  C_11
REMARK                            x       y       z     vdW  Elec       q    Type
REMARK                         _______ _______ _______ _____ _____    ______ ____
ROOT
ATOM      1  O   UNL     1      50.207   6.246  16.028  0.00  0.00    +0.000 OA
ATOM      2  C   UNL     1      49.167   6.851  16.259  0.00  0.00    +0.000 C 
ATOM      3  N   UNL     1      48.328   7.355  15.288  0.00  0.00    +0.000 N 
ATOM      4  H   UNL     1      47.389   7.602  15.559  0.00  0.00    +0.000 HD
ENDROOT
BRANCH   2   5
ATOM      5  C   UNL     1      48.555   6.923  17.579  0.00  0.00    +0.000 A 
ATOM      6  C   UNL     1      48.222   8.120  18.189  0.00  0.00    +0.000 A 
ATOM      7  S   UNL     1      48.103   7.942  19.893  0.00  0.00    +0.000 S 
ATOM      8  C   UNL     1      48.345   6.257  19.791  0.00  0.00    +0.000 A 
ATOM      9  N   UNL     1      48.526   5.471  20.887  0.00  0.00    +0.000 NA
ATOM     10  C   UNL     1      48.646   4.211  20.621  0.00  0.00    +0.000 A 
ATOM     11  N   UNL     1      48.543   3.656  19.369  0.00  0.00    +0.000 N 
ATOM     12  C   UNL     1      48.343   4.408  18.233  0.00  0.00    +0.000 A 
ATOM     13  O   UNL     1      48.166   3.897  17.138  0.00  0.00    +0.000 OA
ATOM     14  C   UNL     1      48.349   5.832  18.484  0.00  0.00    +0.000 A 
ATOM     15  H   UNL     1      48.548   2.655  19.239  0.00  0.00    +0.000 HD
ENDBRANCH   2   5
BRANCH   3  16
ATOM     16  C   UNL     1      48.440   6.958  13.907  0.00  0.00    +0.000 C 
BRANCH  16  17
ATOM     17  C   UNL     1      47.242   6.120  13.509  0.00  0.00    +0.000 A 
ATOM     18  C   UNL     1      46.120   6.727  12.954  0.00  0.00    +0.000 A 
ATOM     19  C   UNL     1      45.040   5.931  12.583  0.00  0.00    +0.000 A 
ATOM     20  C   UNL     1      45.100   4.549  12.767  0.00  0.00    +0.000 A 
ATOM     21  C   UNL     1      46.285   4.024  13.265  0.00  0.00    +0.000 A 
ATOM     22  N   UNL     1      47.352   4.771  13.636  0.00  0.00    +0.000 NA
BRANCH  20  23
ATOM     23  C   UNL     1      43.931   3.665  12.440  0.00  0.00    +0.000 C 
BRANCH  23  24
ATOM     24  O   UNL     1      43.459   3.974  11.131  0.00  0.00    +0.000 OA
BRANCH  24  25
ATOM     25  C   UNL     1      44.226   3.530  10.098  0.00  0.00    +0.000 A 
ATOM     26  C   UNL     1      44.662   2.243   9.853  0.00  0.00    +0.000 A 
ATOM     27  N   UNL     1      45.421   1.889   8.792  0.00  0.00    +0.000 NA
ATOM     28  C   UNL     1      45.750   2.882   7.954  0.00  0.00    +0.000 A 
ATOM     29  N   UNL     1      45.393   4.169   8.082  0.00  0.00    +0.000 NA
ATOM     30  C   UNL     1      44.635   4.459   9.162  0.00  0.00    +0.000 A 
ENDBRANCH  24  25
ENDBRANCH  23  24
ENDBRANCH  20  23
ENDBRANCH  16  17
ENDBRANCH   3  16
TORSDOF 6
ENDMDL
MODEL 5
REMARK VINA RESULT:    -7.329      2.159      3.781
REMARK INTER + INTRA:         -10.636
REMARK INTER:                  -9.924
REMARK INTRA:                  -0.712
REMARK UNBOUND:                -0.736
REMARK  Name = 
REMARK  6 active torsions:
REMARK  status: ('A' for Active; 'I' for Inactive)
REMARK    1  A    between atoms: C_2  and  C_19
REMARK    2  A    between atoms: N_3  and  C_4
REMARK    3  A    between atoms: C_4  and  C_5
REMARK    4  A    between atoms: C_8  and  C_9
REMARK    5  A    between atoms: C_9  and  O_10
REMARK    6  A    between atoms: O_10  and  C_11
REMARK                            x       y       z     vdW  Elec       q    Type
REMARK                         _______ _______ _______ _____ _____    ______ ____
ROOT
ATOM      1  O   UNL     1      49.526   4.729  16.673  0.00  0.00    +0.000 OA
ATOM      2  C   UNL     1      48.794   5.663  16.371  0.00  0.00    +0.000 C 
ATOM      3  N   UNL     1      47.707   5.559  15.528  0.00  0.00    +0.000 N 
ATOM      4  H   UNL     1      47.027   6.303  15.544  0.00  0.00    +0.000 HD
ENDROOT
BRANCH   2   5
ATOM      5  C   UNL     1      48.828   6.958  17.036  0.00  0.00    +0.000 A 
ATOM      6  C   UNL     1      48.258   7.181  18.277  0.00  0.00    +0.000 A 
ATOM      7  S   UNL     1      47.919   8.847  18.521  0.00  0.00    +0.000 S 
ATOM      8  C   UNL     1      48.667   9.273  17.048  0.00  0.00    +0.000 A 
ATOM      9  N   UNL     1      48.608  10.529  16.528  0.00  0.00    +0.000 NA
ATOM     10  C   UNL     1      49.273  10.678  15.428  0.00  0.00    +0.000 A 
ATOM     11  N   UNL     1      50.039   9.707  14.832  0.00  0.00    +0.000 N 
ATOM     12  C   UNL     1      50.144   8.427  15.331  0.00  0.00    +0.000 A 
ATOM     13  O   UNL     1      50.895   7.598  14.841  0.00  0.00    +0.000 OA
ATOM     14  C   UNL     1      49.296   8.192  16.478  0.00  0.00    +0.000 A 
ATOM     15  H   UNL     1      50.614   9.914  14.028  0.00  0.00    +0.000 HD
ENDBRANCH   2   5
BRANCH   3  16
ATOM     16  C   UNL     1      47.152   4.281  15.159  0.00  0.00    +0.000 C 
BRANCH  16  17
ATOM     17  C   UNL     1      46.399   4.401  13.850  0.00  0.00    +0.000 A 
ATOM     18  C   UNL     1      46.284   5.637  13.222  0.00  0.00    +0.000 A 
ATOM     19  C   UNL     1      45.600   5.716  12.012  0.00  0.00    +0.000 A 
ATOM     20  C   UNL     1      45.049   4.564  11.449  0.00  0.00    +0.000 A 
ATOM     21  C   UNL     1      45.270   3.363  12.112  0.00  0.00    +0.000 A 
ATOM     22  N   UNL     1      45.930   3.255  13.290  0.00  0.00    +0.000 NA
BRANCH  20  23
ATOM     23  C   UNL     1      44.249   4.619  10.180  0.00  0.00    +0.000 C 
BRANCH  23  24
ATOM     24  O   UNL     1      44.192   3.316   9.604  0.00  0.00    +0.000 OA
BRANCH  24  25
ATOM     25  C   UNL     1      45.191   3.004   8.734  0.00  0.00    +0.000 A 
ATOM     26  C   UNL     1      45.794   1.777   8.533  0.00  0.00    +0.000 A 
ATOM     27  N   UNL     1      46.781   1.555   7.637  0.00  0.00    +0.000 NA
ATOM     28  C   UNL     1      47.171   2.621   6.924  0.00  0.00    +0.000 A 
ATOM     29  N   UNL     1      46.670   3.861   7.026  0.00  0.00    +0.000 NA
ATOM     30  C   UNL     1      45.685   4.018   7.938  0.00  0.00    +0.000 A 
ENDBRANCH  24  25
ENDBRANCH  23  24
ENDBRANCH  20  23
ENDBRANCH  16  17
ENDBRANCH   3  16
TORSDOF 6
ENDMDL
MODEL 6
REMARK VINA RESULT:    -7.302      2.655      8.311
REMARK INTER + INTRA:         -10.599
REMARK INTER:                  -9.915
REMARK INTRA:                  -0.684
REMARK UNBOUND:                -0.736
REMARK  Name = 
REMARK  6 active torsions:
REMARK  status: ('A' for Active; 'I' for Inactive)
REMARK    1  A    between atoms: C_2  and  C_19
REMARK    2  A    between atoms: N_3  and  C_4
REMARK    3  A    between atoms: C_4  and  C_5
REMARK    4  A    between atoms: C_8  and  C_9
REMARK    5  A    between atoms: C_9  and  O_10
REMARK    6  A    between atoms: O_10  and  C_11
REMARK                            x       y       z     vdW  Elec       q    Type
REMARK                         _______ _______ _______ _____ _____    ______ ____
ROOT
ATOM      1  O   UNL     1      44.897   7.325  11.561  0.00  0.00    +0.000 OA
ATOM      2  C   UNL     1      45.377   6.202  11.461  0.00  0.00    +0.000 C 
ATOM      3  N   UNL     1      46.650   5.861  11.869  0.00  0.00    +0.000 N 
ATOM      4  H   UNL     1      46.860   4.882  11.985  0.00  0.00    +0.000 HD
ENDROOT
BRANCH   2   5
ATOM      5  C   UNL     1      44.598   5.023  11.111  0.00  0.00    +0.000 A 
ATOM      6  C   UNL     1      43.591   4.521  11.917  0.00  0.00    +0.000 A 
ATOM      7  S   UNL     1      43.287   2.864  11.581  0.00  0.00    +0.000 S 
ATOM      8  C   UNL     1      44.381   2.871  10.272  0.00  0.00    +0.000 A 
ATOM      9  N   UNL     1      44.749   1.738   9.614  0.00  0.00    +0.000 NA
ATOM     10  C   UNL     1      45.550   1.940   8.619  0.00  0.00    +0.000 A 
ATOM     11  N   UNL     1      45.970   3.173   8.183  0.00  0.00    +0.000 N 
ATOM     12  C   UNL     1      45.610   4.348   8.805  0.00  0.00    +0.000 A 
ATOM     13  O   UNL     1      45.919   5.442   8.358  0.00  0.00    +0.000 OA
ATOM     14  C   UNL     1      44.833   4.142  10.006  0.00  0.00    +0.000 A 
ATOM     15  H   UNL     1      46.516   3.271   7.339  0.00  0.00    +0.000 HD
ENDBRANCH   2   5
BRANCH   3  16
ATOM     16  C   UNL     1      47.428   6.720  12.726  0.00  0.00    +0.000 C 
BRANCH  16  17
ATOM     17  C   UNL     1      47.664   6.044  14.061  0.00  0.00    +0.000 A 
ATOM     18  C   UNL     1      46.977   4.879  14.385  0.00  0.00    +0.000 A 
ATOM     19  C   UNL     1      47.225   4.270  15.612  0.00  0.00    +0.000 A 
ATOM     20  C   UNL     1      48.155   4.830  16.490  0.00  0.00    +0.000 A 
ATOM     21  C   UNL     1      48.842   5.956  16.056  0.00  0.00    +0.000 A 
ATOM     22  N   UNL     1      48.623   6.571  14.869  0.00  0.00    +0.000 NA
BRANCH  20  23
ATOM     23  C   UNL     1      48.401   4.241  17.849  0.00  0.00    +0.000 C 
BRANCH  23  24
ATOM     24  O   UNL     1      49.750   4.495  18.233  0.00  0.00    +0.000 OA
BRANCH  24  25
ATOM     25  C   UNL     1      50.640   3.494  17.989  0.00  0.00    +0.000 A 
ATOM     26  C   UNL     1      51.993   3.472  18.266  0.00  0.00    +0.000 A 
ATOM     27  N   UNL     1      52.805   2.426  17.992  0.00  0.00    +0.000 NA
ATOM     28  C   UNL     1      52.218   1.368  17.414  0.00  0.00    +0.000 A 
ATOM     29  N   UNL     1      50.920   1.269  17.092  0.00  0.00    +0.000 NA
ATOM     30  C   UNL     1      50.161   2.346  17.392  0.00  0.00    +0.000 A 
ENDBRANCH  24  25
ENDBRANCH  23  24
ENDBRANCH  20  23
ENDBRANCH  16  17
ENDBRANCH   3  16
TORSDOF 6
ENDMDL
MODEL 7
REMARK VINA RESULT:    -7.059      3.142      7.997
REMARK INTER + INTRA:         -10.271
REMARK INTER:                  -9.218
REMARK INTRA:                  -1.053
REMARK UNBOUND:                -0.736
REMARK  Name = 
REMARK  6 active torsions:
REMARK  status: ('A' for Active; 'I' for Inactive)
REMARK    1  A    between atoms: C_2  and  C_19
REMARK    2  A    between atoms: N_3  and  C_4
REMARK    3  A    between atoms: C_4  and  C_5
REMARK    4  A    between atoms: C_8  and  C_9
REMARK    5  A    between atoms: C_9  and  O_10
REMARK    6  A    between atoms: O_10  and  C_11
REMARK                            x       y       z     vdW  Elec       q    Type
REMARK                         _______ _______ _______ _____ _____    ______ ____
ROOT
ATOM      1  O   UNL     1      44.996   7.843  11.500  0.00  0.00    +0.000 OA
ATOM      2  C   UNL     1      45.872   6.987  11.466  0.00  0.00    +0.000 C 
ATOM      3  N   UNL     1      47.033   7.031  12.209  0.00  0.00    +0.000 N 
ATOM      4  H   UNL     1      47.560   6.177  12.310  0.00  0.00    +0.000 HD
ENDROOT
BRANCH   2   5
ATOM      5  C   UNL     1      45.708   5.695  10.813  0.00  0.00    +0.000 A 
ATOM      6  C   UNL     1      45.981   5.491   9.472  0.00  0.00    +0.000 A 
ATOM      7  S   UNL     1      45.150   4.114   8.867  0.00  0.00    +0.000 S 
ATOM      8  C   UNL     1      44.562   3.717  10.418  0.00  0.00    +0.000 A 
ATOM      9  N   UNL     1      43.641   2.738  10.628  0.00  0.00    +0.000 NA
ATOM     10  C   UNL     1      43.348   2.545  11.873  0.00  0.00    +0.000 A 
ATOM     11  N   UNL     1      43.932   3.198  12.931  0.00  0.00    +0.000 N 
ATOM     12  C   UNL     1      44.880   4.183  12.769  0.00  0.00    +0.000 A 
ATOM     13  O   UNL     1      45.455   4.695  13.718  0.00  0.00    +0.000 OA
ATOM     14  C   UNL     1      45.121   4.520  11.384  0.00  0.00    +0.000 A 
ATOM     15  H   UNL     1      43.731   2.932  13.884  0.00  0.00    +0.000 HD
ENDBRANCH   2   5
BRANCH   3  16
ATOM     16  C   UNL     1      47.189   7.936  13.320  0.00  0.00    +0.000 C 
BRANCH  16  17
ATOM     17  C   UNL     1      48.263   7.424  14.258  0.00  0.00    +0.000 A 
ATOM     18  C   UNL     1      49.572   7.879  14.135  0.00  0.00    +0.000 A 
ATOM     19  C   UNL     1      50.536   7.405  15.021  0.00  0.00    +0.000 A 
ATOM     20  C   UNL     1      50.176   6.492  16.014  0.00  0.00    +0.000 A 
ATOM     21  C   UNL     1      48.834   6.146  16.105  0.00  0.00    +0.000 A 
ATOM     22  N   UNL     1      47.875   6.589  15.258  0.00  0.00    +0.000 NA
BRANCH  20  23
ATOM     23  C   UNL     1      51.198   5.907  16.946  0.00  0.00    +0.000 C 
BRANCH  23  24
ATOM     24  O   UNL     1      50.576   4.920  17.764  0.00  0.00    +0.000 OA
BRANCH  24  25
ATOM     25  C   UNL     1      51.108   3.668  17.699  0.00  0.00    +0.000 A 
ATOM     26  C   UNL     1      52.363   3.254  18.097  0.00  0.00    +0.000 A 
ATOM     27  N   UNL     1      52.808   1.981  18.001  0.00  0.00    +0.000 NA
ATOM     28  C   UNL     1      51.944   1.100  17.477  0.00  0.00    +0.000 A 
ATOM     29  N   UNL     1      50.702   1.377  17.051  0.00  0.00    +0.000 NA
ATOM     30  C   UNL     1      50.316   2.666  17.175  0.00  0.00    +0.000 A 
ENDBRANCH  24  25
ENDBRANCH  23  24
ENDBRANCH  20  23
ENDBRANCH  16  17
ENDBRANCH   3  16
TORSDOF 6
ENDMDL
MODEL 8
REMARK VINA RESULT:    -6.966      2.687      3.288
REMARK INTER + INTRA:         -10.146
REMARK INTER:                  -8.821
REMARK INTRA:                  -1.325
REMARK UNBOUND:                -0.736
REMARK  Name = 
REMARK  6 active torsions:
REMARK  status: ('A' for Active; 'I' for Inactive)
REMARK    1  A    between atoms: C_2  and  C_19
REMARK    2  A    between atoms: N_3  and  C_4
REMARK    3  A    between atoms: C_4  and  C_5
REMARK    4  A    between atoms: C_8  and  C_9
REMARK    5  A    between atoms: C_9  and  O_10
REMARK    6  A    between atoms: O_10  and  C_11
REMARK                            x       y       z     vdW  Elec       q    Type
REMARK                         _______ _______ _______ _____ _____    ______ ____
ROOT
ATOM      1  O   UNL     1      50.616   6.621  15.466  0.00  0.00    +0.000 OA
ATOM      2  C   UNL     1      49.769   7.171  16.160  0.00  0.00    +0.000 C 
ATOM      3  N   UNL     1      49.214   8.402  15.881  0.00  0.00    +0.000 N 
ATOM      4  H   UNL     1      48.358   8.650  16.353  0.00  0.00    +0.000 HD
ENDROOT
BRANCH   2   5
ATOM      5  C   UNL     1      49.065   6.504  17.247  0.00  0.00    +0.000 A 
ATOM      6  C   UNL     1      49.166   6.907  18.567  0.00  0.00    +0.000 A 
ATOM      7  S   UNL     1      48.754   5.635  19.644  0.00  0.00    +0.000 S 
ATOM      8  C   UNL     1      48.301   4.614  18.354  0.00  0.00    +0.000 A 
ATOM      9  N   UNL     1      47.996   3.300  18.527  0.00  0.00    +0.000 NA
ATOM     10  C   UNL     1      47.630   2.694  17.444  0.00  0.00    +0.000 A 
ATOM     11  N   UNL     1      47.482   3.293  16.217  0.00  0.00    +0.000 N 
ATOM     12  C   UNL     1      47.762   4.624  15.997  0.00  0.00    +0.000 A 
ATOM     13  O   UNL     1      47.545   5.164  14.923  0.00  0.00    +0.000 OA
ATOM     14  C   UNL     1      48.311   5.290  17.157  0.00  0.00    +0.000 A 
ATOM     15  H   UNL     1      47.098   2.788  15.431  0.00  0.00    +0.000 HD
ENDBRANCH   2   5
BRANCH   3  16
ATOM     16  C   UNL     1      49.356   9.024  14.589  0.00  0.00    +0.000 C 
BRANCH  16  17
ATOM     17  C   UNL     1      48.302   8.494  13.638  0.00  0.00    +0.000 A 
ATOM     18  C   UNL     1      48.659   7.615  12.621  0.00  0.00    +0.000 A 
ATOM     19  C   UNL     1      47.668   7.130  11.772  0.00  0.00    +0.000 A 
ATOM     20  C   UNL     1      46.342   7.527  11.955  0.00  0.00    +0.000 A 
ATOM     21  C   UNL     1      46.068   8.354  13.037  0.00  0.00    +0.000 A 
ATOM     22  N   UNL     1      47.010   8.841  13.879  0.00  0.00    +0.000 NA
BRANCH  20  23
ATOM     23  C   UNL     1      45.255   7.079  11.020  0.00  0.00    +0.000 C 
BRANCH  23  24
ATOM     24  O   UNL     1      44.135   6.633  11.782  0.00  0.00    +0.000 OA
BRANCH  24  25
ATOM     25  C   UNL     1      43.888   5.295  11.753  0.00  0.00    +0.000 A 
ATOM     26  C   UNL     1      43.663   4.494  10.651  0.00  0.00    +0.000 A 
ATOM     27  N   UNL     1      43.430   3.164  10.716  0.00  0.00    +0.000 NA
ATOM     28  C   UNL     1      43.421   2.633  11.947  0.00  0.00    +0.000 A 
ATOM     29  N   UNL     1      43.621   3.302  13.092  0.00  0.00    +0.000 NA
ATOM     30  C   UNL     1      43.850   4.628  12.961  0.00  0.00    +0.000 A 
ENDBRANCH  24  25
ENDBRANCH  23  24
ENDBRANCH  20  23
ENDBRANCH  16  17
ENDBRANCH   3  16
TORSDOF 6
ENDMDL
MODEL 9
REMARK VINA RESULT:    -6.959      2.290      2.918
REMARK INTER + INTRA:         -10.136
REMARK INTER:                  -9.142
REMARK INTRA:                  -0.994
REMARK UNBOUND:                -0.736
REMARK  Name = 
REMARK  6 active torsions:
REMARK  status: ('A' for Active; 'I' for Inactive)
REMARK    1  A    between atoms: C_2  and  C_19
REMARK    2  A    between atoms: N_3  and  C_4
REMARK    3  A    between atoms: C_4  and  C_5
REMARK    4  A    between atoms: C_8  and  C_9
REMARK    5  A    between atoms: C_9  and  O_10
REMARK    6  A    between atoms: O_10  and  C_11
REMARK                            x       y       z     vdW  Elec       q    Type
REMARK                         _______ _______ _______ _____ _____    ______ ____
ROOT
ATOM      1  O   UNL     1      48.996  10.046  14.566  0.00  0.00    +0.000 OA
ATOM      2  C   UNL     1      48.191   9.326  15.144  0.00  0.00    +0.000 C 
ATOM      3  N   UNL     1      47.158   8.658  14.521  0.00  0.00    +0.000 N 
ATOM      4  H   UNL     1      46.718   7.901  15.021  0.00  0.00    +0.000 HD
ENDROOT
BRANCH   2   5
ATOM      5  C   UNL     1      48.349   8.890  16.524  0.00  0.00    +0.000 A 
ATOM      6  C   UNL     1      47.868   9.615  17.601  0.00  0.00    +0.000 A 
ATOM      7  S   UNL     1      48.695   9.208  19.050  0.00  0.00    +0.000 S 
ATOM      8  C   UNL     1      49.574   7.973  18.268  0.00  0.00    +0.000 A 
ATOM      9  N   UNL     1      50.597   7.304  18.867  0.00  0.00    +0.000 NA
ATOM     10  C   UNL     1      51.116   6.369  18.139  0.00  0.00    +0.000 A 
ATOM     11  N   UNL     1      50.669   5.999  16.894  0.00  0.00    +0.000 N 
ATOM     12  C   UNL     1      49.627   6.634  16.256  0.00  0.00    +0.000 A 
ATOM     13  O   UNL     1      49.184   6.241  15.187  0.00  0.00    +0.000 OA
ATOM     14  C   UNL     1      49.123   7.776  16.984  0.00  0.00    +0.000 A 
ATOM     15  H   UNL     1      51.053   5.196  16.418  0.00  0.00    +0.000 HD
ENDBRANCH   2   5
BRANCH   3  16
ATOM     16  C   UNL     1      47.106   8.505  13.089  0.00  0.00    +0.000 C 
BRANCH  16  17
ATOM     17  C   UNL     1      46.298   7.275  12.727  0.00  0.00    +0.000 A 
ATOM     18  C   UNL     1      46.783   6.008  13.032  0.00  0.00    +0.000 A 
ATOM     19  C   UNL     1      46.013   4.895  12.703  0.00  0.00    +0.000 A 
ATOM     20  C   UNL     1      44.775   5.067  12.082  0.00  0.00    +0.000 A 
ATOM     21  C   UNL     1      44.341   6.370  11.876  0.00  0.00    +0.000 A 
ATOM     22  N   UNL     1      45.067   7.471  12.185  0.00  0.00    +0.000 NA
BRANCH  20  23
ATOM     23  C   UNL     1      43.946   3.891  11.652  0.00  0.00    +0.000 C 
BRANCH  23  24
ATOM     24  O   UNL     1      43.641   4.014  10.265  0.00  0.00    +0.000 OA
BRANCH  24  25
ATOM     25  C   UNL     1      44.560   3.499   9.403  0.00  0.00    +0.000 A 
ATOM     26  C   UNL     1      44.972   2.186   9.282  0.00  0.00    +0.000 A 
ATOM     27  N   UNL     1      45.891   1.759   8.388  0.00  0.00    +0.000 NA
ATOM     28  C   UNL     1      46.412   2.704   7.592  0.00  0.00    +0.000 A 
ATOM     29  N   UNL     1      46.100   4.009   7.613  0.00  0.00    +0.000 NA
ATOM     30  C   UNL     1      45.174   4.372   8.528  0.00  0.00    +0.000 A 
ENDBRANCH  24  25
ENDBRANCH  23  24
ENDBRANCH  20  23
ENDBRANCH  16  17
ENDBRANCH   3  16
TORSDOF 6
ENDMDL
