MODEL 1
REMARK VINA RESULT:    -8.248      0.000      0.000
REMARK INTER + INTRA:         -13.872
REMARK INTER:                 -12.828
REMARK INTRA:                  -1.044
REMARK UNBOUND:                -1.044
REMARK  Name = 
REMARK  10 active torsions:
REMARK  status: ('A' for Active; 'I' for Inactive)
REMARK    1  A    between atoms: N_1  and  C_2
REMARK    2  A    between atoms: C_2  and  C_3
REMARK    3  A    between atoms: C_3  and  N_4
REMARK    4  A    between atoms: C_3  and  C_20
REMARK    5  A    between atoms: N_4  and  C_5
REMARK    6  A    between atoms: C_5  and  C_6
REMARK    7  A    between atoms: C_9  and  C_10
REMARK    8  A    between atoms: C_10  and  N_11
REMARK    9  A    between atoms: N_11  and  C_12
REMARK   10  A    between atoms: C_12  and  C_13
REMARK                            x       y       z     vdW  Elec       q    Type
REMARK                         _______ _______ _______ _____ _____    ______ ____
ROOT
ATOM      1  N   UNL     1      47.918   5.929  15.744  0.00  0.00    +0.000 NA
ATOM      2  H   UNL     1      48.529   6.581  16.237  0.00  0.00    +0.000 HD
ENDROOT
BRANCH   1   3
ATOM      3  C   UNL     1      48.055   4.621  16.424  0.00  0.00    +0.000 C 
BRANCH   3   4
ATOM      4  C   UNL     1      49.404   4.629  17.138  0.00  0.00    +0.000 A 
ATOM      5  C   UNL     1      49.965   5.733  17.766  0.00  0.00    +0.000 A 
ATOM      6  S   UNL     1      51.485   5.416  18.473  0.00  0.00    +0.000 S 
ATOM      7  C   UNL     1      51.448   3.795  17.967  0.00  0.00    +0.000 A 
ATOM      8  N   UNL     1      52.467   2.939  18.256  0.00  0.00    +0.000 NA
ATOM      9  C   UNL     1      52.297   1.740  17.808  0.00  0.00    +0.000 A 
ATOM     10  N   UNL     1      51.203   1.316  17.096  0.00  0.00    +0.000 N 
ATOM     11  C   UNL     1      50.142   2.141  16.785  0.00  0.00    +0.000 A 
ATOM     12  O   UNL     1      49.178   1.732  16.152  0.00  0.00    +0.000 OA
ATOM     13  C   UNL     1      50.291   3.497  17.269  0.00  0.00    +0.000 A 
ATOM     14  H   UNL     1      51.137   0.364  16.771  0.00  0.00    +0.000 HD
ENDBRANCH   3   4
BRANCH   3  15
ATOM     15  C   UNL     1      46.882   4.264  17.397  0.00  0.00    +0.000 C 
BRANCH  15  16
ATOM     16  N   UNL     1      46.705   2.832  17.670  0.00  0.00    +0.000 NA
ATOM     17  H   UNL     1      45.884   2.691  18.254  0.00  0.00    +0.000 HD
ATOM     18  H   UNL     1      47.516   2.494  18.189  0.00  0.00    +0.000 HD
ENDBRANCH  15  16
ENDBRANCH   3  15
ENDBRANCH   1   3
BRANCH   1  19
ATOM     19  C   UNL     1      48.330   5.885  14.345  0.00  0.00    +0.000 C 
BRANCH  19  20
ATOM     20  C   UNL     1      47.161   5.664  13.412  0.00  0.00    +0.000 A 
ATOM     21  C   UNL     1      46.923   6.533  12.337  0.00  0.00    +0.000 A 
ATOM     22  C   UNL     1      45.882   6.287  11.442  0.00  0.00    +0.000 A 
ATOM     23  C   UNL     1      45.062   5.159  11.588  0.00  0.00    +0.000 A 
ATOM     24  C   UNL     1      45.295   4.293  12.663  0.00  0.00    +0.000 A 
ATOM     25  C   UNL     1      46.331   4.545  13.567  0.00  0.00    +0.000 A 
BRANCH  23  26
ATOM     26  C   UNL     1      43.945   4.887  10.607  0.00  0.00    +0.000 C 
BRANCH  26  27
ATOM     27  N   UNL     1      44.483   4.498   9.306  0.00  0.00    +0.000 NA
ATOM     28  H   UNL     1      45.420   4.891   9.211  0.00  0.00    +0.000 HD
BRANCH  27  29
ATOM     29  C   UNL     1      44.581   3.050   9.178  0.00  0.00    +0.000 C 
BRANCH  29  30
ATOM     30  C   UNL     1      45.697   2.738   8.243  0.00  0.00    +0.000 A 
ATOM     31  C   UNL     1      46.373   3.522   7.330  0.00  0.00    +0.000 A 
ATOM     32  C   UNL     1      47.340   2.703   6.695  0.00  0.00    +0.000 A 
ATOM     33  C   UNL     1      47.228   1.442   7.235  0.00  0.00    +0.000 A 
ATOM     34  N   UNL     1      46.230   1.472   8.170  0.00  0.00    +0.000 N 
ATOM     35  H   UNL     1      45.891   0.683   8.707  0.00  0.00    +0.000 HD
ENDBRANCH  29  30
ENDBRANCH  27  29
ENDBRANCH  26  27
ENDBRANCH  23  26
ENDBRANCH  19  20
ENDBRANCH   1  19
TORSDOF 10
ENDMDL
MODEL 2
REMARK VINA RESULT:    -7.525      1.768      2.202
REMARK INTER + INTRA:         -12.747
REMARK INTER:                 -11.654
REMARK INTRA:                  -1.093
REMARK UNBOUND:                -1.044
REMARK  Name = 
REMARK  10 active torsions:
REMARK  status: ('A' for Active; 'I' for Inactive)
REMARK    1  A    between atoms: N_1  and  C_2
REMARK    2  A    between atoms: C_2  and  C_3
REMARK    3  A    between atoms: C_3  and  N_4
REMARK    4  A    between atoms: C_3  and  C_20
REMARK    5  A    between atoms: N_4  and  C_5
REMARK    6  A    between atoms: C_5  and  C_6
REMARK    7  A    between atoms: C_9  and  C_10
REMARK    8  A    between atoms: C_10  and  N_11
REMARK    9  A    between atoms: N_11  and  C_12
REMARK   10  A    between atoms: C_12  and  C_13
REMARK                            x       y       z     vdW  Elec       q    Type
REMARK                         _______ _______ _______ _____ _____    ______ ____
ROOT
ATOM      1  N   UNL     1      47.356   5.357  15.704  0.00  0.00    +0.000 NA
ATOM      2  H   UNL     1      47.282   6.189  16.290  0.00  0.00    +0.000 HD
ENDROOT
BRANCH   1   3
ATOM      3  C   UNL     1      48.318   4.451  16.373  0.00  0.00    +0.000 C 
BRANCH   3   4
ATOM      4  C   UNL     1      48.419   4.904  17.826  0.00  0.00    +0.000 A 
ATOM      5  C   UNL     1      47.391   5.491  18.551  0.00  0.00    +0.000 A 
ATOM      6  S   UNL     1      47.824   5.883  20.155  0.00  0.00    +0.000 S 
ATOM      7  C   UNL     1      49.397   5.282  19.939  0.00  0.00    +0.000 A 
ATOM      8  N   UNL     1      50.310   5.305  20.950  0.00  0.00    +0.000 NA
ATOM      9  C   UNL     1      51.461   4.812  20.638  0.00  0.00    +0.000 A 
ATOM     10  N   UNL     1      51.788   4.298  19.408  0.00  0.00    +0.000 N 
ATOM     11  C   UNL     1      50.899   4.243  18.355  0.00  0.00    +0.000 A 
ATOM     12  O   UNL     1      51.219   3.774  17.271  0.00  0.00    +0.000 OA
ATOM     13  C   UNL     1      49.592   4.787  18.662  0.00  0.00    +0.000 A 
ATOM     14  H   UNL     1      52.711   3.933  19.231  0.00  0.00    +0.000 HD
ENDBRANCH   3   4
BRANCH   3  15
ATOM     15  C   UNL     1      47.969   2.929  16.259  0.00  0.00    +0.000 C 
BRANCH  15  16
ATOM     16  N   UNL     1      49.122   2.025  16.165  0.00  0.00    +0.000 NA
ATOM     17  H   UNL     1      49.466   1.807  17.097  0.00  0.00    +0.000 HD
ATOM     18  H   UNL     1      49.871   2.499  15.661  0.00  0.00    +0.000 HD
ENDBRANCH  15  16
ENDBRANCH   3  15
ENDBRANCH   1   3
BRANCH   1  19
ATOM     19  C   UNL     1      47.800   5.771  14.377  0.00  0.00    +0.000 C 
BRANCH  19  20
ATOM     20  C   UNL     1      46.761   5.491  13.314  0.00  0.00    +0.000 A 
ATOM     21  C   UNL     1      46.699   6.264  12.146  0.00  0.00    +0.000 A 
ATOM     22  C   UNL     1      45.780   5.959  11.141  0.00  0.00    +0.000 A 
ATOM     23  C   UNL     1      44.913   4.865  11.270  0.00  0.00    +0.000 A 
ATOM     24  C   UNL     1      44.970   4.095  12.438  0.00  0.00    +0.000 A 
ATOM     25  C   UNL     1      45.882   4.407  13.450  0.00  0.00    +0.000 A 
BRANCH  23  26
ATOM     26  C   UNL     1      43.930   4.528  10.172  0.00  0.00    +0.000 C 
BRANCH  26  27
ATOM     27  N   UNL     1      44.433   3.431   9.349  0.00  0.00    +0.000 NA
ATOM     28  H   UNL     1      43.653   2.811   9.122  0.00  0.00    +0.000 HD
BRANCH  27  29
ATOM     29  C   UNL     1      45.007   3.917   8.101  0.00  0.00    +0.000 C 
BRANCH  29  30
ATOM     30  C   UNL     1      46.076   2.971   7.679  0.00  0.00    +0.000 A 
ATOM     31  C   UNL     1      46.292   1.640   7.977  0.00  0.00    +0.000 A 
ATOM     32  C   UNL     1      47.476   1.238   7.312  0.00  0.00    +0.000 A 
ATOM     33  C   UNL     1      47.954   2.333   6.627  0.00  0.00    +0.000 A 
ATOM     34  N   UNL     1      47.101   3.378   6.857  0.00  0.00    +0.000 N 
ATOM     35  H   UNL     1      47.213   4.325   6.517  0.00  0.00    +0.000 HD
ENDBRANCH  29  30
ENDBRANCH  27  29
ENDBRANCH  26  27
ENDBRANCH  23  26
ENDBRANCH  19  20
ENDBRANCH   1  19
TORSDOF 10
ENDMDL
MODEL 3
REMARK VINA RESULT:    -7.237      1.720      2.341
REMARK INTER + INTRA:         -12.300
REMARK INTER:                 -11.190
REMARK INTRA:                  -1.110
REMARK UNBOUND:                -1.044
REMARK  Name = 
REMARK  10 active torsions:
REMARK  status: ('A' for Active; 'I' for Inactive)
REMARK    1  A    between atoms: N_1  and  C_2
REMARK    2  A    between atoms: C_2  and  C_3
REMARK    3  A    between atoms: C_3  and  N_4
REMARK    4  A    between atoms: C_3  and  C_20
REMARK    5  A    between atoms: N_4  and  C_5
REMARK    6  A    between atoms: C_5  and  C_6
REMARK    7  A    between atoms: C_9  and  C_10
REMARK    8  A    between atoms: C_10  and  N_11
REMARK    9  A    between atoms: N_11  and  C_12
REMARK   10  A    between atoms: C_12  and  C_13
REMARK                            x       y       z     vdW  Elec       q    Type
REMARK                         _______ _______ _______ _____ _____    ______ ____
ROOT
ATOM      1  N   UNL     1      48.252   6.004  15.013  0.00  0.00    +0.000 NA
ATOM      2  H   UNL     1      47.279   5.859  15.284  0.00  0.00    +0.000 HD
ENDROOT
BRANCH   1   3
ATOM      3  C   UNL     1      48.792   7.052  15.909  0.00  0.00    +0.000 C 
BRANCH   3   4
ATOM      4  C   UNL     1      50.244   6.685  16.199  0.00  0.00    +0.000 A 
ATOM      5  C   UNL     1      51.351   7.371  15.717  0.00  0.00    +0.000 A 
ATOM      6  S   UNL     1      52.839   6.709  16.224  0.00  0.00    +0.000 S 
ATOM      7  C   UNL     1      52.060   5.484  17.106  0.00  0.00    +0.000 A 
ATOM      8  N   UNL     1      52.768   4.554  17.805  0.00  0.00    +0.000 NA
ATOM      9  C   UNL     1      52.040   3.689  18.427  0.00  0.00    +0.000 A 
ATOM     10  N   UNL     1      50.667   3.663  18.414  0.00  0.00    +0.000 N 
ATOM     11  C   UNL     1      49.905   4.586  17.730  0.00  0.00    +0.000 A 
ATOM     12  O   UNL     1      48.682   4.541  17.742  0.00  0.00    +0.000 OA
ATOM     13  C   UNL     1      50.682   5.578  17.017  0.00  0.00    +0.000 A 
ATOM     14  H   UNL     1      50.160   2.953  18.920  0.00  0.00    +0.000 HD
ENDBRANCH   3   4
BRANCH   3  15
ATOM     15  C   UNL     1      48.657   8.512  15.361  0.00  0.00    +0.000 C 
BRANCH  15  16
ATOM     16  N   UNL     1      47.454   9.237  15.791  0.00  0.00    +0.000 NA
ATOM     17  H   UNL     1      47.413  10.142  15.329  0.00  0.00    +0.000 HD
ATOM     18  H   UNL     1      47.514   9.404  16.796  0.00  0.00    +0.000 HD
ENDBRANCH  15  16
ENDBRANCH   3  15
ENDBRANCH   1   3
BRANCH   1  19
ATOM     19  C   UNL     1      48.281   6.393  13.607  0.00  0.00    +0.000 C 
BRANCH  19  20
ATOM     20  C   UNL     1      47.043   5.943  12.864  0.00  0.00    +0.000 A 
ATOM     21  C   UNL     1      46.637   6.584  11.685  0.00  0.00    +0.000 A 
ATOM     22  C   UNL     1      45.531   6.122  10.970  0.00  0.00    +0.000 A 
ATOM     23  C   UNL     1      44.813   5.000  11.407  0.00  0.00    +0.000 A 
ATOM     24  C   UNL     1      45.213   4.361  12.587  0.00  0.00    +0.000 A 
ATOM     25  C   UNL     1      46.314   4.830  13.309  0.00  0.00    +0.000 A 
BRANCH  23  26
ATOM     26  C   UNL     1      43.625   4.492  10.621  0.00  0.00    +0.000 C 
BRANCH  26  27
ATOM     27  N   UNL     1      44.045   3.992   9.315  0.00  0.00    +0.000 NA
ATOM     28  H   UNL     1      44.821   4.566   8.981  0.00  0.00    +0.000 HD
BRANCH  27  29
ATOM     29  C   UNL     1      44.500   2.610   9.391  0.00  0.00    +0.000 C 
BRANCH  29  30
ATOM     30  C   UNL     1      45.622   2.434   8.429  0.00  0.00    +0.000 A 
ATOM     31  C   UNL     1      46.356   1.321   8.071  0.00  0.00    +0.000 A 
ATOM     32  C   UNL     1      47.318   1.730   7.115  0.00  0.00    +0.000 A 
ATOM     33  C   UNL     1      47.148   3.082   6.915  0.00  0.00    +0.000 A 
ATOM     34  N   UNL     1      46.120   3.500   7.715  0.00  0.00    +0.000 N 
ATOM     35  H   UNL     1      45.790   4.452   7.814  0.00  0.00    +0.000 HD
ENDBRANCH  29  30
ENDBRANCH  27  29
ENDBRANCH  26  27
ENDBRANCH  23  26
ENDBRANCH  19  20
ENDBRANCH   1  19
TORSDOF 10
ENDMDL
MODEL 4
REMARK VINA RESULT:    -6.937      2.275      3.307
REMARK INTER + INTRA:         -11.833
REMARK INTER:                 -10.495
REMARK INTRA:                  -1.337
REMARK UNBOUND:                -1.044
REMARK  Name = 
REMARK  10 active torsions:
REMARK  status: ('A' for Active; 'I' for Inactive)
REMARK    1  A    between atoms: N_1  and  C_2
REMARK    2  A    between atoms: C_2  and  C_3
REMARK    3  A    between atoms: C_3  and  N_4
REMARK    4  A    between atoms: C_3  and  C_20
REMARK    5  A    between atoms: N_4  and  C_5
REMARK    6  A    between atoms: C_5  and  C_6
REMARK    7  A    between atoms: C_9  and  C_10
REMARK    8  A    between atoms: C_10  and  N_11
REMARK    9  A    between atoms: N_11  and  C_12
REMARK   10  A    between atoms: C_12  and  C_13
REMARK                            x       y       z     vdW  Elec       q    Type
REMARK                         _______ _______ _______ _____ _____    ______ ____
ROOT
ATOM      1  N   UNL     1      47.262   8.057  14.204  0.00  0.00    +0.000 NA
ATOM      2  H   UNL     1      47.188   8.987  14.617  0.00  0.00    +0.000 HD
ENDROOT
BRANCH   1   3
ATOM      3  C   UNL     1      48.617   7.554  14.527  0.00  0.00    +0.000 C 
BRANCH   3   4
ATOM      4  C   UNL     1      48.435   6.299  15.375  0.00  0.00    +0.000 A 
ATOM      5  C   UNL     1      47.438   5.351  15.190  0.00  0.00    +0.000 A 
ATOM      6  S   UNL     1      47.507   4.061  16.305  0.00  0.00    +0.000 S 
ATOM      7  C   UNL     1      48.870   4.721  17.073  0.00  0.00    +0.000 A 
ATOM      8  N   UNL     1      49.459   4.098  18.132  0.00  0.00    +0.000 NA
ATOM      9  C   UNL     1      50.486   4.718  18.609  0.00  0.00    +0.000 A 
ATOM     10  N   UNL     1      50.981   5.905  18.129  0.00  0.00    +0.000 N 
ATOM     11  C   UNL     1      50.427   6.570  17.055  0.00  0.00    +0.000 A 
ATOM     12  O   UNL     1      50.894   7.625  16.646  0.00  0.00    +0.000 OA
ATOM     13  C   UNL     1      49.270   5.909  16.488  0.00  0.00    +0.000 A 
ATOM     14  H   UNL     1      51.786   6.337  18.554  0.00  0.00    +0.000 HD
ENDBRANCH   3   4
BRANCH   3  15
ATOM     15  C   UNL     1      49.530   7.292  13.284  0.00  0.00    +0.000 C 
BRANCH  15  16
ATOM     16  N   UNL     1      50.879   7.867  13.361  0.00  0.00    +0.000 NA
ATOM     17  H   UNL     1      51.016   8.530  12.601  0.00  0.00    +0.000 HD
ATOM     18  H   UNL     1      51.562   7.119  13.246  0.00  0.00    +0.000 HD
ENDBRANCH  15  16
ENDBRANCH   3  15
ENDBRANCH   1   3
BRANCH   1  19
ATOM     19  C   UNL     1      47.032   8.177  12.767  0.00  0.00    +0.000 C 
BRANCH  19  20
ATOM     20  C   UNL     1      46.177   7.051  12.230  0.00  0.00    +0.000 A 
ATOM     21  C   UNL     1      44.998   6.667  12.883  0.00  0.00    +0.000 A 
ATOM     22  C   UNL     1      44.181   5.672  12.346  0.00  0.00    +0.000 A 
ATOM     23  C   UNL     1      44.513   5.047  11.136  0.00  0.00    +0.000 A 
ATOM     24  C   UNL     1      45.693   5.426  10.484  0.00  0.00    +0.000 A 
ATOM     25  C   UNL     1      46.517   6.415  11.027  0.00  0.00    +0.000 A 
BRANCH  23  26
ATOM     26  C   UNL     1      43.617   3.981  10.548  0.00  0.00    +0.000 C 
BRANCH  26  27
ATOM     27  N   UNL     1      44.045   3.633   9.196  0.00  0.00    +0.000 NA
ATOM     28  H   UNL     1      44.768   4.292   8.905  0.00  0.00    +0.000 HD
BRANCH  27  29
ATOM     29  C   UNL     1      44.603   2.289   9.140  0.00  0.00    +0.000 C 
BRANCH  29  30
ATOM     30  C   UNL     1      45.773   2.306   8.220  0.00  0.00    +0.000 A 
ATOM     31  C   UNL     1      46.337   3.322   7.473  0.00  0.00    +0.000 A 
ATOM     32  C   UNL     1      47.433   2.774   6.763  0.00  0.00    +0.000 A 
ATOM     33  C   UNL     1      47.510   1.440   7.092  0.00  0.00    +0.000 A 
ATOM     34  N   UNL     1      46.501   1.165   7.973  0.00  0.00    +0.000 N 
ATOM     35  H   UNL     1      46.279   0.257   8.363  0.00  0.00    +0.000 HD
ENDBRANCH  29  30
ENDBRANCH  27  29
ENDBRANCH  26  27
ENDBRANCH  23  26
ENDBRANCH  19  20
ENDBRANCH   1  19
TORSDOF 10
ENDMDL
MODEL 5
REMARK VINA RESULT:    -6.902      2.998      8.706
REMARK INTER + INTRA:         -11.779
REMARK INTER:                 -11.470
REMARK INTRA:                  -0.309
REMARK UNBOUND:                -1.044
REMARK  Name = 
REMARK  10 active torsions:
REMARK  status: ('A' for Active; 'I' for Inactive)
REMARK    1  A    between atoms: N_1  and  C_2
REMARK    2  A    between atoms: C_2  and  C_3
REMARK    3  A    between atoms: C_3  and  N_4
REMARK    4  A    between atoms: C_3  and  C_20
REMARK    5  A    between atoms: N_4  and  C_5
REMARK    6  A    between atoms: C_5  and  C_6
REMARK    7  A    between atoms: C_9  and  C_10
REMARK    8  A    between atoms: C_10  and  N_11
REMARK    9  A    between atoms: N_11  and  C_12
REMARK   10  A    between atoms: C_12  and  C_13
REMARK                            x       y       z     vdW  Elec       q    Type
REMARK                         _______ _______ _______ _____ _____    ______ ____
ROOT
ATOM      1  N   UNL     1      46.217   7.025  13.127  0.00  0.00    +0.000 NA
ATOM      2  H   UNL     1      45.596   6.569  13.797  0.00  0.00    +0.000 HD
ENDROOT
BRANCH   1   3
ATOM      3  C   UNL     1      45.582   6.886  11.797  0.00  0.00    +0.000 C 
BRANCH   3   4
ATOM      4  C   UNL     1      44.900   5.521  11.769  0.00  0.00    +0.000 A 
ATOM      5  C   UNL     1      44.184   4.967  12.822  0.00  0.00    +0.000 A 
ATOM      6  S   UNL     1      43.544   3.424  12.474  0.00  0.00    +0.000 S 
ATOM      7  C   UNL     1      44.198   3.441  10.907  0.00  0.00    +0.000 A 
ATOM      8  N   UNL     1      44.012   2.399  10.050  0.00  0.00    +0.000 NA
ATOM      9  C   UNL     1      44.566   2.556   8.895  0.00  0.00    +0.000 A 
ATOM     10  N   UNL     1      45.291   3.658   8.514  0.00  0.00    +0.000 N 
ATOM     11  C   UNL     1      45.500   4.742   9.341  0.00  0.00    +0.000 A 
ATOM     12  O   UNL     1      46.147   5.713   8.971  0.00  0.00    +0.000 OA
ATOM     13  C   UNL     1      44.895   4.608  10.649  0.00  0.00    +0.000 A 
ATOM     14  H   UNL     1      45.702   3.712   7.595  0.00  0.00    +0.000 HD
ENDBRANCH   3   4
BRANCH   3  15
ATOM     15  C   UNL     1      44.593   8.040  11.421  0.00  0.00    +0.000 C 
BRANCH  15  16
ATOM     16  N   UNL     1      43.261   7.608  10.979  0.00  0.00    +0.000 NA
ATOM     17  H   UNL     1      43.300   6.646  10.654  0.00  0.00    +0.000 HD
ATOM     18  H   UNL     1      42.972   8.190  10.192  0.00  0.00    +0.000 HD
ENDBRANCH  15  16
ENDBRANCH   3  15
ENDBRANCH   1   3
BRANCH   1  19
ATOM     19  C   UNL     1      47.523   6.377  13.200  0.00  0.00    +0.000 C 
BRANCH  19  20
ATOM     20  C   UNL     1      47.797   5.797  14.569  0.00  0.00    +0.000 A 
ATOM     21  C   UNL     1      48.712   6.405  15.439  0.00  0.00    +0.000 A 
ATOM     22  C   UNL     1      48.912   5.901  16.726  0.00  0.00    +0.000 A 
ATOM     23  C   UNL     1      48.190   4.789  17.180  0.00  0.00    +0.000 A 
ATOM     24  C   UNL     1      47.279   4.177  16.311  0.00  0.00    +0.000 A 
ATOM     25  C   UNL     1      47.087   4.674  15.019  0.00  0.00    +0.000 A 
BRANCH  23  26
ATOM     26  C   UNL     1      48.397   4.256  18.579  0.00  0.00    +0.000 C 
BRANCH  26  27
ATOM     27  N   UNL     1      48.954   2.906  18.541  0.00  0.00    +0.000 NA
ATOM     28  H   UNL     1      48.192   2.236  18.651  0.00  0.00    +0.000 HD
BRANCH  27  29
ATOM     29  C   UNL     1      49.619   2.637  17.273  0.00  0.00    +0.000 C 
BRANCH  29  30
ATOM     30  C   UNL     1      51.016   2.210  17.560  0.00  0.00    +0.000 A 
ATOM     31  C   UNL     1      52.157   2.934  17.841  0.00  0.00    +0.000 A 
ATOM     32  C   UNL     1      53.218   2.012  18.017  0.00  0.00    +0.000 A 
ATOM     33  C   UNL     1      52.700   0.750  17.837  0.00  0.00    +0.000 A 
ATOM     34  N   UNL     1      51.366   0.879  17.559  0.00  0.00    +0.000 N 
ATOM     35  H   UNL     1      50.727   0.125  17.341  0.00  0.00    +0.000 HD
ENDBRANCH  29  30
ENDBRANCH  27  29
ENDBRANCH  26  27
ENDBRANCH  23  26
ENDBRANCH  19  20
ENDBRANCH   1  19
TORSDOF 10
ENDMDL
MODEL 6
REMARK VINA RESULT:    -6.806      3.343      4.426
REMARK INTER + INTRA:         -11.629
REMARK INTER:                 -10.373
REMARK INTRA:                  -1.256
REMARK UNBOUND:                -1.044
REMARK  Name = 
REMARK  10 active torsions:
REMARK  status: ('A' for Active; 'I' for Inactive)
REMARK    1  A    between atoms: N_1  and  C_2
REMARK    2  A    between atoms: C_2  and  C_3
REMARK    3  A    between atoms: C_3  and  N_4
REMARK    4  A    between atoms: C_3  and  C_20
REMARK    5  A    between atoms: N_4  and  C_5
REMARK    6  A    between atoms: C_5  and  C_6
REMARK    7  A    between atoms: C_9  and  C_10
REMARK    8  A    between atoms: C_10  and  N_11
REMARK    9  A    between atoms: N_11  and  C_12
REMARK   10  A    between atoms: C_12  and  C_13
REMARK                            x       y       z     vdW  Elec       q    Type
REMARK                         _______ _______ _______ _____ _____    ______ ____
ROOT
ATOM      1  N   UNL     1      47.024   7.879  14.076  0.00  0.00    +0.000 NA
ATOM      2  H   UNL     1      47.525   8.741  14.296  0.00  0.00    +0.000 HD
ENDROOT
BRANCH   1   3
ATOM      3  C   UNL     1      48.043   6.809  13.979  0.00  0.00    +0.000 C 
BRANCH   3   4
ATOM      4  C   UNL     1      49.391   7.447  14.299  0.00  0.00    +0.000 A 
ATOM      5  C   UNL     1      49.927   7.580  15.573  0.00  0.00    +0.000 A 
ATOM      6  S   UNL     1      51.455   8.338  15.595  0.00  0.00    +0.000 S 
ATOM      7  C   UNL     1      51.457   8.515  13.906  0.00  0.00    +0.000 A 
ATOM      8  N   UNL     1      52.504   9.095  13.255  0.00  0.00    +0.000 NA
ATOM      9  C   UNL     1      52.363   9.157  11.973  0.00  0.00    +0.000 A 
ATOM     10  N   UNL     1      51.273   8.694  11.279  0.00  0.00    +0.000 N 
ATOM     11  C   UNL     1      50.193   8.092  11.890  0.00  0.00    +0.000 A 
ATOM     12  O   UNL     1      49.237   7.685  11.243  0.00  0.00    +0.000 OA
ATOM     13  C   UNL     1      50.308   8.001  13.330  0.00  0.00    +0.000 A 
ATOM     14  H   UNL     1      51.227   8.780  10.276  0.00  0.00    +0.000 HD
ENDBRANCH   3   4
BRANCH   3  15
ATOM     15  C   UNL     1      47.762   5.557  14.876  0.00  0.00    +0.000 C 
BRANCH  15  16
ATOM     16  N   UNL     1      47.451   4.319  14.149  0.00  0.00    +0.000 NA
ATOM     17  H   UNL     1      46.936   4.537  13.301  0.00  0.00    +0.000 HD
ATOM     18  H   UNL     1      46.852   3.737  14.735  0.00  0.00    +0.000 HD
ENDBRANCH  15  16
ENDBRANCH   3  15
ENDBRANCH   1   3
BRANCH   1  19
ATOM     19  C   UNL     1      46.297   8.081  12.827  0.00  0.00    +0.000 C 
BRANCH  19  20
ATOM     20  C   UNL     1      45.659   6.805  12.325  0.00  0.00    +0.000 A 
ATOM     21  C   UNL     1      44.642   6.173  13.053  0.00  0.00    +0.000 A 
ATOM     22  C   UNL     1      44.013   5.032  12.552  0.00  0.00    +0.000 A 
ATOM     23  C   UNL     1      44.375   4.504  11.304  0.00  0.00    +0.000 A 
ATOM     24  C   UNL     1      45.394   5.130  10.578  0.00  0.00    +0.000 A 
ATOM     25  C   UNL     1      46.032   6.267  11.084  0.00  0.00    +0.000 A 
BRANCH  23  26
ATOM     26  C   UNL     1      43.681   3.277  10.757  0.00  0.00    +0.000 C 
BRANCH  26  27
ATOM     27  N   UNL     1      44.022   3.074   9.352  0.00  0.00    +0.000 NA
ATOM     28  H   UNL     1      44.612   3.849   9.045  0.00  0.00    +0.000 HD
BRANCH  27  29
ATOM     29  C   UNL     1      44.760   1.834   9.154  0.00  0.00    +0.000 C 
BRANCH  29  30
ATOM     30  C   UNL     1      45.861   2.095   8.187  0.00  0.00    +0.000 A 
ATOM     31  C   UNL     1      46.215   3.230   7.485  0.00  0.00    +0.000 A 
ATOM     32  C   UNL     1      47.344   2.909   6.692  0.00  0.00    +0.000 A 
ATOM     33  C   UNL     1      47.650   1.588   6.927  0.00  0.00    +0.000 A 
ATOM     34  N   UNL     1      46.746   1.102   7.832  0.00  0.00    +0.000 N 
ATOM     35  H   UNL     1      46.693   0.149   8.170  0.00  0.00    +0.000 HD
ENDBRANCH  29  30
ENDBRANCH  27  29
ENDBRANCH  26  27
ENDBRANCH  23  26
ENDBRANCH  19  20
ENDBRANCH   1  19
TORSDOF 10
ENDMDL
MODEL 7
REMARK VINA RESULT:    -6.695      2.100      3.058
REMARK INTER + INTRA:         -11.457
REMARK INTER:                 -10.218
REMARK INTRA:                  -1.239
REMARK UNBOUND:                -1.044
REMARK  Name = 
REMARK  10 active torsions:
REMARK  status: ('A' for Active; 'I' for Inactive)
REMARK    1  A    between atoms: N_1  and  C_2
REMARK    2  A    between atoms: C_2  and  C_3
REMARK    3  A    between atoms: C_3  and  N_4
REMARK    4  A    between atoms: C_3  and  C_20
REMARK    5  A    between atoms: N_4  and  C_5
REMARK    6  A    between atoms: C_5  and  C_6
REMARK    7  A    between atoms: C_9  and  C_10
REMARK    8  A    between atoms: C_10  and  N_11
REMARK    9  A    between atoms: N_11  and  C_12
REMARK   10  A    between atoms: C_12  and  C_13
REMARK                            x       y       z     vdW  Elec       q    Type
REMARK                         _______ _______ _______ _____ _____    ______ ____
ROOT
ATOM      1  N   UNL     1      49.458   7.506  14.377  0.00  0.00    +0.000 NA
ATOM      2  H   UNL     1      49.370   6.516  14.141  0.00  0.00    +0.000 HD
ENDROOT
BRANCH   1   3
ATOM      3  C   UNL     1      48.667   7.720  15.610  0.00  0.00    +0.000 C 
BRANCH   3   4
ATOM      4  C   UNL     1      49.099   6.651  16.608  0.00  0.00    +0.000 A 
ATOM      5  C   UNL     1      50.021   6.841  17.629  0.00  0.00    +0.000 A 
ATOM      6  S   UNL     1      50.288   5.447  18.576  0.00  0.00    +0.000 S 
ATOM      7  C   UNL     1      49.182   4.541  17.659  0.00  0.00    +0.000 A 
ATOM      8  N   UNL     1      48.923   3.235  17.947  0.00  0.00    +0.000 NA
ATOM      9  C   UNL     1      48.060   2.679  17.165  0.00  0.00    +0.000 A 
ATOM     10  N   UNL     1      47.431   3.305  16.118  0.00  0.00    +0.000 N 
ATOM     11  C   UNL     1      47.651   4.627  15.790  0.00  0.00    +0.000 A 
ATOM     12  O   UNL     1      47.071   5.159  14.853  0.00  0.00    +0.000 OA
ATOM     13  C   UNL     1      48.614   5.291  16.643  0.00  0.00    +0.000 A 
ATOM     14  H   UNL     1      46.769   2.808  15.542  0.00  0.00    +0.000 HD
ENDBRANCH   3   4
BRANCH   3  15
ATOM     15  C   UNL     1      48.776   9.161  16.212  0.00  0.00    +0.000 C 
BRANCH  15  16
ATOM     16  N   UNL     1      47.537   9.697  16.790  0.00  0.00    +0.000 NA
ATOM     17  H   UNL     1      46.869   9.898  16.050  0.00  0.00    +0.000 HD
ATOM     18  H   UNL     1      47.748  10.575  17.263  0.00  0.00    +0.000 HD
ENDBRANCH  15  16
ENDBRANCH   3  15
ENDBRANCH   1   3
BRANCH   1  19
ATOM     19  C   UNL     1      48.967   8.289  13.247  0.00  0.00    +0.000 C 
BRANCH  19  20
ATOM     20  C   UNL     1      47.646   7.772  12.724  0.00  0.00    +0.000 A 
ATOM     21  C   UNL     1      47.598   6.690  11.833  0.00  0.00    +0.000 A 
ATOM     22  C   UNL     1      46.373   6.177  11.405  0.00  0.00    +0.000 A 
ATOM     23  C   UNL     1      45.166   6.720  11.869  0.00  0.00    +0.000 A 
ATOM     24  C   UNL     1      45.212   7.803  12.755  0.00  0.00    +0.000 A 
ATOM     25  C   UNL     1      46.439   8.325  13.175  0.00  0.00    +0.000 A 
BRANCH  23  26
ATOM     26  C   UNL     1      43.841   6.151  11.417  0.00  0.00    +0.000 C 
BRANCH  26  27
ATOM     27  N   UNL     1      43.988   5.446  10.146  0.00  0.00    +0.000 NA
ATOM     28  H   UNL     1      44.890   5.697   9.738  0.00  0.00    +0.000 HD
BRANCH  27  29
ATOM     29  C   UNL     1      43.955   4.001  10.327  0.00  0.00    +0.000 C 
BRANCH  29  30
ATOM     30  C   UNL     1      44.853   3.383   9.314  0.00  0.00    +0.000 A 
ATOM     31  C   UNL     1      45.219   2.070   9.093  0.00  0.00    +0.000 A 
ATOM     32  C   UNL     1      46.116   2.053   7.997  0.00  0.00    +0.000 A 
ATOM     33  C   UNL     1      46.277   3.354   7.578  0.00  0.00    +0.000 A 
ATOM     34  N   UNL     1      45.511   4.153   8.382  0.00  0.00    +0.000 N 
ATOM     35  H   UNL     1      45.455   5.163   8.342  0.00  0.00    +0.000 HD
ENDBRANCH  29  30
ENDBRANCH  27  29
ENDBRANCH  26  27
ENDBRANCH  23  26
ENDBRANCH  19  20
ENDBRANCH   1  19
TORSDOF 10
ENDMDL
MODEL 8
REMARK VINA RESULT:    -6.606      2.290      3.428
REMARK INTER + INTRA:         -11.318
REMARK INTER:                 -10.379
REMARK INTRA:                  -0.939
REMARK UNBOUND:                -1.044
REMARK  Name = 
REMARK  10 active torsions:
REMARK  status: ('A' for Active; 'I' for Inactive)
REMARK    1  A    between atoms: N_1  and  C_2
REMARK    2  A    between atoms: C_2  and  C_3
REMARK    3  A    between atoms: C_3  and  N_4
REMARK    4  A    between atoms: C_3  and  C_20
REMARK    5  A    between atoms: N_4  and  C_5
REMARK    6  A    between atoms: C_5  and  C_6
REMARK    7  A    between atoms: C_9  and  C_10
REMARK    8  A    between atoms: C_10  and  N_11
REMARK    9  A    between atoms: N_11  and  C_12
REMARK   10  A    between atoms: C_12  and  C_13
REMARK                            x       y       z     vdW  Elec       q    Type
REMARK                         _______ _______ _______ _____ _____    ______ ____
ROOT
ATOM      1  N   UNL     1      49.656   6.786  14.600  0.00  0.00    +0.000 NA
ATOM      2  H   UNL     1      48.954   6.266  15.128  0.00  0.00    +0.000 HD
ENDROOT
BRANCH   1   3
ATOM      3  C   UNL     1      50.201   7.813  15.517  0.00  0.00    +0.000 C 
BRANCH   3   4
ATOM      4  C   UNL     1      49.303   7.832  16.750  0.00  0.00    +0.000 A 
ATOM      5  C   UNL     1      48.611   8.942  17.214  0.00  0.00    +0.000 A 
ATOM      6  S   UNL     1      47.691   8.636  18.618  0.00  0.00    +0.000 S 
ATOM      7  C   UNL     1      48.181   7.011  18.656  0.00  0.00    +0.000 A 
ATOM      8  N   UNL     1      47.741   6.159  19.624  0.00  0.00    +0.000 NA
ATOM      9  C   UNL     1      48.197   4.956  19.521  0.00  0.00    +0.000 A 
ATOM     10  N   UNL     1      49.055   4.523  18.541  0.00  0.00    +0.000 N 
ATOM     11  C   UNL     1      49.522   5.341  17.534  0.00  0.00    +0.000 A 
ATOM     12  O   UNL     1      50.282   4.924  16.671  0.00  0.00    +0.000 OA
ATOM     13  C   UNL     1      49.035   6.703  17.611  0.00  0.00    +0.000 A 
ATOM     14  H   UNL     1      49.377   3.567  18.523  0.00  0.00    +0.000 HD
ENDBRANCH   3   4
BRANCH   3  15
ATOM     15  C   UNL     1      51.707   7.616  15.896  0.00  0.00    +0.000 C 
BRANCH  15  16
ATOM     16  N   UNL     1      52.615   7.385  14.765  0.00  0.00    +0.000 NA
ATOM     17  H   UNL     1      52.080   7.296  13.905  0.00  0.00    +0.000 HD
ATOM     18  H   UNL     1      53.110   6.505  14.915  0.00  0.00    +0.000 HD
ENDBRANCH  15  16
ENDBRANCH   3  15
ENDBRANCH   1   3
BRANCH   1  19
ATOM     19  C   UNL     1      49.009   7.364  13.427  0.00  0.00    +0.000 C 
BRANCH  19  20
ATOM     20  C   UNL     1      47.868   6.508  12.924  0.00  0.00    +0.000 A 
ATOM     21  C   UNL     1      47.393   5.426  13.678  0.00  0.00    +0.000 A 
ATOM     22  C   UNL     1      46.297   4.681  13.239  0.00  0.00    +0.000 A 
ATOM     23  C   UNL     1      45.640   5.008  12.044  0.00  0.00    +0.000 A 
ATOM     24  C   UNL     1      46.116   6.086  11.287  0.00  0.00    +0.000 A 
ATOM     25  C   UNL     1      47.220   6.825  11.721  0.00  0.00    +0.000 A 
BRANCH  23  26
ATOM     26  C   UNL     1      44.444   4.209  11.579  0.00  0.00    +0.000 C 
BRANCH  26  27
ATOM     27  N   UNL     1      44.387   4.166  10.121  0.00  0.00    +0.000 NA
ATOM     28  H   UNL     1      45.212   4.638   9.749  0.00  0.00    +0.000 HD
BRANCH  27  29
ATOM     29  C   UNL     1      44.384   2.796   9.626  0.00  0.00    +0.000 C 
BRANCH  29  30
ATOM     30  C   UNL     1      45.421   2.680   8.564  0.00  0.00    +0.000 A 
ATOM     31  C   UNL     1      45.883   3.588   7.631  0.00  0.00    +0.000 A 
ATOM     32  C   UNL     1      46.872   2.938   6.853  0.00  0.00    +0.000 A 
ATOM     33  C   UNL     1      46.988   1.651   7.328  0.00  0.00    +0.000 A 
ATOM     34  N   UNL     1      46.104   1.503   8.362  0.00  0.00    +0.000 N 
ATOM     35  H   UNL     1      45.934   0.653   8.884  0.00  0.00    +0.000 HD
ENDBRANCH  29  30
ENDBRANCH  27  29
ENDBRANCH  26  27
ENDBRANCH  23  26
ENDBRANCH  19  20
ENDBRANCH   1  19
TORSDOF 10
ENDMDL
MODEL 9
REMARK VINA RESULT:    -6.542      2.374      2.934
REMARK INTER + INTRA:         -11.219
REMARK INTER:                 -10.659
REMARK INTRA:                  -0.559
REMARK UNBOUND:                -1.044
REMARK  Name = 
REMARK  10 active torsions:
REMARK  status: ('A' for Active; 'I' for Inactive)
REMARK    1  A    between atoms: N_1  and  C_2
REMARK    2  A    between atoms: C_2  and  C_3
REMARK    3  A    between atoms: C_3  and  N_4
REMARK    4  A    between atoms: C_3  and  C_20
REMARK    5  A    between atoms: N_4  and  C_5
REMARK    6  A    between atoms: C_5  and  C_6
REMARK    7  A    between atoms: C_9  and  C_10
REMARK    8  A    between atoms: C_10  and  N_11
REMARK    9  A    between atoms: N_11  and  C_12
REMARK   10  A    between atoms: C_12  and  C_13
REMARK                            x       y       z     vdW  Elec       q    Type
REMARK                         _______ _______ _______ _____ _____    ______ ____
ROOT
ATOM      1  N   UNL     1      49.014   6.634  14.280  0.00  0.00    +0.000 NA
ATOM      2  H   UNL     1      48.878   5.624  14.229  0.00  0.00    +0.000 HD
ENDROOT
BRANCH   1   3
ATOM      3  C   UNL     1      48.677   7.039  15.664  0.00  0.00    +0.000 C 
BRANCH   3   4
ATOM      4  C   UNL     1      49.508   6.166  16.599  0.00  0.00    +0.000 A 
ATOM      5  C   UNL     1      48.989   5.272  17.526  0.00  0.00    +0.000 A 
ATOM      6  S   UNL     1      50.183   4.444  18.420  0.00  0.00    +0.000 S 
ATOM      7  C   UNL     1      51.436   5.247  17.600  0.00  0.00    +0.000 A 
ATOM      8  N   UNL     1      52.744   4.993  17.882  0.00  0.00    +0.000 NA
ATOM      9  C   UNL     1      53.582   5.677  17.178  0.00  0.00    +0.000 A 
ATOM     10  N   UNL     1      53.235   6.595  16.217  0.00  0.00    +0.000 N 
ATOM     11  C   UNL     1      51.927   6.881  15.889  0.00  0.00    +0.000 A 
ATOM     12  O   UNL     1      51.649   7.701  15.023  0.00  0.00    +0.000 OA
ATOM     13  C   UNL     1      50.951   6.135  16.656  0.00  0.00    +0.000 A 
ATOM     14  H   UNL     1      53.943   7.099  15.707  0.00  0.00    +0.000 HD
ENDBRANCH   3   4
BRANCH   3  15
ATOM     15  C   UNL     1      48.870   8.563  15.963  0.00  0.00    +0.000 C 
BRANCH  15  16
ATOM     16  N   UNL     1      47.636   9.312  16.237  0.00  0.00    +0.000 NA
ATOM     17  H   UNL     1      46.860   8.666  16.356  0.00  0.00    +0.000 HD
ATOM     18  H   UNL     1      47.426   9.904  15.433  0.00  0.00    +0.000 HD
ENDBRANCH  15  16
ENDBRANCH   3  15
ENDBRANCH   1   3
BRANCH   1  19
ATOM     19  C   UNL     1      48.153   7.261  13.282  0.00  0.00    +0.000 C 
BRANCH  19  20
ATOM     20  C   UNL     1      47.093   6.313  12.766  0.00  0.00    +0.000 A 
ATOM     21  C   UNL     1      46.458   6.543  11.537  0.00  0.00    +0.000 A 
ATOM     22  C   UNL     1      45.529   5.630  11.036  0.00  0.00    +0.000 A 
ATOM     23  C   UNL     1      45.223   4.458  11.742  0.00  0.00    +0.000 A 
ATOM     24  C   UNL     1      45.853   4.230  12.972  0.00  0.00    +0.000 A 
ATOM     25  C   UNL     1      46.775   5.149  13.479  0.00  0.00    +0.000 A 
BRANCH  23  26
ATOM     26  C   UNL     1      44.228   3.464  11.189  0.00  0.00    +0.000 C 
BRANCH  26  27
ATOM     27  N   UNL     1      44.893   2.500  10.316  0.00  0.00    +0.000 NA
ATOM     28  H   UNL     1      44.543   1.567  10.536  0.00  0.00    +0.000 HD
BRANCH  27  29
ATOM     29  C   UNL     1      44.617   2.771   8.912  0.00  0.00    +0.000 C 
BRANCH  29  30
ATOM     30  C   UNL     1      45.827   2.414   8.121  0.00  0.00    +0.000 A 
ATOM     31  C   UNL     1      46.479   1.211   7.936  0.00  0.00    +0.000 A 
ATOM     32  C   UNL     1      47.592   1.452   7.093  0.00  0.00    +0.000 A 
ATOM     33  C   UNL     1      47.592   2.793   6.786  0.00  0.00    +0.000 A 
ATOM     34  N   UNL     1      46.521   3.369   7.414  0.00  0.00    +0.000 N 
ATOM     35  H   UNL     1      46.284   4.353   7.407  0.00  0.00    +0.000 HD
ENDBRANCH  29  30
ENDBRANCH  27  29
ENDBRANCH  26  27
ENDBRANCH  23  26
ENDBRANCH  19  20
ENDBRANCH   1  19
TORSDOF 10
ENDMDL
