MODEL 1
REMARK VINA RESULT:    -7.821      0.000      0.000
REMARK INTER + INTRA:         -12.318
REMARK INTER:                 -11.021
REMARK INTRA:                  -1.297
REMARK UNBOUND:                -1.297
REMARK  Name = 
REMARK  8 active torsions:
REMARK  status: ('A' for Active; 'I' for Inactive)
REMARK    1  A    between atoms: C_1  and  O_2
REMARK    2  A    between atoms: O_2  and  C_3
REMARK    3  A    between atoms: C_10  and  C_11
REMARK    4  A    between atoms: N_13  and  C_14
REMARK    5  A    between atoms: C_14  and  C_15
REMARK    6  A    between atoms: C_18  and  N_19
REMARK    7  A    between atoms: N_19  and  C_20
REMARK    8  A    between atoms: C_20  and  C_21
REMARK                            x       y       z     vdW  Elec       q    Type
REMARK                         _______ _______ _______ _____ _____    ______ ____
ROOT
ATOM      1  C   UNL     1      47.051   8.110  13.532  0.00  0.00    +0.000 C 
ENDROOT
BRANCH   1   2
ATOM      2  C   UNL     1      46.416   7.177  12.528  0.00  0.00    +0.000 A 
ATOM      3  C   UNL     1      45.173   6.585  12.786  0.00  0.00    +0.000 A 
ATOM      4  C   UNL     1      44.517   5.832  11.800  0.00  0.00    +0.000 A 
ATOM      5  C   UNL     1      45.100   5.597  10.552  0.00  0.00    +0.000 A 
ATOM      6  C   UNL     1      46.381   6.129  10.334  0.00  0.00    +0.000 A 
ATOM      7  C   UNL     1      47.035   6.903  11.305  0.00  0.00    +0.000 A 
BRANCH   5   8
ATOM      8  N   UNL     1      44.443   4.993   9.478  0.00  0.00    +0.000 N 
ATOM      9  H   UNL     1      44.676   5.444   8.600  0.00  0.00    +0.000 HD
BRANCH   8  10
ATOM     10  C   UNL     1      44.308   3.533   9.379  0.00  0.00    +0.000 C 
BRANCH  10  11
ATOM     11  C   UNL     1      45.116   2.967   8.170  0.00  0.00    +0.000 C 
ATOM     12  C   UNL     1      45.889   1.702   8.594  0.00  0.00    +0.000 C 
ATOM     13  C   UNL     1      46.762   1.157   7.463  0.00  0.00    +0.000 C 
ATOM     14  C   UNL     1      47.654   2.256   6.898  0.00  0.00    +0.000 C 
ATOM     15  C   UNL     1      46.826   3.472   6.502  0.00  0.00    +0.000 C 
ATOM     16  N   UNL     1      46.046   3.983   7.630  0.00  0.00    +0.000 NA
ATOM     17  H   UNL     1      45.511   4.784   7.305  0.00  0.00    +0.000 HD
ENDBRANCH  10  11
ENDBRANCH   8  10
ENDBRANCH   5   8
ENDBRANCH   1   2
BRANCH   1  20
ATOM     18  C   UNL     1      48.727   6.869  14.841  0.00  0.00    +0.000 C 
ATOM     19  O   UNL     1      49.550   6.938  13.934  0.00  0.00    +0.000 OA
ATOM     20  N   UNL     1      47.478   7.418  14.722  0.00  0.00    +0.000 N 
ATOM     21  H   UNL     1      46.810   7.340  15.472  0.00  0.00    +0.000 HD
BRANCH  18  29
ATOM     22  C   UNL     1      47.319   4.189  16.482  0.00  0.00    +0.000 A 
ATOM     23  N   UNL     1      46.999   3.162  17.289  0.00  0.00    +0.000 NA
ATOM     24  C   UNL     1      47.732   2.979  18.391  0.00  0.00    +0.000 A 
ATOM     25  N   UNL     1      48.764   3.715  18.799  0.00  0.00    +0.000 NA
ATOM     26  C   UNL     1      49.059   4.720  17.953  0.00  0.00    +0.000 A 
ATOM     27  S   UNL     1      50.345   5.765  18.314  0.00  0.00    +0.000 S 
ATOM     28  C   UNL     1      50.087   6.653  16.886  0.00  0.00    +0.000 A 
ATOM     29  C   UNL     1      49.034   6.181  16.110  0.00  0.00    +0.000 A 
ATOM     30  C   UNL     1      48.410   5.030  16.764  0.00  0.00    +0.000 A 
BRANCH  22  32
ATOM     31  C   UNL     1      47.031   3.621  14.229  0.00  0.00    +0.000 C 
ATOM     32  O   UNL     1      46.563   4.377  15.344  0.00  0.00    +0.000 OA
ENDBRANCH  22  32
ENDBRANCH  18  29
ENDBRANCH   1  20
TORSDOF 7
ENDMDL
MODEL 2
REMARK VINA RESULT:    -7.794      1.625      2.072
REMARK INTER + INTRA:         -12.281
REMARK INTER:                 -11.321
REMARK INTRA:                  -0.959
REMARK UNBOUND:                -1.297
REMARK  Name = 
REMARK  8 active torsions:
REMARK  status: ('A' for Active; 'I' for Inactive)
REMARK    1  A    between atoms: C_1  and  O_2
REMARK    2  A    between atoms: O_2  and  C_3
REMARK    3  A    between atoms: C_10  and  C_11
REMARK    4  A    between atoms: N_13  and  C_14
REMARK    5  A    between atoms: C_14  and  C_15
REMARK    6  A    between atoms: C_18  and  N_19
REMARK    7  A    between atoms: N_19  and  C_20
REMARK    8  A    between atoms: C_20  and  C_21
REMARK                            x       y       z     vdW  Elec       q    Type
REMARK                         _______ _______ _______ _____ _____    ______ ____
ROOT
ATOM      1  C   UNL     1      47.320   7.482  12.955  0.00  0.00    +0.000 C 
ENDROOT
BRANCH   1   2
ATOM      2  C   UNL     1      46.512   6.274  12.541  0.00  0.00    +0.000 A 
ATOM      3  C   UNL     1      45.688   6.317  11.411  0.00  0.00    +0.000 A 
ATOM      4  C   UNL     1      45.048   5.159  10.944  0.00  0.00    +0.000 A 
ATOM      5  C   UNL     1      45.163   3.938  11.616  0.00  0.00    +0.000 A 
ATOM      6  C   UNL     1      45.928   3.927  12.793  0.00  0.00    +0.000 A 
ATOM      7  C   UNL     1      46.591   5.074  13.255  0.00  0.00    +0.000 A 
BRANCH   5   8
ATOM      8  N   UNL     1      44.683   2.721  11.126  0.00  0.00    +0.000 N 
ATOM      9  H   UNL     1      44.001   2.314  11.755  0.00  0.00    +0.000 HD
BRANCH   8  10
ATOM     10  C   UNL     1      44.370   2.533   9.703  0.00  0.00    +0.000 C 
BRANCH  10  11
ATOM     11  C   UNL     1      45.666   2.495   8.835  0.00  0.00    +0.000 C 
ATOM     12  C   UNL     1      45.542   3.476   7.652  0.00  0.00    +0.000 C 
ATOM     13  C   UNL     1      46.756   3.413   6.725  0.00  0.00    +0.000 C 
ATOM     14  C   UNL     1      47.030   1.977   6.298  0.00  0.00    +0.000 C 
ATOM     15  C   UNL     1      47.139   1.065   7.513  0.00  0.00    +0.000 C 
ATOM     16  N   UNL     1      45.934   1.125   8.342  0.00  0.00    +0.000 NA
ATOM     17  H   UNL     1      46.068   0.506   9.137  0.00  0.00    +0.000 HD
ENDBRANCH  10  11
ENDBRANCH   8  10
ENDBRANCH   5   8
ENDBRANCH   1   2
BRANCH   1  20
ATOM     18  C   UNL     1      48.740   7.279  14.956  0.00  0.00    +0.000 C 
ATOM     19  O   UNL     1      49.723   6.988  14.282  0.00  0.00    +0.000 OA
ATOM     20  N   UNL     1      47.524   7.535  14.381  0.00  0.00    +0.000 N 
ATOM     21  H   UNL     1      46.724   7.760  14.951  0.00  0.00    +0.000 HD
BRANCH  18  29
ATOM     22  C   UNL     1      48.822   4.913  17.457  0.00  0.00    +0.000 A 
ATOM     23  N   UNL     1      48.915   4.211  18.600  0.00  0.00    +0.000 NA
ATOM     24  C   UNL     1      49.010   4.890  19.747  0.00  0.00    +0.000 A 
ATOM     25  N   UNL     1      49.018   6.214  19.896  0.00  0.00    +0.000 NA
ATOM     26  C   UNL     1      48.941   6.875  18.726  0.00  0.00    +0.000 A 
ATOM     27  S   UNL     1      48.935   8.571  18.723  0.00  0.00    +0.000 S 
ATOM     28  C   UNL     1      48.838   8.616  17.025  0.00  0.00    +0.000 A 
ATOM     29  C   UNL     1      48.811   7.360  16.428  0.00  0.00    +0.000 A 
ATOM     30  C   UNL     1      48.856   6.319  17.455  0.00  0.00    +0.000 A 
BRANCH  22  32
ATOM     31  C   UNL     1      47.757   3.165  16.320  0.00  0.00    +0.000 C 
ATOM     32  O   UNL     1      48.725   4.211  16.273  0.00  0.00    +0.000 OA
ENDBRANCH  22  32
ENDBRANCH  18  29
ENDBRANCH   1  20
TORSDOF 7
ENDMDL
MODEL 3
REMARK VINA RESULT:    -7.567      2.160      2.905
REMARK INTER + INTRA:         -11.961
REMARK INTER:                 -11.068
REMARK INTRA:                  -0.893
REMARK UNBOUND:                -1.297
REMARK  Name = 
REMARK  8 active torsions:
REMARK  status: ('A' for Active; 'I' for Inactive)
REMARK    1  A    between atoms: C_1  and  O_2
REMARK    2  A    between atoms: O_2  and  C_3
REMARK    3  A    between atoms: C_10  and  C_11
REMARK    4  A    between atoms: N_13  and  C_14
REMARK    5  A    between atoms: C_14  and  C_15
REMARK    6  A    between atoms: C_18  and  N_19
REMARK    7  A    between atoms: N_19  and  C_20
REMARK    8  A    between atoms: C_20  and  C_21
REMARK                            x       y       z     vdW  Elec       q    Type
REMARK                         _______ _______ _______ _____ _____    ______ ____
ROOT
ATOM      1  C   UNL     1      47.724   6.518  13.515  0.00  0.00    +0.000 C 
ENDROOT
BRANCH   1   2
ATOM      2  C   UNL     1      46.662   5.890  12.643  0.00  0.00    +0.000 A 
ATOM      3  C   UNL     1      46.287   6.483  11.432  0.00  0.00    +0.000 A 
ATOM      4  C   UNL     1      45.406   5.832  10.555  0.00  0.00    +0.000 A 
ATOM      5  C   UNL     1      44.829   4.601  10.880  0.00  0.00    +0.000 A 
ATOM      6  C   UNL     1      45.151   4.055  12.133  0.00  0.00    +0.000 A 
ATOM      7  C   UNL     1      46.049   4.687  13.006  0.00  0.00    +0.000 A 
BRANCH   5   8
ATOM      8  N   UNL     1      44.071   3.829   9.996  0.00  0.00    +0.000 N 
ATOM      9  H   UNL     1      43.725   4.386   9.223  0.00  0.00    +0.000 HD
BRANCH   8  10
ATOM     10  C   UNL     1      44.479   2.470   9.615  0.00  0.00    +0.000 C 
BRANCH  10  11
ATOM     11  C   UNL     1      45.753   2.489   8.714  0.00  0.00    +0.000 C 
ATOM     12  C   UNL     1      45.540   3.436   7.516  0.00  0.00    +0.000 C 
ATOM     13  C   UNL     1      46.731   3.425   6.557  0.00  0.00    +0.000 C 
ATOM     14  C   UNL     1      47.079   1.999   6.152  0.00  0.00    +0.000 C 
ATOM     15  C   UNL     1      47.274   1.121   7.382  0.00  0.00    +0.000 C 
ATOM     16  N   UNL     1      46.089   1.127   8.241  0.00  0.00    +0.000 NA
ATOM     17  H   UNL     1      46.280   0.535   9.045  0.00  0.00    +0.000 HD
ENDBRANCH  10  11
ENDBRANCH   8  10
ENDBRANCH   5   8
ENDBRANCH   1   2
BRANCH   1  20
ATOM     18  C   UNL     1      48.764   6.102  15.708  0.00  0.00    +0.000 C 
ATOM     19  O   UNL     1      49.816   6.628  15.357  0.00  0.00    +0.000 OA
ATOM     20  N   UNL     1      47.690   6.009  14.863  0.00  0.00    +0.000 N 
ATOM     21  H   UNL     1      46.838   5.562  15.164  0.00  0.00    +0.000 HD
BRANCH  18  29
ATOM     22  C   UNL     1      48.103   7.483  18.791  0.00  0.00    +0.000 A 
ATOM     23  N   UNL     1      47.810   7.753  20.077  0.00  0.00    +0.000 NA
ATOM     24  C   UNL     1      47.746   6.729  20.933  0.00  0.00    +0.000 A 
ATOM     25  N   UNL     1      47.948   5.442  20.659  0.00  0.00    +0.000 NA
ATOM     26  C   UNL     1      48.221   5.217  19.360  0.00  0.00    +0.000 A 
ATOM     27  S   UNL     1      48.511   3.633  18.828  0.00  0.00    +0.000 S 
ATOM     28  C   UNL     1      48.738   4.160  17.227  0.00  0.00    +0.000 A 
ATOM     29  C   UNL     1      48.599   5.534  17.060  0.00  0.00    +0.000 A 
ATOM     30  C   UNL     1      48.304   6.165  18.347  0.00  0.00    +0.000 A 
BRANCH  22  32
ATOM     31  C   UNL     1      47.531   9.720  18.397  0.00  0.00    +0.000 C 
ATOM     32  O   UNL     1      48.168   8.541  17.908  0.00  0.00    +0.000 OA
ENDBRANCH  22  32
ENDBRANCH  18  29
ENDBRANCH   1  20
TORSDOF 7
ENDMDL
MODEL 4
REMARK VINA RESULT:    -7.360      1.998      3.535
REMARK INTER + INTRA:         -11.668
REMARK INTER:                 -10.463
REMARK INTRA:                  -1.205
REMARK UNBOUND:                -1.297
REMARK  Name = 
REMARK  8 active torsions:
REMARK  status: ('A' for Active; 'I' for Inactive)
REMARK    1  A    between atoms: C_1  and  O_2
REMARK    2  A    between atoms: O_2  and  C_3
REMARK    3  A    between atoms: C_10  and  C_11
REMARK    4  A    between atoms: N_13  and  C_14
REMARK    5  A    between atoms: C_14  and  C_15
REMARK    6  A    between atoms: C_18  and  N_19
REMARK    7  A    between atoms: N_19  and  C_20
REMARK    8  A    between atoms: C_20  and  C_21
REMARK                            x       y       z     vdW  Elec       q    Type
REMARK                         _______ _______ _______ _____ _____    ______ ____
ROOT
ATOM      1  C   UNL     1      47.165   4.249  14.981  0.00  0.00    +0.000 C 
ENDROOT
BRANCH   1   2
ATOM      2  C   UNL     1      46.498   4.563  13.663  0.00  0.00    +0.000 A 
ATOM      3  C   UNL     1      46.750   5.770  13.002  0.00  0.00    +0.000 A 
ATOM      4  C   UNL     1      46.244   6.005  11.715  0.00  0.00    +0.000 A 
ATOM      5  C   UNL     1      45.427   5.072  11.070  0.00  0.00    +0.000 A 
ATOM      6  C   UNL     1      45.116   3.899  11.776  0.00  0.00    +0.000 A 
ATOM      7  C   UNL     1      45.637   3.645  13.054  0.00  0.00    +0.000 A 
BRANCH   5   8
ATOM      8  N   UNL     1      45.018   5.171   9.737  0.00  0.00    +0.000 N 
ATOM      9  H   UNL     1      45.771   5.503   9.145  0.00  0.00    +0.000 HD
BRANCH   8  10
ATOM     10  C   UNL     1      44.175   4.143   9.111  0.00  0.00    +0.000 C 
BRANCH  10  11
ATOM     11  C   UNL     1      44.981   3.298   8.077  0.00  0.00    +0.000 C 
ATOM     12  C   UNL     1      45.586   2.056   8.763  0.00  0.00    +0.000 C 
ATOM     13  C   UNL     1      46.455   1.239   7.807  0.00  0.00    +0.000 C 
ATOM     14  C   UNL     1      47.493   2.128   7.133  0.00  0.00    +0.000 C 
ATOM     15  C   UNL     1      46.827   3.332   6.479  0.00  0.00    +0.000 C 
ATOM     16  N   UNL     1      46.047   4.108   7.445  0.00  0.00    +0.000 NA
ATOM     17  H   UNL     1      45.622   4.889   6.952  0.00  0.00    +0.000 HD
ENDBRANCH  10  11
ENDBRANCH   8  10
ENDBRANCH   5   8
ENDBRANCH   1   2
BRANCH   1  20
ATOM     18  C   UNL     1      48.576   5.504  16.561  0.00  0.00    +0.000 C 
ATOM     19  O   UNL     1      49.317   4.541  16.732  0.00  0.00    +0.000 OA
ATOM     20  N   UNL     1      47.499   5.441  15.718  0.00  0.00    +0.000 N 
ATOM     21  H   UNL     1      46.894   6.238  15.600  0.00  0.00    +0.000 HD
BRANCH  18  29
ATOM     22  C   UNL     1      48.857   8.766  15.497  0.00  0.00    +0.000 A 
ATOM     23  N   UNL     1      48.953  10.101  15.359  0.00  0.00    +0.000 NA
ATOM     24  C   UNL     1      49.124  10.835  16.462  0.00  0.00    +0.000 A 
ATOM     25  N   UNL     1      49.219  10.389  17.714  0.00  0.00    +0.000 NA
ATOM     26  C   UNL     1      49.101   9.052  17.806  0.00  0.00    +0.000 A 
ATOM     27  S   UNL     1      49.200   8.307  19.327  0.00  0.00    +0.000 S 
ATOM     28  C   UNL     1      48.962   6.768  18.642  0.00  0.00    +0.000 A 
ATOM     29  C   UNL     1      48.802   6.784  17.261  0.00  0.00    +0.000 A 
ATOM     30  C   UNL     1      48.902   8.156  16.763  0.00  0.00    +0.000 A 
BRANCH  22  32
ATOM     31  C   UNL     1      49.901   7.724  13.678  0.00  0.00    +0.000 C 
ATOM     32  O   UNL     1      48.680   8.009  14.358  0.00  0.00    +0.000 OA
ENDBRANCH  22  32
ENDBRANCH  18  29
ENDBRANCH   1  20
TORSDOF 7
ENDMDL
MODEL 5
REMARK VINA RESULT:    -7.244      2.456      3.328
REMARK INTER + INTRA:         -11.505
REMARK INTER:                 -10.505
REMARK INTRA:                  -1.000
REMARK UNBOUND:                -1.297
REMARK  Name = 
REMARK  8 active torsions:
REMARK  status: ('A' for Active; 'I' for Inactive)
REMARK    1  A    between atoms: C_1  and  O_2
REMARK    2  A    between atoms: O_2  and  C_3
REMARK    3  A    between atoms: C_10  and  C_11
REMARK    4  A    between atoms: N_13  and  C_14
REMARK    5  A    between atoms: C_14  and  C_15
REMARK    6  A    between atoms: C_18  and  N_19
REMARK    7  A    between atoms: N_19  and  C_20
REMARK    8  A    between atoms: C_20  and  C_21
REMARK                            x       y       z     vdW  Elec       q    Type
REMARK                         _______ _______ _______ _____ _____    ______ ____
ROOT
ATOM      1  C   UNL     1      47.134   4.661  14.765  0.00  0.00    +0.000 C 
ENDROOT
BRANCH   1   2
ATOM      2  C   UNL     1      46.476   4.870  13.421  0.00  0.00    +0.000 A 
ATOM      3  C   UNL     1      46.760   6.004  12.652  0.00  0.00    +0.000 A 
ATOM      4  C   UNL     1      46.260   6.131  11.347  0.00  0.00    +0.000 A 
ATOM      5  C   UNL     1      45.419   5.164  10.789  0.00  0.00    +0.000 A 
ATOM      6  C   UNL     1      45.077   4.071  11.600  0.00  0.00    +0.000 A 
ATOM      7  C   UNL     1      45.590   3.922  12.897  0.00  0.00    +0.000 A 
BRANCH   5   8
ATOM      8  N   UNL     1      45.014   5.151   9.452  0.00  0.00    +0.000 N 
ATOM      9  H   UNL     1      45.752   5.478   8.839  0.00  0.00    +0.000 HD
BRANCH   8  10
ATOM     10  C   UNL     1      44.226   4.041   8.897  0.00  0.00    +0.000 C 
BRANCH  10  11
ATOM     11  C   UNL     1      45.068   3.190   7.897  0.00  0.00    +0.000 C 
ATOM     12  C   UNL     1      45.709   1.993   8.629  0.00  0.00    +0.000 C 
ATOM     13  C   UNL     1      46.613   1.174   7.707  0.00  0.00    +0.000 C 
ATOM     14  C   UNL     1      47.625   2.075   7.011  0.00  0.00    +0.000 C 
ATOM     15  C   UNL     1      46.925   3.233   6.312  0.00  0.00    +0.000 C 
ATOM     16  N   UNL     1      46.111   4.013   7.245  0.00  0.00    +0.000 NA
ATOM     17  H   UNL     1      45.664   4.762   6.724  0.00  0.00    +0.000 HD
ENDBRANCH  10  11
ENDBRANCH   8  10
ENDBRANCH   5   8
ENDBRANCH   1   2
BRANCH   1  20
ATOM     18  C   UNL     1      48.660   5.931  16.221  0.00  0.00    +0.000 C 
ATOM     19  O   UNL     1      49.226   4.908  16.594  0.00  0.00    +0.000 OA
ATOM     20  N   UNL     1      47.625   5.895  15.325  0.00  0.00    +0.000 N 
ATOM     21  H   UNL     1      47.163   6.744  15.041  0.00  0.00    +0.000 HD
BRANCH  18  29
ATOM     22  C   UNL     1      47.921   7.700  19.081  0.00  0.00    +0.000 A 
ATOM     23  N   UNL     1      47.838   8.565  20.108  0.00  0.00    +0.000 NA
ATOM     24  C   UNL     1      48.522   9.709  20.021  0.00  0.00    +0.000 A 
ATOM     25  N   UNL     1      49.291  10.107  19.009  0.00  0.00    +0.000 NA
ATOM     26  C   UNL     1      49.359   9.204  18.013  0.00  0.00    +0.000 A 
ATOM     27  S   UNL     1      50.294   9.545  16.639  0.00  0.00    +0.000 S 
ATOM     28  C   UNL     1      49.898   8.045  15.939  0.00  0.00    +0.000 A 
ATOM     29  C   UNL     1      49.060   7.260  16.724  0.00  0.00    +0.000 A 
ATOM     30  C   UNL     1      48.727   7.968  17.961  0.00  0.00    +0.000 A 
BRANCH  22  32
ATOM     31  C   UNL     1      47.871   5.533  19.969  0.00  0.00    +0.000 C 
ATOM     32  O   UNL     1      47.215   6.518  19.172  0.00  0.00    +0.000 OA
ENDBRANCH  22  32
ENDBRANCH  18  29
ENDBRANCH   1  20
TORSDOF 7
ENDMDL
MODEL 6
REMARK VINA RESULT:    -6.991      4.052      8.879
REMARK INTER + INTRA:         -11.148
REMARK INTER:                 -10.106
REMARK INTRA:                  -1.042
REMARK UNBOUND:                -1.297
REMARK  Name = 
REMARK  8 active torsions:
REMARK  status: ('A' for Active; 'I' for Inactive)
REMARK    1  A    between atoms: C_1  and  O_2
REMARK    2  A    between atoms: O_2  and  C_3
REMARK    3  A    between atoms: C_10  and  C_11
REMARK    4  A    between atoms: N_13  and  C_14
REMARK    5  A    between atoms: C_14  and  C_15
REMARK    6  A    between atoms: C_18  and  N_19
REMARK    7  A    between atoms: N_19  and  C_20
REMARK    8  A    between atoms: C_20  and  C_21
REMARK                            x       y       z     vdW  Elec       q    Type
REMARK                         _______ _______ _______ _____ _____    ______ ____
ROOT
ATOM      1  C   UNL     1      47.179   3.393  16.849  0.00  0.00    +0.000 C 
ENDROOT
BRANCH   1   2
ATOM      2  C   UNL     1      48.637   3.351  17.241  0.00  0.00    +0.000 A 
ATOM      3  C   UNL     1      49.409   2.206  17.010  0.00  0.00    +0.000 A 
ATOM      4  C   UNL     1      50.792   2.212  17.243  0.00  0.00    +0.000 A 
ATOM      5  C   UNL     1      51.441   3.336  17.764  0.00  0.00    +0.000 A 
ATOM      6  C   UNL     1      50.643   4.451  18.065  0.00  0.00    +0.000 A 
ATOM      7  C   UNL     1      49.263   4.463  17.814  0.00  0.00    +0.000 A 
BRANCH   5   8
ATOM      8  N   UNL     1      52.828   3.464  17.873  0.00  0.00    +0.000 N 
ATOM      9  H   UNL     1      53.130   4.407  17.654  0.00  0.00    +0.000 HD
BRANCH   8  10
ATOM     10  C   UNL     1      53.574   2.840  18.974  0.00  0.00    +0.000 C 
BRANCH  10  11
ATOM     11  C   UNL     1      54.382   1.599  18.483  0.00  0.00    +0.000 C 
ATOM     12  C   UNL     1      54.808   1.791  17.013  0.00  0.00    +0.000 C 
ATOM     13  C   UNL     1      55.532   0.563  16.461  0.00  0.00    +0.000 C 
ATOM     14  C   UNL     1      54.707  -0.696  16.696  0.00  0.00    +0.000 C 
ATOM     15  C   UNL     1      54.322  -0.821  18.164  0.00  0.00    +0.000 C 
ATOM     16  N   UNL     1      53.590   0.357  18.632  0.00  0.00    +0.000 NA
ATOM     17  H   UNL     1      53.368   0.220  19.615  0.00  0.00    +0.000 HD
ENDBRANCH  10  11
ENDBRANCH   8  10
ENDBRANCH   5   8
ENDBRANCH   1   2
BRANCH   1  20
ATOM     18  C   UNL     1      46.962   4.161  14.520  0.00  0.00    +0.000 C 
ATOM     19  O   UNL     1      47.241   3.049  14.082  0.00  0.00    +0.000 OA
ATOM     20  N   UNL     1      46.911   4.411  15.865  0.00  0.00    +0.000 N 
ATOM     21  H   UNL     1      46.693   5.334  16.206  0.00  0.00    +0.000 HD
BRANCH  18  29
ATOM     22  C   UNL     1      44.192   5.089  12.698  0.00  0.00    +0.000 A 
ATOM     23  N   UNL     1      43.254   5.693  11.946  0.00  0.00    +0.000 NA
ATOM     24  C   UNL     1      43.580   6.838  11.339  0.00  0.00    +0.000 A 
ATOM     25  N   UNL     1      44.754   7.464  11.386  0.00  0.00    +0.000 NA
ATOM     26  C   UNL     1      45.655   6.835  12.163  0.00  0.00    +0.000 A 
ATOM     27  S   UNL     1      47.210   7.489  12.338  0.00  0.00    +0.000 S 
ATOM     28  C   UNL     1      47.675   6.228  13.381  0.00  0.00    +0.000 A 
ATOM     29  C   UNL     1      46.673   5.294  13.619  0.00  0.00    +0.000 A 
ATOM     30  C   UNL     1      45.467   5.654  12.872  0.00  0.00    +0.000 A 
BRANCH  22  32
ATOM     31  C   UNL     1      43.693   2.818  12.419  0.00  0.00    +0.000 C 
ATOM     32  O   UNL     1      43.855   3.907  13.326  0.00  0.00    +0.000 OA
ENDBRANCH  22  32
ENDBRANCH  18  29
ENDBRANCH   1  20
TORSDOF 7
ENDMDL
MODEL 7
REMARK VINA RESULT:    -6.802      2.657      3.278
REMARK INTER + INTRA:         -10.882
REMARK INTER:                  -9.939
REMARK INTRA:                  -0.943
REMARK UNBOUND:                -1.297
REMARK  Name = 
REMARK  8 active torsions:
REMARK  status: ('A' for Active; 'I' for Inactive)
REMARK    1  A    between atoms: C_1  and  O_2
REMARK    2  A    between atoms: O_2  and  C_3
REMARK    3  A    between atoms: C_10  and  C_11
REMARK    4  A    between atoms: N_13  and  C_14
REMARK    5  A    between atoms: C_14  and  C_15
REMARK    6  A    between atoms: C_18  and  N_19
REMARK    7  A    between atoms: N_19  and  C_20
REMARK    8  A    between atoms: C_20  and  C_21
REMARK                            x       y       z     vdW  Elec       q    Type
REMARK                         _______ _______ _______ _____ _____    ______ ____
ROOT
ATOM      1  C   UNL     1      47.560   8.304  13.589  0.00  0.00    +0.000 C 
ENDROOT
BRANCH   1   2
ATOM      2  C   UNL     1      46.703   7.103  13.267  0.00  0.00    +0.000 A 
ATOM      3  C   UNL     1      47.185   5.805  13.466  0.00  0.00    +0.000 A 
ATOM      4  C   UNL     1      46.345   4.692  13.302  0.00  0.00    +0.000 A 
ATOM      5  C   UNL     1      45.020   4.834  12.882  0.00  0.00    +0.000 A 
ATOM      6  C   UNL     1      44.572   6.136  12.608  0.00  0.00    +0.000 A 
ATOM      7  C   UNL     1      45.397   7.256  12.792  0.00  0.00    +0.000 A 
BRANCH   5   8
ATOM      8  N   UNL     1      44.090   3.792  12.847  0.00  0.00    +0.000 N 
ATOM      9  H   UNL     1      43.392   3.896  13.576  0.00  0.00    +0.000 HD
BRANCH   8  10
ATOM     10  C   UNL     1      43.555   3.278  11.579  0.00  0.00    +0.000 C 
BRANCH  10  11
ATOM     11  C   UNL     1      44.663   3.200  10.483  0.00  0.00    +0.000 C 
ATOM     12  C   UNL     1      44.523   4.381   9.501  0.00  0.00    +0.000 C 
ATOM     13  C   UNL     1      45.537   4.302   8.360  0.00  0.00    +0.000 C 
ATOM     14  C   UNL     1      45.478   2.937   7.685  0.00  0.00    +0.000 C 
ATOM     15  C   UNL     1      45.621   1.821   8.711  0.00  0.00    +0.000 C 
ATOM     16  N   UNL     1      44.599   1.913   9.754  0.00  0.00    +0.000 NA
ATOM     17  H   UNL     1      44.750   1.152  10.411  0.00  0.00    +0.000 HD
ENDBRANCH  10  11
ENDBRANCH   8  10
ENDBRANCH   5   8
ENDBRANCH   1   2
BRANCH   1  20
ATOM     18  C   UNL     1      48.461   8.375  15.880  0.00  0.00    +0.000 C 
ATOM     19  O   UNL     1      49.475   7.769  15.546  0.00  0.00    +0.000 OA
ATOM     20  N   UNL     1      47.474   8.675  14.979  0.00  0.00    +0.000 N 
ATOM     21  H   UNL     1      46.642   9.162  15.274  0.00  0.00    +0.000 HD
BRANCH  18  29
ATOM     22  C   UNL     1      48.133   6.679  18.858  0.00  0.00    +0.000 A 
ATOM     23  N   UNL     1      48.026   6.275  20.137  0.00  0.00    +0.000 NA
ATOM     24  C   UNL     1      47.877   7.210  21.079  0.00  0.00    +0.000 A 
ATOM     25  N   UNL     1      47.814   8.528  20.896  0.00  0.00    +0.000 NA
ATOM     26  C   UNL     1      47.944   8.887  19.606  0.00  0.00    +0.000 A 
ATOM     27  S   UNL     1      47.885  10.529  19.185  0.00  0.00    +0.000 S 
ATOM     28  C   UNL     1      48.117  10.165  17.539  0.00  0.00    +0.000 A 
ATOM     29  C   UNL     1      48.244   8.806  17.275  0.00  0.00    +0.000 A 
ATOM     30  C   UNL     1      48.123   8.042  18.517  0.00  0.00    +0.000 A 
BRANCH  22  32
ATOM     31  C   UNL     1      47.190   4.805  17.816  0.00  0.00    +0.000 C 
ATOM     32  O   UNL     1      48.289   5.712  17.885  0.00  0.00    +0.000 OA
ENDBRANCH  22  32
ENDBRANCH  18  29
ENDBRANCH   1  20
TORSDOF 7
ENDMDL
MODEL 8
REMARK VINA RESULT:    -6.622      2.378      4.285
REMARK INTER + INTRA:         -10.629
REMARK INTER:                  -9.460
REMARK INTRA:                  -1.169
REMARK UNBOUND:                -1.297
REMARK  Name = 
REMARK  8 active torsions:
REMARK  status: ('A' for Active; 'I' for Inactive)
REMARK    1  A    between atoms: C_1  and  O_2
REMARK    2  A    between atoms: O_2  and  C_3
REMARK    3  A    between atoms: C_10  and  C_11
REMARK    4  A    between atoms: N_13  and  C_14
REMARK    5  A    between atoms: C_14  and  C_15
REMARK    6  A    between atoms: C_18  and  N_19
REMARK    7  A    between atoms: N_19  and  C_20
REMARK    8  A    between atoms: C_20  and  C_21
REMARK                            x       y       z     vdW  Elec       q    Type
REMARK                         _______ _______ _______ _____ _____    ______ ____
ROOT
ATOM      1  C   UNL     1      47.507   5.005  15.247  0.00  0.00    +0.000 C 
ENDROOT
BRANCH   1   2
ATOM      2  C   UNL     1      46.802   4.732  13.939  0.00  0.00    +0.000 A 
ATOM      3  C   UNL     1      46.463   3.426  13.567  0.00  0.00    +0.000 A 
ATOM      4  C   UNL     1      45.686   3.183  12.423  0.00  0.00    +0.000 A 
ATOM      5  C   UNL     1      45.272   4.224  11.587  0.00  0.00    +0.000 A 
ATOM      6  C   UNL     1      45.686   5.521  11.928  0.00  0.00    +0.000 A 
ATOM      7  C   UNL     1      46.443   5.776  13.081  0.00  0.00    +0.000 A 
BRANCH   5   8
ATOM      8  N   UNL     1      44.374   4.072  10.527  0.00  0.00    +0.000 N 
ATOM      9  H   UNL     1      44.307   4.920   9.976  0.00  0.00    +0.000 HD
BRANCH   8  10
ATOM     10  C   UNL     1      44.323   2.838   9.731  0.00  0.00    +0.000 C 
BRANCH  10  11
ATOM     11  C   UNL     1      45.609   2.666   8.864  0.00  0.00    +0.000 C 
ATOM     12  C   UNL     1      45.540   3.584   7.627  0.00  0.00    +0.000 C 
ATOM     13  C   UNL     1      46.741   3.391   6.701  0.00  0.00    +0.000 C 
ATOM     14  C   UNL     1      46.921   1.917   6.357  0.00  0.00    +0.000 C 
ATOM     15  C   UNL     1      46.979   1.072   7.623  0.00  0.00    +0.000 C 
ATOM     16  N   UNL     1      45.786   1.256   8.450  0.00  0.00    +0.000 NA
ATOM     17  H   UNL     1      45.886   0.677   9.280  0.00  0.00    +0.000 HD
ENDBRANCH  10  11
ENDBRANCH   8  10
ENDBRANCH   5   8
ENDBRANCH   1   2
BRANCH   1  20
ATOM     18  C   UNL     1      49.263   6.596  15.916  0.00  0.00    +0.000 C 
ATOM     19  O   UNL     1      49.910   5.714  16.472  0.00  0.00    +0.000 OA
ATOM     20  N   UNL     1      48.073   6.329  15.292  0.00  0.00    +0.000 N 
ATOM     21  H   UNL     1      47.549   7.068  14.852  0.00  0.00    +0.000 HD
BRANCH  18  29
ATOM     22  C   UNL     1      49.736   8.895  13.398  0.00  0.00    +0.000 A 
ATOM     23  N   UNL     1      49.955   9.977  12.629  0.00  0.00    +0.000 NA
ATOM     24  C   UNL     1      50.366  11.099  13.226  0.00  0.00    +0.000 A 
ATOM     25  N   UNL     1      50.596  11.275  14.526  0.00  0.00    +0.000 NA
ATOM     26  C   UNL     1      50.348  10.174  15.259  0.00  0.00    +0.000 A 
ATOM     27  S   UNL     1      50.590  10.214  16.937  0.00  0.00    +0.000 S 
ATOM     28  C   UNL     1      50.088   8.597  17.097  0.00  0.00    +0.000 A 
ATOM     29  C   UNL     1      49.727   7.997  15.896  0.00  0.00    +0.000 A 
ATOM     30  C   UNL     1      49.901   8.943  14.793  0.00  0.00    +0.000 A 
BRANCH  22  32
ATOM     31  C   UNL     1      49.061   7.905  11.386  0.00  0.00    +0.000 C 
ATOM     32  O   UNL     1      49.310   7.737  12.780  0.00  0.00    +0.000 OA
ENDBRANCH  22  32
ENDBRANCH  18  29
ENDBRANCH   1  20
TORSDOF 7
ENDMDL
MODEL 9
REMARK VINA RESULT:    -6.526      4.086      8.906
REMARK INTER + INTRA:         -10.493
REMARK INTER:                  -9.153
REMARK INTRA:                  -1.340
REMARK UNBOUND:                -1.297
REMARK  Name = 
REMARK  8 active torsions:
REMARK  status: ('A' for Active; 'I' for Inactive)
REMARK    1  A    between atoms: C_1  and  O_2
REMARK    2  A    between atoms: O_2  and  C_3
REMARK    3  A    between atoms: C_10  and  C_11
REMARK    4  A    between atoms: N_13  and  C_14
REMARK    5  A    between atoms: C_14  and  C_15
REMARK    6  A    between atoms: C_18  and  N_19
REMARK    7  A    between atoms: N_19  and  C_20
REMARK    8  A    between atoms: C_20  and  C_21
REMARK                            x       y       z     vdW  Elec       q    Type
REMARK                         _______ _______ _______ _____ _____    ______ ____
ROOT
ATOM      1  C   UNL     1      47.283   3.517  17.006  0.00  0.00    +0.000 C 
ENDROOT
BRANCH   1   2
ATOM      2  C   UNL     1      48.737   3.401  17.397  0.00  0.00    +0.000 A 
ATOM      3  C   UNL     1      49.496   2.288  17.016  0.00  0.00    +0.000 A 
ATOM      4  C   UNL     1      50.878   2.243  17.256  0.00  0.00    +0.000 A 
ATOM      5  C   UNL     1      51.536   3.276  17.930  0.00  0.00    +0.000 A 
ATOM      6  C   UNL     1      50.750   4.349  18.378  0.00  0.00    +0.000 A 
ATOM      7  C   UNL     1      49.372   4.414  18.122  0.00  0.00    +0.000 A 
BRANCH   5   8
ATOM      8  N   UNL     1      52.923   3.369  18.066  0.00  0.00    +0.000 N 
ATOM      9  H   UNL     1      53.242   4.324  17.947  0.00  0.00    +0.000 HD
BRANCH   8  10
ATOM     10  C   UNL     1      53.648   2.622  19.103  0.00  0.00    +0.000 C 
BRANCH  10  11
ATOM     11  C   UNL     1      54.433   1.419  18.495  0.00  0.00    +0.000 C 
ATOM     12  C   UNL     1      54.834   1.728  17.038  0.00  0.00    +0.000 C 
ATOM     13  C   UNL     1      55.535   0.544  16.372  0.00  0.00    +0.000 C 
ATOM     14  C   UNL     1      54.701  -0.723  16.518  0.00  0.00    +0.000 C 
ATOM     15  C   UNL     1      54.342  -0.966  17.978  0.00  0.00    +0.000 C 
ATOM     16  N   UNL     1      53.631   0.176  18.555  0.00  0.00    +0.000 NA
ATOM     17  H   UNL     1      53.426  -0.040  19.528  0.00  0.00    +0.000 HD
ENDBRANCH  10  11
ENDBRANCH   8  10
ENDBRANCH   5   8
ENDBRANCH   1   2
BRANCH   1  20
ATOM     18  C   UNL     1      47.146   4.160  14.633  0.00  0.00    +0.000 C 
ATOM     19  O   UNL     1      47.387   3.015  14.264  0.00  0.00    +0.000 OA
ATOM     20  N   UNL     1      47.078   4.488  15.961  0.00  0.00    +0.000 N 
ATOM     21  H   UNL     1      46.891   5.436  16.246  0.00  0.00    +0.000 HD
BRANCH  18  29
ATOM     22  C   UNL     1      48.791   7.112  13.975  0.00  0.00    +0.000 A 
ATOM     23  N   UNL     1      49.264   8.274  13.489  0.00  0.00    +0.000 NA
ATOM     24  C   UNL     1      48.610   8.841  12.472  0.00  0.00    +0.000 A 
ATOM     25  N   UNL     1      47.514   8.384  11.870  0.00  0.00    +0.000 NA
ATOM     26  C   UNL     1      47.086   7.212  12.376  0.00  0.00    +0.000 A 
ATOM     27  S   UNL     1      45.697   6.481  11.732  0.00  0.00    +0.000 S 
ATOM     28  C   UNL     1      45.833   5.168  12.806  0.00  0.00    +0.000 A 
ATOM     29  C   UNL     1      46.923   5.252  13.665  0.00  0.00    +0.000 A 
ATOM     30  C   UNL     1      47.663   6.489  13.414  0.00  0.00    +0.000 A 
BRANCH  22  32
ATOM     31  C   UNL     1      50.593   7.287  15.460  0.00  0.00    +0.000 C 
ATOM     32  O   UNL     1      49.468   6.526  15.024  0.00  0.00    +0.000 OA
ENDBRANCH  22  32
ENDBRANCH  18  29
ENDBRANCH   1  20
TORSDOF 7
ENDMDL
