MODEL 1
REMARK VINA RESULT:    -8.415      0.000      0.000
REMARK INTER + INTRA:         -13.029
REMARK INTER:                 -11.859
REMARK INTRA:                  -1.170
REMARK UNBOUND:                -1.170
REMARK  Name = 
REMARK  8 active torsions:
REMARK  status: ('A' for Active; 'I' for Inactive)
REMARK    1  A    between atoms: C_1  and  C_2
REMARK    2  A    between atoms: C_6  and  C_7
REMARK    3  A    between atoms: C_7  and  N_8
REMARK    4  A    between atoms: N_8  and  C_9
REMARK    5  A    between atoms: C_9  and  C_10
REMARK    6  A    between atoms: C_13  and  C_14
REMARK    7  A    between atoms: C_14  and  N_15
REMARK    8  A    between atoms: C_16  and  C_18
REMARK                            x       y       z     vdW  Elec       q    Type
REMARK                         _______ _______ _______ _____ _____    ______ ____
ROOT
ATOM      1  C   UNL     1      44.494   4.748  12.826  0.00  0.00    +0.000 A 
ATOM      2  C   UNL     1      44.785   6.034  12.371  0.00  0.00    +0.000 A 
ATOM      3  C   UNL     1      45.997   6.619  12.724  0.00  0.00    +0.000 A 
ATOM      4  C   UNL     1      46.900   5.911  13.521  0.00  0.00    +0.000 A 
ATOM      5  C   UNL     1      46.516   4.641  13.941  0.00  0.00    +0.000 A 
ATOM      6  N   UNL     1      45.349   4.043  13.608  0.00  0.00    +0.000 NA
ENDROOT
BRANCH   1   7
ATOM      7  C   UNL     1      43.209   4.064  12.398  0.00  0.00    +0.000 C 
BRANCH   7   8
ATOM      8  N   UNL     1      43.143   3.760  10.959  0.00  0.00    +0.000 NA
ATOM      9  H   UNL     1      42.183   3.506  10.728  0.00  0.00    +0.000 HD
BRANCH   8  10
ATOM     10  C   UNL     1      44.013   2.630  10.617  0.00  0.00    +0.000 C 
BRANCH  10  16
ATOM     11  C   UNL     1      47.193   1.325   6.911  0.00  0.00    +0.000 C 
ATOM     12  C   UNL     1      46.440   2.362   7.684  0.00  0.00    +0.000 A 
ATOM     13  C   UNL     1      46.544   3.714   7.383  0.00  0.00    +0.000 A 
ATOM     14  N   UNL     1      45.894   4.691   8.052  0.00  0.00    +0.000 NA
ATOM     15  C   UNL     1      45.103   4.304   9.075  0.00  0.00    +0.000 A 
ATOM     16  C   UNL     1      44.925   2.981   9.472  0.00  0.00    +0.000 A 
ATOM     17  C   UNL     1      45.609   2.000   8.742  0.00  0.00    +0.000 A 
ENDBRANCH  10  16
ENDBRANCH   8  10
ENDBRANCH   7   8
ENDBRANCH   1   7
BRANCH   4  18
ATOM     18  C   UNL     1      48.215   6.489  13.952  0.00  0.00    +0.000 C 
BRANCH  18  19
ATOM     19  N   UNL     1      48.322   6.532  15.387  0.00  0.00    +0.000 N 
ATOM     20  C   UNL     1      49.534   6.670  16.015  0.00  0.00    +0.000 C 
ATOM     21  O   UNL     1      50.584   6.795  15.390  0.00  0.00    +0.000 OA
ATOM     22  H   UNL     1      47.543   6.152  15.917  0.00  0.00    +0.000 HD
BRANCH  20  23
ATOM     23  C   UNL     1      49.495   6.728  17.481  0.00  0.00    +0.000 A 
ATOM     24  C   UNL     1      49.832   7.903  18.139  0.00  0.00    +0.000 A 
ATOM     25  S   UNL     1      49.681   7.801  19.836  0.00  0.00    +0.000 S 
ATOM     26  C   UNL     1      49.208   6.169  19.752  0.00  0.00    +0.000 A 
ATOM     27  N   UNL     1      48.947   5.455  20.880  0.00  0.00    +0.000 NA
ATOM     28  C   UNL     1      48.628   4.221  20.668  0.00  0.00    +0.000 A 
ATOM     29  N   UNL     1      48.534   3.639  19.430  0.00  0.00    +0.000 N 
ATOM     30  C   UNL     1      48.750   4.331  18.264  0.00  0.00    +0.000 A 
ATOM     31  O   UNL     1      48.598   3.799  17.169  0.00  0.00    +0.000 OA
ATOM     32  C   UNL     1      49.139   5.717  18.446  0.00  0.00    +0.000 A 
ATOM     33  H   UNL     1      48.261   2.672  19.332  0.00  0.00    +0.000 HD
ENDBRANCH  20  23
ENDBRANCH  18  19
ENDBRANCH   4  18
TORSDOF 7
ENDMDL
MODEL 2
REMARK VINA RESULT:    -8.369      1.522      2.006
REMARK INTER + INTRA:         -12.964
REMARK INTER:                 -11.905
REMARK INTRA:                  -1.059
REMARK UNBOUND:                -1.170
REMARK  Name = 
REMARK  8 active torsions:
REMARK  status: ('A' for Active; 'I' for Inactive)
REMARK    1  A    between atoms: C_1  and  C_2
REMARK    2  A    between atoms: C_6  and  C_7
REMARK    3  A    between atoms: C_7  and  N_8
REMARK    4  A    between atoms: N_8  and  C_9
REMARK    5  A    between atoms: C_9  and  C_10
REMARK    6  A    between atoms: C_13  and  C_14
REMARK    7  A    between atoms: C_14  and  N_15
REMARK    8  A    between atoms: C_16  and  C_18
REMARK                            x       y       z     vdW  Elec       q    Type
REMARK                         _______ _______ _______ _____ _____    ______ ____
ROOT
ATOM      1  C   UNL     1      44.484   5.474  11.430  0.00  0.00    +0.000 A 
ATOM      2  C   UNL     1      45.433   4.757  12.158  0.00  0.00    +0.000 A 
ATOM      3  C   UNL     1      46.451   5.447  12.807  0.00  0.00    +0.000 A 
ATOM      4  C   UNL     1      46.505   6.841  12.723  0.00  0.00    +0.000 A 
ATOM      5  C   UNL     1      45.526   7.468  11.960  0.00  0.00    +0.000 A 
ATOM      6  N   UNL     1      44.519   6.825  11.324  0.00  0.00    +0.000 NA
ENDROOT
BRANCH   1   7
ATOM      7  C   UNL     1      43.326   4.748  10.770  0.00  0.00    +0.000 C 
BRANCH   7   8
ATOM      8  N   UNL     1      43.736   3.652   9.879  0.00  0.00    +0.000 NA
ATOM      9  H   UNL     1      44.371   3.041  10.391  0.00  0.00    +0.000 HD
BRANCH   8  10
ATOM     10  C   UNL     1      44.444   4.165   8.700  0.00  0.00    +0.000 C 
BRANCH  10  16
ATOM     11  C   UNL     1      47.735   2.580   5.207  0.00  0.00    +0.000 C 
ATOM     12  C   UNL     1      46.943   2.353   6.456  0.00  0.00    +0.000 A 
ATOM     13  C   UNL     1      47.007   1.153   7.153  0.00  0.00    +0.000 A 
ATOM     14  N   UNL     1      46.309   0.892   8.279  0.00  0.00    +0.000 NA
ATOM     15  C   UNL     1      45.504   1.875   8.735  0.00  0.00    +0.000 A 
ATOM     16  C   UNL     1      45.354   3.115   8.120  0.00  0.00    +0.000 A 
ATOM     17  C   UNL     1      46.106   3.346   6.962  0.00  0.00    +0.000 A 
ENDBRANCH  10  16
ENDBRANCH   8  10
ENDBRANCH   7   8
ENDBRANCH   1   7
BRANCH   4  18
ATOM     18  C   UNL     1      47.586   7.644  13.383  0.00  0.00    +0.000 C 
BRANCH  18  19
ATOM     19  N   UNL     1      47.857   7.162  14.712  0.00  0.00    +0.000 N 
ATOM     20  C   UNL     1      49.137   6.927  15.145  0.00  0.00    +0.000 C 
ATOM     21  O   UNL     1      50.118   7.142  14.437  0.00  0.00    +0.000 OA
ATOM     22  H   UNL     1      47.090   6.713  15.203  0.00  0.00    +0.000 HD
BRANCH  20  23
ATOM     23  C   UNL     1      49.272   6.464  16.531  0.00  0.00    +0.000 A 
ATOM     24  C   UNL     1      49.918   7.259  17.469  0.00  0.00    +0.000 A 
ATOM     25  S   UNL     1      49.935   6.585  19.037  0.00  0.00    +0.000 S 
ATOM     26  C   UNL     1      49.123   5.187  18.507  0.00  0.00    +0.000 A 
ATOM     27  N   UNL     1      48.843   4.170  19.364  0.00  0.00    +0.000 NA
ATOM     28  C   UNL     1      48.250   3.160  18.819  0.00  0.00    +0.000 A 
ATOM     29  N   UNL     1      47.901   3.079  17.495  0.00  0.00    +0.000 N 
ATOM     30  C   UNL     1      48.129   4.097  16.602  0.00  0.00    +0.000 A 
ATOM     31  O   UNL     1      47.751   4.021  15.437  0.00  0.00    +0.000 OA
ATOM     32  C   UNL     1      48.818   5.246  17.158  0.00  0.00    +0.000 A 
ATOM     33  H   UNL     1      47.422   2.267  17.134  0.00  0.00    +0.000 HD
ENDBRANCH  20  23
ENDBRANCH  18  19
ENDBRANCH   4  18
TORSDOF 7
ENDMDL
MODEL 3
REMARK VINA RESULT:    -8.094      2.375      2.754
REMARK INTER + INTRA:         -12.577
REMARK INTER:                 -11.622
REMARK INTRA:                  -0.954
REMARK UNBOUND:                -1.170
REMARK  Name = 
REMARK  8 active torsions:
REMARK  status: ('A' for Active; 'I' for Inactive)
REMARK    1  A    between atoms: C_1  and  C_2
REMARK    2  A    between atoms: C_6  and  C_7
REMARK    3  A    between atoms: C_7  and  N_8
REMARK    4  A    between atoms: N_8  and  C_9
REMARK    5  A    between atoms: C_9  and  C_10
REMARK    6  A    between atoms: C_13  and  C_14
REMARK    7  A    between atoms: C_14  and  N_15
REMARK    8  A    between atoms: C_16  and  C_18
REMARK                            x       y       z     vdW  Elec       q    Type
REMARK                         _______ _______ _______ _____ _____    ______ ____
ROOT
ATOM      1  C   UNL     1      46.151   4.379  13.387  0.00  0.00    +0.000 A 
ATOM      2  C   UNL     1      46.697   5.533  12.828  0.00  0.00    +0.000 A 
ATOM      3  C   UNL     1      47.553   6.318  13.595  0.00  0.00    +0.000 A 
ATOM      4  C   UNL     1      47.852   5.937  14.906  0.00  0.00    +0.000 A 
ATOM      5  C   UNL     1      47.246   4.779  15.383  0.00  0.00    +0.000 A 
ATOM      6  N   UNL     1      46.417   3.991  14.659  0.00  0.00    +0.000 NA
ENDROOT
BRANCH   1   7
ATOM      7  C   UNL     1      45.270   3.472  12.548  0.00  0.00    +0.000 C 
BRANCH   7   8
ATOM      8  N   UNL     1      44.622   4.149  11.414  0.00  0.00    +0.000 NA
ATOM      9  H   UNL     1      43.811   4.657  11.763  0.00  0.00    +0.000 HD
BRANCH   8  10
ATOM     10  C   UNL     1      44.162   3.180  10.412  0.00  0.00    +0.000 C 
BRANCH  10  16
ATOM     11  C   UNL     1      47.088   0.633   7.171  0.00  0.00    +0.000 C 
ATOM     12  C   UNL     1      46.498   1.914   7.673  0.00  0.00    +0.000 A 
ATOM     13  C   UNL     1      46.791   3.135   7.077  0.00  0.00    +0.000 A 
ATOM     14  N   UNL     1      46.294   4.319   7.493  0.00  0.00    +0.000 NA
ATOM     15  C   UNL     1      45.465   4.290   8.558  0.00  0.00    +0.000 A 
ATOM     16  C   UNL     1      45.104   3.130   9.239  0.00  0.00    +0.000 A 
ATOM     17  C   UNL     1      45.634   1.923   8.766  0.00  0.00    +0.000 A 
ENDBRANCH  10  16
ENDBRANCH   8  10
ENDBRANCH   7   8
ENDBRANCH   1   7
BRANCH   4  18
ATOM     18  C   UNL     1      48.751   6.746  15.791  0.00  0.00    +0.000 C 
BRANCH  18  19
ATOM     19  N   UNL     1      49.829   5.947  16.312  0.00  0.00    +0.000 N 
ATOM     20  C   UNL     1      49.943   5.678  17.653  0.00  0.00    +0.000 C 
ATOM     21  O   UNL     1      49.120   6.077  18.472  0.00  0.00    +0.000 OA
ATOM     22  H   UNL     1      50.653   5.851  15.728  0.00  0.00    +0.000 HD
BRANCH  20  23
ATOM     23  C   UNL     1      51.072   4.827  18.043  0.00  0.00    +0.000 A 
ATOM     24  C   UNL     1      52.149   5.373  18.730  0.00  0.00    +0.000 A 
ATOM     25  S   UNL     1      53.343   4.227  19.145  0.00  0.00    +0.000 S 
ATOM     26  C   UNL     1      52.487   2.972  18.380  0.00  0.00    +0.000 A 
ATOM     27  N   UNL     1      52.983   1.707  18.341  0.00  0.00    +0.000 NA
ATOM     28  C   UNL     1      52.242   0.863  17.702  0.00  0.00    +0.000 A 
ATOM     29  N   UNL     1      51.044   1.167  17.109  0.00  0.00    +0.000 N 
ATOM     30  C   UNL     1      50.487   2.422  17.156  0.00  0.00    +0.000 A 
ATOM     31  O   UNL     1      49.384   2.650  16.668  0.00  0.00    +0.000 OA
ATOM     32  C   UNL     1      51.293   3.416  17.839  0.00  0.00    +0.000 A 
ATOM     33  H   UNL     1      50.502   0.456  16.638  0.00  0.00    +0.000 HD
ENDBRANCH  20  23
ENDBRANCH  18  19
ENDBRANCH   4  18
TORSDOF 7
ENDMDL
MODEL 4
REMARK VINA RESULT:    -7.935      1.772      2.367
REMARK INTER + INTRA:         -12.352
REMARK INTER:                 -11.585
REMARK INTRA:                  -0.766
REMARK UNBOUND:                -1.170
REMARK  Name = 
REMARK  8 active torsions:
REMARK  status: ('A' for Active; 'I' for Inactive)
REMARK    1  A    between atoms: C_1  and  C_2
REMARK    2  A    between atoms: C_6  and  C_7
REMARK    3  A    between atoms: C_7  and  N_8
REMARK    4  A    between atoms: N_8  and  C_9
REMARK    5  A    between atoms: C_9  and  C_10
REMARK    6  A    between atoms: C_13  and  C_14
REMARK    7  A    between atoms: C_14  and  N_15
REMARK    8  A    between atoms: C_16  and  C_18
REMARK                            x       y       z     vdW  Elec       q    Type
REMARK                         _______ _______ _______ _____ _____    ______ ____
ROOT
ATOM      1  C   UNL     1      44.557   4.897  11.774  0.00  0.00    +0.000 A 
ATOM      2  C   UNL     1      44.950   6.212  11.527  0.00  0.00    +0.000 A 
ATOM      3  C   UNL     1      46.082   6.711  12.163  0.00  0.00    +0.000 A 
ATOM      4  C   UNL     1      46.807   5.890  13.031  0.00  0.00    +0.000 A 
ATOM      5  C   UNL     1      46.329   4.598  13.228  0.00  0.00    +0.000 A 
ATOM      6  N   UNL     1      45.236   4.082  12.619  0.00  0.00    +0.000 NA
ENDROOT
BRANCH   1   7
ATOM      7  C   UNL     1      43.365   4.310  11.040  0.00  0.00    +0.000 C 
BRANCH   7   8
ATOM      8  N   UNL     1      43.724   3.324  10.009  0.00  0.00    +0.000 NA
ATOM      9  H   UNL     1      44.341   2.629  10.428  0.00  0.00    +0.000 HD
BRANCH   8  10
ATOM     10  C   UNL     1      44.436   3.959   8.895  0.00  0.00    +0.000 C 
BRANCH  10  16
ATOM     11  C   UNL     1      47.689   2.726   5.228  0.00  0.00    +0.000 C 
ATOM     12  C   UNL     1      46.935   2.388   6.475  0.00  0.00    +0.000 A 
ATOM     13  C   UNL     1      47.051   1.145   7.083  0.00  0.00    +0.000 A 
ATOM     14  N   UNL     1      46.389   0.785   8.204  0.00  0.00    +0.000 NA
ATOM     15  C   UNL     1      45.565   1.707   8.745  0.00  0.00    +0.000 A 
ATOM     16  C   UNL     1      45.363   2.981   8.222  0.00  0.00    +0.000 A 
ATOM     17  C   UNL     1      46.080   3.316   7.067  0.00  0.00    +0.000 A 
ENDBRANCH  10  16
ENDBRANCH   8  10
ENDBRANCH   7   8
ENDBRANCH   1   7
BRANCH   4  18
ATOM     18  C   UNL     1      48.025   6.370  13.761  0.00  0.00    +0.000 C 
BRANCH  18  19
ATOM     19  N   UNL     1      47.977   6.006  15.153  0.00  0.00    +0.000 N 
ATOM     20  C   UNL     1      48.912   6.462  16.048  0.00  0.00    +0.000 C 
ATOM     21  O   UNL     1      49.817   7.224  15.719  0.00  0.00    +0.000 OA
ATOM     22  H   UNL     1      47.440   5.179  15.393  0.00  0.00    +0.000 HD
BRANCH  20  23
ATOM     23  C   UNL     1      48.728   6.037  17.440  0.00  0.00    +0.000 A 
ATOM     24  C   UNL     1      49.008   4.728  17.810  0.00  0.00    +0.000 A 
ATOM     25  S   UNL     1      48.786   4.428  19.475  0.00  0.00    +0.000 S 
ATOM     26  C   UNL     1      48.260   6.022  19.751  0.00  0.00    +0.000 A 
ATOM     27  N   UNL     1      47.875   6.431  20.989  0.00  0.00    +0.000 NA
ATOM     28  C   UNL     1      47.473   7.657  21.045  0.00  0.00    +0.000 A 
ATOM     29  N   UNL     1      47.429   8.516  19.977  0.00  0.00    +0.000 N 
ATOM     30  C   UNL     1      47.843   8.158  18.717  0.00  0.00    +0.000 A 
ATOM     31  O   UNL     1      47.850   8.967  17.794  0.00  0.00    +0.000 OA
ATOM     32  C   UNL     1      48.281   6.780  18.593  0.00  0.00    +0.000 A 
ATOM     33  H   UNL     1      47.119   9.470  20.092  0.00  0.00    +0.000 HD
ENDBRANCH  20  23
ENDBRANCH  18  19
ENDBRANCH   4  18
TORSDOF 7
ENDMDL
MODEL 5
REMARK VINA RESULT:    -7.468      3.296      8.797
REMARK INTER + INTRA:         -11.695
REMARK INTER:                 -10.430
REMARK INTRA:                  -1.264
REMARK UNBOUND:                -1.170
REMARK  Name = 
REMARK  8 active torsions:
REMARK  status: ('A' for Active; 'I' for Inactive)
REMARK    1  A    between atoms: C_1  and  C_2
REMARK    2  A    between atoms: C_6  and  C_7
REMARK    3  A    between atoms: C_7  and  N_8
REMARK    4  A    between atoms: N_8  and  C_9
REMARK    5  A    between atoms: C_9  and  C_10
REMARK    6  A    between atoms: C_13  and  C_14
REMARK    7  A    between atoms: C_14  and  N_15
REMARK    8  A    between atoms: C_16  and  C_18
REMARK                            x       y       z     vdW  Elec       q    Type
REMARK                         _______ _______ _______ _____ _____    ______ ____
ROOT
ATOM      1  C   UNL     1      48.965   7.726  16.123  0.00  0.00    +0.000 A 
ATOM      2  C   UNL     1      48.427   8.918  15.640  0.00  0.00    +0.000 A 
ATOM      3  C   UNL     1      47.894   8.948  14.355  0.00  0.00    +0.000 A 
ATOM      4  C   UNL     1      47.904   7.789  13.575  0.00  0.00    +0.000 A 
ATOM      5  C   UNL     1      48.478   6.652  14.135  0.00  0.00    +0.000 A 
ATOM      6  N   UNL     1      48.996   6.589  15.384  0.00  0.00    +0.000 NA
ENDROOT
BRANCH   1   7
ATOM      7  C   UNL     1      49.490   7.651  17.545  0.00  0.00    +0.000 C 
BRANCH   7   8
ATOM      8  N   UNL     1      48.449   7.408  18.556  0.00  0.00    +0.000 NA
ATOM      9  H   UNL     1      48.453   8.184  19.216  0.00  0.00    +0.000 HD
BRANCH   8  10
ATOM     10  C   UNL     1      48.712   6.171  19.299  0.00  0.00    +0.000 C 
BRANCH  10  16
ATOM     11  C   UNL     1      50.321   1.969  16.996  0.00  0.00    +0.000 C 
ATOM     12  C   UNL     1      49.234   2.938  17.339  0.00  0.00    +0.000 A 
ATOM     13  C   UNL     1      47.935   2.772  16.874  0.00  0.00    +0.000 A 
ATOM     14  N   UNL     1      46.919   3.619  17.145  0.00  0.00    +0.000 NA
ATOM     15  C   UNL     1      47.210   4.688  17.917  0.00  0.00    +0.000 A 
ATOM     16  C   UNL     1      48.472   4.962  18.434  0.00  0.00    +0.000 A 
ATOM     17  C   UNL     1      49.494   4.050  18.137  0.00  0.00    +0.000 A 
ENDBRANCH  10  16
ENDBRANCH   8  10
ENDBRANCH   7   8
ENDBRANCH   1   7
BRANCH   4  18
ATOM     18  C   UNL     1      47.362   7.757  12.176  0.00  0.00    +0.000 C 
BRANCH  18  19
ATOM     19  N   UNL     1      46.693   6.512  11.903  0.00  0.00    +0.000 N 
ATOM     20  C   UNL     1      45.338   6.453  11.700  0.00  0.00    +0.000 C 
ATOM     21  O   UNL     1      44.630   7.457  11.710  0.00  0.00    +0.000 OA
ATOM     22  H   UNL     1      47.181   5.662  12.167  0.00  0.00    +0.000 HD
BRANCH  20  23
ATOM     23  C   UNL     1      44.791   5.125  11.403  0.00  0.00    +0.000 A 
ATOM     24  C   UNL     1      44.023   4.462  12.351  0.00  0.00    +0.000 A 
ATOM     25  S   UNL     1      43.429   2.954  11.814  0.00  0.00    +0.000 S 
ATOM     26  C   UNL     1      44.218   3.114  10.315  0.00  0.00    +0.000 A 
ATOM     27  N   UNL     1      44.144   2.134   9.375  0.00  0.00    +0.000 NA
ATOM     28  C   UNL     1      44.814   2.377   8.298  0.00  0.00    +0.000 A 
ATOM     29  N   UNL     1      45.544   3.515   8.070  0.00  0.00    +0.000 N 
ATOM     30  C   UNL     1      45.616   4.546   8.975  0.00  0.00    +0.000 A 
ATOM     31  O   UNL     1      46.227   5.579   8.717  0.00  0.00    +0.000 OA
ATOM     32  C   UNL     1      44.901   4.313  10.215  0.00  0.00    +0.000 A 
ATOM     33  H   UNL     1      46.032   3.652   7.197  0.00  0.00    +0.000 HD
ENDBRANCH  20  23
ENDBRANCH  18  19
ENDBRANCH   4  18
TORSDOF 7
ENDMDL
MODEL 6
REMARK VINA RESULT:    -7.440      3.467      8.207
REMARK INTER + INTRA:         -11.655
REMARK INTER:                 -10.331
REMARK INTRA:                  -1.324
REMARK UNBOUND:                -1.170
REMARK  Name = 
REMARK  8 active torsions:
REMARK  status: ('A' for Active; 'I' for Inactive)
REMARK    1  A    between atoms: C_1  and  C_2
REMARK    2  A    between atoms: C_6  and  C_7
REMARK    3  A    between atoms: C_7  and  N_8
REMARK    4  A    between atoms: N_8  and  C_9
REMARK    5  A    between atoms: C_9  and  C_10
REMARK    6  A    between atoms: C_13  and  C_14
REMARK    7  A    between atoms: C_14  and  N_15
REMARK    8  A    between atoms: C_16  and  C_18
REMARK                            x       y       z     vdW  Elec       q    Type
REMARK                         _______ _______ _______ _____ _____    ______ ____
ROOT
ATOM      1  C   UNL     1      48.864   7.653  16.250  0.00  0.00    +0.000 A 
ATOM      2  C   UNL     1      48.200   8.795  15.801  0.00  0.00    +0.000 A 
ATOM      3  C   UNL     1      48.000   8.969  14.435  0.00  0.00    +0.000 A 
ATOM      4  C   UNL     1      48.462   8.000  13.540  0.00  0.00    +0.000 A 
ATOM      5  C   UNL     1      49.128   6.904  14.079  0.00  0.00    +0.000 A 
ATOM      6  N   UNL     1      49.330   6.703  15.402  0.00  0.00    +0.000 NA
ENDROOT
BRANCH   1   7
ATOM      7  C   UNL     1      49.033   7.409  17.738  0.00  0.00    +0.000 C 
BRANCH   7   8
ATOM      8  N   UNL     1      47.787   7.047  18.431  0.00  0.00    +0.000 NA
ATOM      9  H   UNL     1      47.571   7.778  19.108  0.00  0.00    +0.000 HD
BRANCH   8  10
ATOM     10  C   UNL     1      47.933   5.779  19.155  0.00  0.00    +0.000 C 
BRANCH  10  16
ATOM     11  C   UNL     1      50.706   1.996  17.272  0.00  0.00    +0.000 C 
ATOM     12  C   UNL     1      49.450   2.809  17.300  0.00  0.00    +0.000 A 
ATOM     13  C   UNL     1      48.393   2.547  16.438  0.00  0.00    +0.000 A 
ATOM     14  N   UNL     1      47.241   3.253  16.415  0.00  0.00    +0.000 NA
ATOM     15  C   UNL     1      47.138   4.274  17.292  0.00  0.00    +0.000 A 
ATOM     16  C   UNL     1      48.132   4.633  18.198  0.00  0.00    +0.000 A 
ATOM     17  C   UNL     1      49.304   3.866  18.195  0.00  0.00    +0.000 A 
ENDBRANCH  10  16
ENDBRANCH   8  10
ENDBRANCH   7   8
ENDBRANCH   1   7
BRANCH   4  18
ATOM     18  C   UNL     1      48.295   8.135  12.056  0.00  0.00    +0.000 C 
BRANCH  18  19
ATOM     19  N   UNL     1      47.590   7.007  11.505  0.00  0.00    +0.000 N 
ATOM     20  C   UNL     1      46.223   7.000  11.387  0.00  0.00    +0.000 C 
ATOM     21  O   UNL     1      45.534   7.962  11.715  0.00  0.00    +0.000 OA
ATOM     22  H   UNL     1      48.081   6.118  11.497  0.00  0.00    +0.000 HD
BRANCH  20  23
ATOM     23  C   UNL     1      45.637   5.799  10.782  0.00  0.00    +0.000 A 
ATOM     24  C   UNL     1      45.816   5.545   9.429  0.00  0.00    +0.000 A 
ATOM     25  S   UNL     1      45.109   4.080   8.912  0.00  0.00    +0.000 S 
ATOM     26  C   UNL     1      44.498   3.760  10.467  0.00  0.00    +0.000 A 
ATOM     27  N   UNL     1      43.753   2.650  10.714  0.00  0.00    +0.000 NA
ATOM     28  C   UNL     1      43.331   2.550  11.930  0.00  0.00    +0.000 A 
ATOM     29  N   UNL     1      43.595   3.454  12.927  0.00  0.00    +0.000 N 
ATOM     30  C   UNL     1      44.374   4.569  12.732  0.00  0.00    +0.000 A 
ATOM     31  O   UNL     1      44.644   5.328  13.658  0.00  0.00    +0.000 OA
ATOM     32  C   UNL     1      44.852   4.743  11.374  0.00  0.00    +0.000 A 
ATOM     33  H   UNL     1      43.249   3.309  13.864  0.00  0.00    +0.000 HD
ENDBRANCH  20  23
ENDBRANCH  18  19
ENDBRANCH   4  18
TORSDOF 7
ENDMDL
MODEL 7
REMARK VINA RESULT:    -7.084      3.429      5.117
REMARK INTER + INTRA:         -11.153
REMARK INTER:                 -10.151
REMARK INTRA:                  -1.002
REMARK UNBOUND:                -1.170
REMARK  Name = 
REMARK  8 active torsions:
REMARK  status: ('A' for Active; 'I' for Inactive)
REMARK    1  A    between atoms: C_1  and  C_2
REMARK    2  A    between atoms: C_6  and  C_7
REMARK    3  A    between atoms: C_7  and  N_8
REMARK    4  A    between atoms: N_8  and  C_9
REMARK    5  A    between atoms: C_9  and  C_10
REMARK    6  A    between atoms: C_13  and  C_14
REMARK    7  A    between atoms: C_14  and  N_15
REMARK    8  A    between atoms: C_16  and  C_18
REMARK                            x       y       z     vdW  Elec       q    Type
REMARK                         _______ _______ _______ _____ _____    ______ ____
ROOT
ATOM      1  C   UNL     1      47.754   5.854  14.516  0.00  0.00    +0.000 A 
ATOM      2  C   UNL     1      47.062   4.644  14.510  0.00  0.00    +0.000 A 
ATOM      3  C   UNL     1      47.182   3.791  15.602  0.00  0.00    +0.000 A 
ATOM      4  C   UNL     1      47.986   4.160  16.683  0.00  0.00    +0.000 A 
ATOM      5  C   UNL     1      48.652   5.378  16.592  0.00  0.00    +0.000 A 
ATOM      6  N   UNL     1      48.549   6.233  15.547  0.00  0.00    +0.000 NA
ENDROOT
BRANCH   1   7
ATOM      7  C   UNL     1      47.586   6.831  13.366  0.00  0.00    +0.000 C 
BRANCH   7   8
ATOM      8  N   UNL     1      46.249   7.443  13.292  0.00  0.00    +0.000 NA
ATOM      9  H   UNL     1      45.654   7.003  13.993  0.00  0.00    +0.000 HD
BRANCH   8  10
ATOM     10  C   UNL     1      45.642   7.227  11.974  0.00  0.00    +0.000 C 
BRANCH  10  16
ATOM     11  C   UNL     1      44.552   2.765   9.865  0.00  0.00    +0.000 C 
ATOM     12  C   UNL     1      44.357   3.785  10.942  0.00  0.00    +0.000 A 
ATOM     13  C   UNL     1      43.451   3.589  11.977  0.00  0.00    +0.000 A 
ATOM     14  N   UNL     1      43.230   4.478  12.969  0.00  0.00    +0.000 NA
ATOM     15  C   UNL     1      43.945   5.623  12.929  0.00  0.00    +0.000 A 
ATOM     16  C   UNL     1      44.875   5.932  11.940  0.00  0.00    +0.000 A 
ATOM     17  C   UNL     1      45.080   4.976  10.938  0.00  0.00    +0.000 A 
ENDBRANCH  10  16
ENDBRANCH   8  10
ENDBRANCH   7   8
ENDBRANCH   1   7
BRANCH   4  18
ATOM     18  C   UNL     1      48.173   3.279  17.883  0.00  0.00    +0.000 C 
BRANCH  18  19
ATOM     19  N   UNL     1      49.564   2.985  18.104  0.00  0.00    +0.000 N 
ATOM     20  C   UNL     1      50.281   2.202  17.234  0.00  0.00    +0.000 C 
ATOM     21  O   UNL     1      49.785   1.737  16.211  0.00  0.00    +0.000 OA
ATOM     22  H   UNL     1      49.914   3.103  19.049  0.00  0.00    +0.000 HD
BRANCH  20  23
ATOM     23  C   UNL     1      51.697   2.006  17.565  0.00  0.00    +0.000 A 
ATOM     24  C   UNL     1      52.208   0.721  17.699  0.00  0.00    +0.000 A 
ATOM     25  S   UNL     1      53.881   0.685  18.033  0.00  0.00    +0.000 S 
ATOM     26  C   UNL     1      53.970   2.384  18.059  0.00  0.00    +0.000 A 
ATOM     27  N   UNL     1      55.141   3.022  18.326  0.00  0.00    +0.000 NA
ATOM     28  C   UNL     1      55.056   4.310  18.342  0.00  0.00    +0.000 A 
ATOM     29  N   UNL     1      53.907   5.021  18.104  0.00  0.00    +0.000 N 
ATOM     30  C   UNL     1      52.711   4.420  17.793  0.00  0.00    +0.000 A 
ATOM     31  O   UNL     1      51.715   5.084  17.525  0.00  0.00    +0.000 OA
ATOM     32  C   UNL     1      52.746   2.970  17.789  0.00  0.00    +0.000 A 
ATOM     33  H   UNL     1      53.911   6.031  18.114  0.00  0.00    +0.000 HD
ENDBRANCH  20  23
ENDBRANCH  18  19
ENDBRANCH   4  18
TORSDOF 7
ENDMDL
MODEL 8
REMARK VINA RESULT:    -6.658      3.494      4.487
REMARK INTER + INTRA:         -10.552
REMARK INTER:                  -9.569
REMARK INTRA:                  -0.983
REMARK UNBOUND:                -1.170
REMARK  Name = 
REMARK  8 active torsions:
REMARK  status: ('A' for Active; 'I' for Inactive)
REMARK    1  A    between atoms: C_1  and  C_2
REMARK    2  A    between atoms: C_6  and  C_7
REMARK    3  A    between atoms: C_7  and  N_8
REMARK    4  A    between atoms: N_8  and  C_9
REMARK    5  A    between atoms: C_9  and  C_10
REMARK    6  A    between atoms: C_13  and  C_14
REMARK    7  A    between atoms: C_14  and  N_15
REMARK    8  A    between atoms: C_16  and  C_18
REMARK                            x       y       z     vdW  Elec       q    Type
REMARK                         _______ _______ _______ _____ _____    ______ ____
ROOT
ATOM      1  C   UNL     1      47.340   6.039  14.090  0.00  0.00    +0.000 A 
ATOM      2  C   UNL     1      46.793   4.784  14.354  0.00  0.00    +0.000 A 
ATOM      3  C   UNL     1      47.208   4.089  15.486  0.00  0.00    +0.000 A 
ATOM      4  C   UNL     1      48.157   4.659  16.338  0.00  0.00    +0.000 A 
ATOM      5  C   UNL     1      48.658   5.908  15.984  0.00  0.00    +0.000 A 
ATOM      6  N   UNL     1      48.270   6.611  14.895  0.00  0.00    +0.000 NA
ENDROOT
BRANCH   1   7
ATOM      7  C   UNL     1      46.854   6.844  12.899  0.00  0.00    +0.000 C 
BRANCH   7   8
ATOM      8  N   UNL     1      45.540   6.421  12.387  0.00  0.00    +0.000 NA
ATOM      9  H   UNL     1      45.387   5.450  12.657  0.00  0.00    +0.000 HD
BRANCH   8  10
ATOM     10  C   UNL     1      45.491   6.505  10.923  0.00  0.00    +0.000 C 
BRANCH  10  16
ATOM     11  C   UNL     1      45.839   3.306   7.025  0.00  0.00    +0.000 C 
ATOM     12  C   UNL     1      45.492   3.597   8.451  0.00  0.00    +0.000 A 
ATOM     13  C   UNL     1      44.985   2.616   9.293  0.00  0.00    +0.000 A 
ATOM     14  N   UNL     1      44.649   2.825  10.584  0.00  0.00    +0.000 NA
ATOM     15  C   UNL     1      44.822   4.076  11.062  0.00  0.00    +0.000 A 
ATOM     16  C   UNL     1      45.315   5.140  10.312  0.00  0.00    +0.000 A 
ATOM     17  C   UNL     1      45.663   4.874   8.981  0.00  0.00    +0.000 A 
ENDBRANCH  10  16
ENDBRANCH   8  10
ENDBRANCH   7   8
ENDBRANCH   1   7
BRANCH   4  18
ATOM     18  C   UNL     1      48.660   3.957  17.565  0.00  0.00    +0.000 C 
BRANCH  18  19
ATOM     19  N   UNL     1      50.067   3.671  17.462  0.00  0.00    +0.000 N 
ATOM     20  C   UNL     1      50.958   4.088  18.419  0.00  0.00    +0.000 C 
ATOM     21  O   UNL     1      50.601   4.698  19.423  0.00  0.00    +0.000 OA
ATOM     22  H   UNL     1      50.422   3.435  16.541  0.00  0.00    +0.000 HD
BRANCH  20  23
ATOM     23  C   UNL     1      52.357   3.702  18.205  0.00  0.00    +0.000 A 
ATOM     24  C   UNL     1      53.366   4.647  18.340  0.00  0.00    +0.000 A 
ATOM     25  S   UNL     1      54.932   4.010  18.105  0.00  0.00    +0.000 S 
ATOM     26  C   UNL     1      54.312   2.461  17.766  0.00  0.00    +0.000 A 
ATOM     27  N   UNL     1      55.138   1.430  17.446  0.00  0.00    +0.000 NA
ATOM     28  C   UNL     1      54.529   0.321  17.185  0.00  0.00    +0.000 A 
ATOM     29  N   UNL     1      53.170   0.146  17.226  0.00  0.00    +0.000 N 
ATOM     30  C   UNL     1      52.301   1.149  17.581  0.00  0.00    +0.000 A 
ATOM     31  O   UNL     1      51.094   0.946  17.669  0.00  0.00    +0.000 OA
ATOM     32  C   UNL     1      52.932   2.425  17.859  0.00  0.00    +0.000 A 
ATOM     33  H   UNL     1      52.756  -0.754  17.028  0.00  0.00    +0.000 HD
ENDBRANCH  20  23
ENDBRANCH  18  19
ENDBRANCH   4  18
TORSDOF 7
ENDMDL
MODEL 9
REMARK VINA RESULT:    -6.549      3.361      9.191
REMARK INTER + INTRA:         -10.399
REMARK INTER:                  -9.291
REMARK INTRA:                  -1.108
REMARK UNBOUND:                -1.170
REMARK  Name = 
REMARK  8 active torsions:
REMARK  status: ('A' for Active; 'I' for Inactive)
REMARK    1  A    between atoms: C_1  and  C_2
REMARK    2  A    between atoms: C_6  and  C_7
REMARK    3  A    between atoms: C_7  and  N_8
REMARK    4  A    between atoms: N_8  and  C_9
REMARK    5  A    between atoms: C_9  and  C_10
REMARK    6  A    between atoms: C_13  and  C_14
REMARK    7  A    between atoms: C_14  and  N_15
REMARK    8  A    between atoms: C_16  and  C_18
REMARK                            x       y       z     vdW  Elec       q    Type
REMARK                         _______ _______ _______ _____ _____    ______ ____
ROOT
ATOM      1  C   UNL     1      50.583   7.666  14.482  0.00  0.00    +0.000 A 
ATOM      2  C   UNL     1      50.694   8.575  13.431  0.00  0.00    +0.000 A 
ATOM      3  C   UNL     1      49.639   8.703  12.533  0.00  0.00    +0.000 A 
ATOM      4  C   UNL     1      48.490   7.925  12.700  0.00  0.00    +0.000 A 
ATOM      5  C   UNL     1      48.478   7.033  13.768  0.00  0.00    +0.000 A 
ATOM      6  N   UNL     1      49.484   6.892  14.662  0.00  0.00    +0.000 NA
ENDROOT
BRANCH   1   7
ATOM      7  C   UNL     1      51.693   7.558  15.512  0.00  0.00    +0.000 C 
BRANCH   7   8
ATOM      8  N   UNL     1      51.822   6.222  16.114  0.00  0.00    +0.000 NA
ATOM      9  H   UNL     1      51.064   5.636  15.765  0.00  0.00    +0.000 HD
BRANCH   8  10
ATOM     10  C   UNL     1      51.716   6.288  17.576  0.00  0.00    +0.000 C 
BRANCH  10  16
ATOM     11  C   UNL     1      48.194   2.739  16.834  0.00  0.00    +0.000 C 
ATOM     12  C   UNL     1      48.925   3.689  17.730  0.00  0.00    +0.000 A 
ATOM     13  C   UNL     1      48.618   3.801  19.080  0.00  0.00    +0.000 A 
ATOM     14  N   UNL     1      49.240   4.646  19.931  0.00  0.00    +0.000 NA
ATOM     15  C   UNL     1      50.217   5.421  19.411  0.00  0.00    +0.000 A 
ATOM     16  C   UNL     1      50.607   5.400  18.076  0.00  0.00    +0.000 A 
ATOM     17  C   UNL     1      49.943   4.500  17.232  0.00  0.00    +0.000 A 
ENDBRANCH  10  16
ENDBRANCH   8  10
ENDBRANCH   7   8
ENDBRANCH   1   7
BRANCH   4  18
ATOM     18  C   UNL     1      47.325   8.000  11.759  0.00  0.00    +0.000 C 
BRANCH  18  19
ATOM     19  N   UNL     1      46.657   6.730  11.650  0.00  0.00    +0.000 N 
ATOM     20  C   UNL     1      45.291   6.640  11.562  0.00  0.00    +0.000 C 
ATOM     21  O   UNL     1      44.570   7.633  11.539  0.00  0.00    +0.000 OA
ATOM     22  H   UNL     1      47.178   5.911  11.949  0.00  0.00    +0.000 HD
BRANCH  20  23
ATOM     23  C   UNL     1      44.745   5.285  11.427  0.00  0.00    +0.000 A 
ATOM     24  C   UNL     1      44.015   4.724  12.468  0.00  0.00    +0.000 A 
ATOM     25  S   UNL     1      43.415   3.165  12.116  0.00  0.00    +0.000 S 
ATOM     26  C   UNL     1      44.150   3.166  10.581  0.00  0.00    +0.000 A 
ATOM     27  N   UNL     1      44.051   2.092   9.754  0.00  0.00    +0.000 NA
ATOM     28  C   UNL     1      44.683   2.220   8.635  0.00  0.00    +0.000 A 
ATOM     29  N   UNL     1      45.395   3.330   8.261  0.00  0.00    +0.000 N 
ATOM     30  C   UNL     1      45.491   4.453   9.048  0.00  0.00    +0.000 A 
ATOM     31  O   UNL     1      46.084   5.454   8.660  0.00  0.00    +0.000 OA
ATOM     32  C   UNL     1      44.820   4.351  10.330  0.00  0.00    +0.000 A 
ATOM     33  H   UNL     1      45.853   3.374   7.362  0.00  0.00    +0.000 HD
ENDBRANCH  20  23
ENDBRANCH  18  19
ENDBRANCH   4  18
TORSDOF 7
ENDMDL
