MODEL 1
REMARK VINA RESULT:    -7.463      0.000      0.000
REMARK INTER + INTRA:          -9.903
REMARK INTER:                  -9.426
REMARK INTRA:                  -0.477
REMARK UNBOUND:                -0.477
REMARK  Name = 
REMARK  5 active torsions:
REMARK  status: ('A' for Active; 'I' for Inactive)
REMARK    1  A    between atoms: N_1  and  C_2
REMARK    2  A    between atoms: C_2  and  C_3
REMARK    3  A    between atoms: C_6  and  O_7
REMARK    4  A    between atoms: O_7  and  C_8
REMARK    5  A    between atoms: C_8  and  C_9
REMARK                            x       y       z     vdW  Elec       q    Type
REMARK                         _______ _______ _______ _____ _____    ______ ____
ROOT
ATOM      1  C   UNL     1      46.548   2.254   7.600  0.00  0.00    +0.000 A 
ATOM      2  C   UNL     1      45.729   1.471   8.426  0.00  0.00    +0.000 A 
ATOM      3  C   UNL     1      44.759   2.069   9.237  0.00  0.00    +0.000 A 
ATOM      4  C   UNL     1      44.604   3.455   9.244  0.00  0.00    +0.000 A 
ATOM      5  C   UNL     1      45.380   4.232   8.386  0.00  0.00    +0.000 A 
ATOM      6  C   UNL     1      46.351   3.640   7.579  0.00  0.00    +0.000 A 
ENDROOT
BRANCH   1   7
ATOM      7  C   UNL     1      47.641   1.630   6.771  0.00  0.00    +0.000 C 
BRANCH   7   8
ATOM      8  N   UNL     1      48.629   2.612   6.348  0.00  0.00    +0.000 NA
ATOM      9  H   UNL     1      49.560   2.236   6.513  0.00  0.00    +0.000 HD
ATOM     10  H   UNL     1      48.542   3.438   6.938  0.00  0.00    +0.000 HD
ENDBRANCH   7   8
ENDBRANCH   1   7
BRANCH   4  11
ATOM     11  O   UNL     1      43.677   3.950  10.125  0.00  0.00    +0.000 OA
BRANCH  11  12
ATOM     12  C   UNL     1      43.824   3.472  11.467  0.00  0.00    +0.000 C 
BRANCH  12  13
ATOM     13  C   UNL     1      44.961   4.145  12.202  0.00  0.00    +0.000 A 
ATOM     14  C   UNL     1      45.088   5.527  12.240  0.00  0.00    +0.000 A 
ATOM     15  C   UNL     1      46.098   6.072  13.022  0.00  0.00    +0.000 A 
ATOM     16 CL   UNL     1      46.288   7.781  13.103  0.00  0.00    +0.000 Cl
ATOM     17  C   UNL     1      46.946   5.253  13.754  0.00  0.00    +0.000 A 
ATOM     18  C   UNL     1      46.746   3.891  13.668  0.00  0.00    +0.000 A 
ATOM     19  N   UNL     1      45.777   3.324  12.917  0.00  0.00    +0.000 NA
ENDBRANCH  12  13
ENDBRANCH  11  12
ENDBRANCH   4  11
TORSDOF 5
ENDMDL
MODEL 2
REMARK VINA RESULT:    -6.961      1.571      2.155
REMARK INTER + INTRA:          -9.269
REMARK INTER:                  -9.013
REMARK INTRA:                  -0.256
REMARK UNBOUND:                -0.477
REMARK  Name = 
REMARK  5 active torsions:
REMARK  status: ('A' for Active; 'I' for Inactive)
REMARK    1  A    between atoms: N_1  and  C_2
REMARK    2  A    between atoms: C_2  and  C_3
REMARK    3  A    between atoms: C_6  and  O_7
REMARK    4  A    between atoms: O_7  and  C_8
REMARK    5  A    between atoms: C_8  and  C_9
REMARK                            x       y       z     vdW  Elec       q    Type
REMARK                         _______ _______ _______ _____ _____    ______ ____
ROOT
ATOM      1  C   UNL     1      46.615   2.745   6.841  0.00  0.00    +0.000 A 
ATOM      2  C   UNL     1      46.045   3.962   7.244  0.00  0.00    +0.000 A 
ATOM      3  C   UNL     1      45.249   4.028   8.393  0.00  0.00    +0.000 A 
ATOM      4  C   UNL     1      45.001   2.879   9.143  0.00  0.00    +0.000 A 
ATOM      5  C   UNL     1      45.608   1.679   8.776  0.00  0.00    +0.000 A 
ATOM      6  C   UNL     1      46.399   1.609   7.629  0.00  0.00    +0.000 A 
ENDROOT
BRANCH   1   7
ATOM      7  C   UNL     1      47.420   2.646   5.571  0.00  0.00    +0.000 C 
BRANCH   7   8
ATOM      8  N   UNL     1      48.546   1.734   5.712  0.00  0.00    +0.000 NA
ATOM      9  H   UNL     1      49.378   2.270   5.948  0.00  0.00    +0.000 HD
ATOM     10  H   UNL     1      48.729   1.300   4.809  0.00  0.00    +0.000 HD
ENDBRANCH   7   8
ENDBRANCH   1   7
BRANCH   4  11
ATOM     11  O   UNL     1      44.151   3.032  10.209  0.00  0.00    +0.000 OA
BRANCH  11  12
ATOM     12  C   UNL     1      43.802   4.391  10.496  0.00  0.00    +0.000 C 
BRANCH  12  13
ATOM     13  C   UNL     1      44.691   5.009  11.551  0.00  0.00    +0.000 A 
ATOM     14  C   UNL     1      45.363   4.231  12.484  0.00  0.00    +0.000 A 
ATOM     15  C   UNL     1      46.243   4.863  13.354  0.00  0.00    +0.000 A 
ATOM     16 CL   UNL     1      47.102   3.937  14.522  0.00  0.00    +0.000 Cl
ATOM     17  C   UNL     1      46.450   6.233  13.279  0.00  0.00    +0.000 A 
ATOM     18  C   UNL     1      45.749   6.930  12.317  0.00  0.00    +0.000 A 
ATOM     19  N   UNL     1      44.884   6.351  11.456  0.00  0.00    +0.000 NA
ENDBRANCH  12  13
ENDBRANCH  11  12
ENDBRANCH   4  11
TORSDOF 5
ENDMDL
MODEL 3
REMARK VINA RESULT:    -6.831      2.847      5.944
REMARK INTER + INTRA:          -9.104
REMARK INTER:                  -8.768
REMARK INTRA:                  -0.337
REMARK UNBOUND:                -0.477
REMARK  Name = 
REMARK  5 active torsions:
REMARK  status: ('A' for Active; 'I' for Inactive)
REMARK    1  A    between atoms: N_1  and  C_2
REMARK    2  A    between atoms: C_2  and  C_3
REMARK    3  A    between atoms: C_6  and  O_7
REMARK    4  A    between atoms: O_7  and  C_8
REMARK    5  A    between atoms: C_8  and  C_9
REMARK                            x       y       z     vdW  Elec       q    Type
REMARK                         _______ _______ _______ _____ _____    ______ ____
ROOT
ATOM      1  C   UNL     1      46.927   5.744  12.984  0.00  0.00    +0.000 A 
ATOM      2  C   UNL     1      46.396   6.341  11.831  0.00  0.00    +0.000 A 
ATOM      3  C   UNL     1      45.444   5.670  11.057  0.00  0.00    +0.000 A 
ATOM      4  C   UNL     1      45.021   4.390  11.415  0.00  0.00    +0.000 A 
ATOM      5  C   UNL     1      45.507   3.815  12.589  0.00  0.00    +0.000 A 
ATOM      6  C   UNL     1      46.459   4.480  13.361  0.00  0.00    +0.000 A 
ENDROOT
BRANCH   1   7
ATOM      7  C   UNL     1      48.001   6.428  13.790  0.00  0.00    +0.000 C 
BRANCH   7   8
ATOM      8  N   UNL     1      49.248   6.539  13.046  0.00  0.00    +0.000 NA
ATOM      9  H   UNL     1      49.989   6.081  13.573  0.00  0.00    +0.000 HD
ATOM     10  H   UNL     1      49.505   7.523  12.985  0.00  0.00    +0.000 HD
ENDBRANCH   7   8
ENDBRANCH   1   7
BRANCH   4  11
ATOM     11  O   UNL     1      44.141   3.787  10.555  0.00  0.00    +0.000 OA
BRANCH  11  12
ATOM     12  C   UNL     1      44.269   4.204   9.190  0.00  0.00    +0.000 C 
BRANCH  12  13
ATOM     13  C   UNL     1      45.402   3.504   8.473  0.00  0.00    +0.000 A 
ATOM     14  C   UNL     1      45.532   2.123   8.490  0.00  0.00    +0.000 A 
ATOM     15  C   UNL     1      46.537   1.548   7.722  0.00  0.00    +0.000 A 
ATOM     16 CL   UNL     1      46.730  -0.161   7.708  0.00  0.00    +0.000 Cl
ATOM     17  C   UNL     1      47.376   2.339   6.950  0.00  0.00    +0.000 A 
ATOM     18  C   UNL     1      47.173   3.703   6.983  0.00  0.00    +0.000 A 
ATOM     19  N   UNL     1      46.209   4.297   7.719  0.00  0.00    +0.000 NA
ENDBRANCH  12  13
ENDBRANCH  11  12
ENDBRANCH   4  11
TORSDOF 5
ENDMDL
MODEL 4
REMARK VINA RESULT:    -6.263      2.870      5.994
REMARK INTER + INTRA:          -8.387
REMARK INTER:                  -7.992
REMARK INTRA:                  -0.394
REMARK UNBOUND:                -0.477
REMARK  Name = 
REMARK  5 active torsions:
REMARK  status: ('A' for Active; 'I' for Inactive)
REMARK    1  A    between atoms: N_1  and  C_2
REMARK    2  A    between atoms: C_2  and  C_3
REMARK    3  A    between atoms: C_6  and  O_7
REMARK    4  A    between atoms: O_7  and  C_8
REMARK    5  A    between atoms: C_8  and  C_9
REMARK                            x       y       z     vdW  Elec       q    Type
REMARK                         _______ _______ _______ _____ _____    ______ ____
ROOT
ATOM      1  C   UNL     1      47.014   6.021  12.998  0.00  0.00    +0.000 A 
ATOM      2  C   UNL     1      46.488   4.768  13.345  0.00  0.00    +0.000 A 
ATOM      3  C   UNL     1      45.613   4.101  12.482  0.00  0.00    +0.000 A 
ATOM      4  C   UNL     1      45.240   4.682  11.270  0.00  0.00    +0.000 A 
ATOM      5  C   UNL     1      45.801   5.903  10.898  0.00  0.00    +0.000 A 
ATOM      6  C   UNL     1      46.672   6.573  11.758  0.00  0.00    +0.000 A 
ENDROOT
BRANCH   1   7
ATOM      7  C   UNL     1      47.905   6.781  13.947  0.00  0.00    +0.000 C 
BRANCH   7   8
ATOM      8  N   UNL     1      48.149   6.036  15.175  0.00  0.00    +0.000 NA
ATOM      9  H   UNL     1      48.724   5.224  14.959  0.00  0.00    +0.000 HD
ATOM     10  H   UNL     1      47.261   5.677  15.520  0.00  0.00    +0.000 HD
ENDBRANCH   7   8
ENDBRANCH   1   7
BRANCH   4  11
ATOM     11  O   UNL     1      44.323   3.984  10.528  0.00  0.00    +0.000 OA
BRANCH  11  12
ATOM     12  C   UNL     1      44.393   4.232   9.119  0.00  0.00    +0.000 C 
BRANCH  12  13
ATOM     13  C   UNL     1      45.188   3.176   8.382  0.00  0.00    +0.000 A 
ATOM     14  C   UNL     1      45.908   3.476   7.235  0.00  0.00    +0.000 A 
ATOM     15  C   UNL     1      46.697   2.477   6.676  0.00  0.00    +0.000 A 
ATOM     16 CL   UNL     1      47.612   2.806   5.257  0.00  0.00    +0.000 Cl
ATOM     17  C   UNL     1      46.767   1.221   7.262  0.00  0.00    +0.000 A 
ATOM     18  C   UNL     1      46.027   1.010   8.406  0.00  0.00    +0.000 A 
ATOM     19  N   UNL     1      45.248   1.955   8.977  0.00  0.00    +0.000 NA
ENDBRANCH  12  13
ENDBRANCH  11  12
ENDBRANCH   4  11
TORSDOF 5
ENDMDL
MODEL 5
REMARK VINA RESULT:    -5.862      2.891      5.579
REMARK INTER + INTRA:          -7.881
REMARK INTER:                  -7.371
REMARK INTRA:                  -0.510
REMARK UNBOUND:                -0.477
REMARK  Name = 
REMARK  5 active torsions:
REMARK  status: ('A' for Active; 'I' for Inactive)
REMARK    1  A    between atoms: N_1  and  C_2
REMARK    2  A    between atoms: C_2  and  C_3
REMARK    3  A    between atoms: C_6  and  O_7
REMARK    4  A    between atoms: O_7  and  C_8
REMARK    5  A    between atoms: C_8  and  C_9
REMARK                            x       y       z     vdW  Elec       q    Type
REMARK                         _______ _______ _______ _____ _____    ______ ____
ROOT
ATOM      1  C   UNL     1      47.686   6.786  12.921  0.00  0.00    +0.000 A 
ATOM      2  C   UNL     1      47.191   5.592  13.465  0.00  0.00    +0.000 A 
ATOM      3  C   UNL     1      45.872   5.193  13.222  0.00  0.00    +0.000 A 
ATOM      4  C   UNL     1      45.028   5.987  12.447  0.00  0.00    +0.000 A 
ATOM      5  C   UNL     1      45.532   7.148  11.860  0.00  0.00    +0.000 A 
ATOM      6  C   UNL     1      46.845   7.550  12.104  0.00  0.00    +0.000 A 
ENDROOT
BRANCH   1   7
ATOM      7  C   UNL     1      49.083   7.260  13.228  0.00  0.00    +0.000 C 
BRANCH   7   8
ATOM      8  N   UNL     1      49.595   6.675  14.459  0.00  0.00    +0.000 NA
ATOM      9  H   UNL     1      49.652   5.665  14.347  0.00  0.00    +0.000 HD
ATOM     10  H   UNL     1      48.922   6.844  15.206  0.00  0.00    +0.000 HD
ENDBRANCH   7   8
ENDBRANCH   1   7
BRANCH   4  11
ATOM     11  O   UNL     1      43.735   5.548  12.327  0.00  0.00    +0.000 OA
BRANCH  11  12
ATOM     12  C   UNL     1      43.249   5.506  10.980  0.00  0.00    +0.000 C 
BRANCH  12  13
ATOM     13  C   UNL     1      43.863   4.381  10.176  0.00  0.00    +0.000 A 
ATOM     14  C   UNL     1      44.702   4.629   9.099  0.00  0.00    +0.000 A 
ATOM     15  C   UNL     1      45.309   3.545   8.478  0.00  0.00    +0.000 A 
ATOM     16 CL   UNL     1      46.363   3.807   7.143  0.00  0.00    +0.000 Cl
ATOM     17  C   UNL     1      45.089   2.253   8.934  0.00  0.00    +0.000 A 
ATOM     18  C   UNL     1      44.248   2.096  10.016  0.00  0.00    +0.000 A 
ATOM     19  N   UNL     1      43.638   3.124  10.645  0.00  0.00    +0.000 NA
ENDBRANCH  12  13
ENDBRANCH  11  12
ENDBRANCH   4  11
TORSDOF 5
ENDMDL
MODEL 6
REMARK VINA RESULT:    -5.581      4.119      7.919
REMARK INTER + INTRA:          -7.526
REMARK INTER:                  -7.284
REMARK INTRA:                  -0.242
REMARK UNBOUND:                -0.477
REMARK  Name = 
REMARK  5 active torsions:
REMARK  status: ('A' for Active; 'I' for Inactive)
REMARK    1  A    between atoms: N_1  and  C_2
REMARK    2  A    between atoms: C_2  and  C_3
REMARK    3  A    between atoms: C_6  and  O_7
REMARK    4  A    between atoms: O_7  and  C_8
REMARK    5  A    between atoms: C_8  and  C_9
REMARK                            x       y       z     vdW  Elec       q    Type
REMARK                         _______ _______ _______ _____ _____    ______ ____
ROOT
ATOM      1  C   UNL     1      48.668   4.466  18.416  0.00  0.00    +0.000 A 
ATOM      2  C   UNL     1      48.104   3.229  18.072  0.00  0.00    +0.000 A 
ATOM      3  C   UNL     1      47.506   3.045  16.821  0.00  0.00    +0.000 A 
ATOM      4  C   UNL     1      47.450   4.095  15.906  0.00  0.00    +0.000 A 
ATOM      5  C   UNL     1      48.056   5.310  16.223  0.00  0.00    +0.000 A 
ATOM      6  C   UNL     1      48.650   5.498  17.472  0.00  0.00    +0.000 A 
ENDROOT
BRANCH   1   7
ATOM      7  C   UNL     1      49.256   4.698  19.784  0.00  0.00    +0.000 C 
BRANCH   7   8
ATOM      8  N   UNL     1      48.560   3.935  20.810  0.00  0.00    +0.000 NA
ATOM      9  H   UNL     1      48.547   2.954  20.539  0.00  0.00    +0.000 HD
ATOM     10  H   UNL     1      47.589   4.239  20.841  0.00  0.00    +0.000 HD
ENDBRANCH   7   8
ENDBRANCH   1   7
BRANCH   4  11
ATOM     11  O   UNL     1      46.780   3.838  14.737  0.00  0.00    +0.000 OA
BRANCH  11  12
ATOM     12  C   UNL     1      46.420   5.008  13.993  0.00  0.00    +0.000 C 
BRANCH  12  13
ATOM     13  C   UNL     1      45.267   4.761  13.046  0.00  0.00    +0.000 A 
ATOM     14  C   UNL     1      45.363   3.851  12.002  0.00  0.00    +0.000 A 
ATOM     15  C   UNL     1      44.228   3.603  11.241  0.00  0.00    +0.000 A 
ATOM     16 CL   UNL     1      44.300   2.478   9.942  0.00  0.00    +0.000 Cl
ATOM     17  C   UNL     1      43.030   4.241  11.529  0.00  0.00    +0.000 A 
ATOM     18  C   UNL     1      43.018   5.124  12.589  0.00  0.00    +0.000 A 
ATOM     19  N   UNL     1      44.102   5.392  13.351  0.00  0.00    +0.000 NA
ENDBRANCH  12  13
ENDBRANCH  11  12
ENDBRANCH   4  11
TORSDOF 5
ENDMDL
MODEL 7
REMARK VINA RESULT:    -5.430      4.013      7.996
REMARK INTER + INTRA:          -7.335
REMARK INTER:                  -7.022
REMARK INTRA:                  -0.313
REMARK UNBOUND:                -0.477
REMARK  Name = 
REMARK  5 active torsions:
REMARK  status: ('A' for Active; 'I' for Inactive)
REMARK    1  A    between atoms: N_1  and  C_2
REMARK    2  A    between atoms: C_2  and  C_3
REMARK    3  A    between atoms: C_6  and  O_7
REMARK    4  A    between atoms: O_7  and  C_8
REMARK    5  A    between atoms: C_8  and  C_9
REMARK                            x       y       z     vdW  Elec       q    Type
REMARK                         _______ _______ _______ _____ _____    ______ ____
ROOT
ATOM      1  C   UNL     1      48.485   4.532  18.696  0.00  0.00    +0.000 A 
ATOM      2  C   UNL     1      48.461   5.498  17.680  0.00  0.00    +0.000 A 
ATOM      3  C   UNL     1      48.029   5.164  16.392  0.00  0.00    +0.000 A 
ATOM      4  C   UNL     1      47.631   3.861  16.099  0.00  0.00    +0.000 A 
ATOM      5  C   UNL     1      47.604   2.910  17.119  0.00  0.00    +0.000 A 
ATOM      6  C   UNL     1      48.037   3.239  18.403  0.00  0.00    +0.000 A 
ENDROOT
BRANCH   1   7
ATOM      7  C   UNL     1      49.009   4.861  20.070  0.00  0.00    +0.000 C 
BRANCH   7   8
ATOM      8  N   UNL     1      48.411   4.018  21.095  0.00  0.00    +0.000 NA
ATOM      9  H   UNL     1      48.946   4.114  21.956  0.00  0.00    +0.000 HD
ATOM     10  H   UNL     1      48.498   3.044  20.809  0.00  0.00    +0.000 HD
ENDBRANCH   7   8
ENDBRANCH   1   7
BRANCH   4  11
ATOM     11  O   UNL     1      47.295   3.616  14.793  0.00  0.00    +0.000 OA
BRANCH  11  12
ATOM     12  C   UNL     1      46.894   4.779  14.058  0.00  0.00    +0.000 C 
BRANCH  12  13
ATOM     13  C   UNL     1      45.629   4.553  13.259  0.00  0.00    +0.000 A 
ATOM     14  C   UNL     1      44.873   5.612  12.778  0.00  0.00    +0.000 A 
ATOM     15  C   UNL     1      43.784   5.325  11.965  0.00  0.00    +0.000 A 
ATOM     16 CL   UNL     1      42.823   6.608  11.340  0.00  0.00    +0.000 Cl
ATOM     17  C   UNL     1      43.474   4.013  11.636  0.00  0.00    +0.000 A 
ATOM     18  C   UNL     1      44.282   3.020  12.149  0.00  0.00    +0.000 A 
ATOM     19  N   UNL     1      45.348   3.261  12.944  0.00  0.00    +0.000 NA
ENDBRANCH  12  13
ENDBRANCH  11  12
ENDBRANCH   4  11
TORSDOF 5
ENDMDL
MODEL 8
REMARK VINA RESULT:    -5.326      3.166      4.338
REMARK INTER + INTRA:          -7.204
REMARK INTER:                  -6.825
REMARK INTRA:                  -0.378
REMARK UNBOUND:                -0.477
REMARK  Name = 
REMARK  5 active torsions:
REMARK  status: ('A' for Active; 'I' for Inactive)
REMARK    1  A    between atoms: N_1  and  C_2
REMARK    2  A    between atoms: C_2  and  C_3
REMARK    3  A    between atoms: C_6  and  O_7
REMARK    4  A    between atoms: O_7  and  C_8
REMARK    5  A    between atoms: C_8  and  C_9
REMARK                            x       y       z     vdW  Elec       q    Type
REMARK                         _______ _______ _______ _____ _____    ______ ____
ROOT
ATOM      1  C   UNL     1      44.892   3.700  10.127  0.00  0.00    +0.000 A 
ATOM      2  C   UNL     1      44.908   3.198  11.437  0.00  0.00    +0.000 A 
ATOM      3  C   UNL     1      45.278   4.018  12.508  0.00  0.00    +0.000 A 
ATOM      4  C   UNL     1      45.651   5.343  12.284  0.00  0.00    +0.000 A 
ATOM      5  C   UNL     1      45.586   5.861  10.991  0.00  0.00    +0.000 A 
ATOM      6  C   UNL     1      45.221   5.044   9.920  0.00  0.00    +0.000 A 
ENDROOT
BRANCH   1   7
ATOM      7  C   UNL     1      44.559   2.811   8.957  0.00  0.00    +0.000 C 
BRANCH   7   8
ATOM      8  N   UNL     1      45.100   1.469   9.125  0.00  0.00    +0.000 NA
ATOM      9  H   UNL     1      45.466   1.146   8.232  0.00  0.00    +0.000 HD
ATOM     10  H   UNL     1      44.338   0.838   9.370  0.00  0.00    +0.000 HD
ENDBRANCH   7   8
ENDBRANCH   1   7
BRANCH   4  11
ATOM     11  O   UNL     1      46.066   6.044  13.386  0.00  0.00    +0.000 OA
BRANCH  11  12
ATOM     12  C   UNL     1      47.487   6.067  13.570  0.00  0.00    +0.000 C 
BRANCH  12  13
ATOM     13  C   UNL     1      47.899   5.643  14.963  0.00  0.00    +0.000 A 
ATOM     14  C   UNL     1      47.340   4.533  15.581  0.00  0.00    +0.000 A 
ATOM     15  C   UNL     1      47.846   4.147  16.816  0.00  0.00    +0.000 A 
ATOM     16 CL   UNL     1      47.188   2.773  17.616  0.00  0.00    +0.000 Cl
ATOM     17  C   UNL     1      48.889   4.848  17.404  0.00  0.00    +0.000 A 
ATOM     18  C   UNL     1      49.393   5.933  16.718  0.00  0.00    +0.000 A 
ATOM     19  N   UNL     1      48.926   6.340  15.517  0.00  0.00    +0.000 NA
ENDBRANCH  12  13
ENDBRANCH  11  12
ENDBRANCH   4  11
TORSDOF 5
ENDMDL
MODEL 9
REMARK VINA RESULT:    -5.180      4.215      5.992
REMARK INTER + INTRA:          -7.019
REMARK INTER:                  -6.786
REMARK INTRA:                  -0.233
REMARK UNBOUND:                -0.477
REMARK  Name = 
REMARK  5 active torsions:
REMARK  status: ('A' for Active; 'I' for Inactive)
REMARK    1  A    between atoms: N_1  and  C_2
REMARK    2  A    between atoms: C_2  and  C_3
REMARK    3  A    between atoms: C_6  and  O_7
REMARK    4  A    between atoms: O_7  and  C_8
REMARK    5  A    between atoms: C_8  and  C_9
REMARK                            x       y       z     vdW  Elec       q    Type
REMARK                         _______ _______ _______ _____ _____    ______ ____
ROOT
ATOM      1  C   UNL     1      44.534   4.808  11.734  0.00  0.00    +0.000 A 
ATOM      2  C   UNL     1      45.125   5.969  12.254  0.00  0.00    +0.000 A 
ATOM      3  C   UNL     1      46.188   5.880  13.159  0.00  0.00    +0.000 A 
ATOM      4  C   UNL     1      46.663   4.635  13.567  0.00  0.00    +0.000 A 
ATOM      5  C   UNL     1      46.113   3.480  13.013  0.00  0.00    +0.000 A 
ATOM      6  C   UNL     1      45.050   3.564  12.113  0.00  0.00    +0.000 A 
ENDROOT
BRANCH   1   7
ATOM      7  C   UNL     1      43.346   4.888  10.810  0.00  0.00    +0.000 C 
BRANCH   7   8
ATOM      8  N   UNL     1      43.730   4.713   9.416  0.00  0.00    +0.000 NA
ATOM      9  H   UNL     1      43.495   3.766   9.125  0.00  0.00    +0.000 HD
ATOM     10  H   UNL     1      44.743   4.793   9.345  0.00  0.00    +0.000 HD
ENDBRANCH   7   8
ENDBRANCH   1   7
BRANCH   4  11
ATOM     11  O   UNL     1      47.658   4.652  14.510  0.00  0.00    +0.000 OA
BRANCH  11  12
ATOM     12  C   UNL     1      47.237   4.250  15.819  0.00  0.00    +0.000 C 
BRANCH  12  13
ATOM     13  C   UNL     1      48.222   4.653  16.894  0.00  0.00    +0.000 A 
ATOM     14  C   UNL     1      47.970   4.418  18.239  0.00  0.00    +0.000 A 
ATOM     15  C   UNL     1      48.967   4.721  19.156  0.00  0.00    +0.000 A 
ATOM     16 CL   UNL     1      48.700   4.439  20.833  0.00  0.00    +0.000 Cl
ATOM     17  C   UNL     1      50.186   5.233  18.733  0.00  0.00    +0.000 A 
ATOM     18  C   UNL     1      50.358   5.428  17.379  0.00  0.00    +0.000 A 
ATOM     19  N   UNL     1      49.411   5.147  16.457  0.00  0.00    +0.000 NA
ENDBRANCH  12  13
ENDBRANCH  11  12
ENDBRANCH   4  11
TORSDOF 5
ENDMDL
