MODEL 1
REMARK VINA RESULT:    -7.482      0.000      0.000
REMARK INTER + INTRA:          -9.056
REMARK INTER:                  -8.794
REMARK INTRA:                  -0.263
REMARK UNBOUND:                -0.263
REMARK  Name = 
REMARK  3 active torsions:
REMARK  status: ('A' for Active; 'I' for Inactive)
REMARK    1  A    between atoms: C_5  and  C_6
REMARK    2  A    between atoms: C_6  and  C_7
REMARK    3  A    between atoms: C_11  and  C_12
REMARK                            x       y       z     vdW  Elec       q    Type
REMARK                         _______ _______ _______ _____ _____    ______ ____
ROOT
ATOM      1  C   UNL     1      45.499   5.041  12.148  0.00  0.00    +0.000 A 
ATOM      2  C   UNL     1      45.874   4.239  13.237  0.00  0.00    +0.000 A 
ATOM      3  C   UNL     1      46.889   4.635  14.110  0.00  0.00    +0.000 A 
ATOM      4  C   UNL     1      47.527   5.861  13.933  0.00  0.00    +0.000 A 
ATOM      5  C   UNL     1      47.142   6.715  12.895  0.00  0.00    +0.000 A 
ATOM      6  C   UNL     1      46.142   6.283  12.009  0.00  0.00    +0.000 A 
ENDROOT
BRANCH   5   7
ATOM      7  C   UNL     1      47.763   8.094  12.757  0.00  0.00    +0.000 C 
ATOM      8  C   UNL     1      46.704   9.128  12.343  0.00  0.00    +0.000 C 
ATOM      9  C   UNL     1      47.339  10.490  12.108  0.00  0.00    +0.000 C 
ATOM     10  O   UNL     1      48.389  10.393  11.146  0.00  0.00    +0.000 OA
ATOM     11  C   UNL     1      49.447   9.543  11.586  0.00  0.00    +0.000 C 
ATOM     12  C   UNL     1      48.947   8.117  11.778  0.00  0.00    +0.000 C 
ENDBRANCH   5   7
BRANCH   1  13
ATOM     13  C   UNL     1      44.460   4.571  11.131  0.00  0.00    +0.000 C 
ATOM     14  C   UNL     1      43.116   4.087  11.672  0.00  0.00    +0.000 C 
ATOM     15  C   UNL     1      43.199   5.423  11.009  0.00  0.00    +0.000 C 
BRANCH  13  20
ATOM     16  F   UNL     1      46.479   2.190   6.492  0.00  0.00    +0.000 F 
ATOM     17  C   UNL     1      45.992   2.785   7.592  0.00  0.00    +0.000 A 
ATOM     18  C   UNL     1      45.572   2.013   8.654  0.00  0.00    +0.000 A 
ATOM     19  N   UNL     1      45.069   2.543   9.795  0.00  0.00    +0.000 NA
ATOM     20  C   UNL     1      44.998   3.906   9.860  0.00  0.00    +0.000 A 
ATOM     21  C   UNL     1      45.437   4.658   8.762  0.00  0.00    +0.000 A 
ATOM     22  N   UNL     1      45.941   4.132   7.612  0.00  0.00    +0.000 NA
ENDBRANCH  13  20
ENDBRANCH   1  13
TORSDOF 3
ENDMDL
MODEL 2
REMARK VINA RESULT:    -7.402      3.883      6.640
REMARK INTER + INTRA:          -8.963
REMARK INTER:                  -8.659
REMARK INTRA:                  -0.304
REMARK UNBOUND:                -0.263
REMARK  Name = 
REMARK  3 active torsions:
REMARK  status: ('A' for Active; 'I' for Inactive)
REMARK    1  A    between atoms: C_5  and  C_6
REMARK    2  A    between atoms: C_6  and  C_7
REMARK    3  A    between atoms: C_11  and  C_12
REMARK                            x       y       z     vdW  Elec       q    Type
REMARK                         _______ _______ _______ _____ _____    ______ ____
ROOT
ATOM      1  C   UNL     1      45.567   5.777  12.231  0.00  0.00    +0.000 A 
ATOM      2  C   UNL     1      44.262   6.167  12.570  0.00  0.00    +0.000 A 
ATOM      3  C   UNL     1      43.176   5.842  11.755  0.00  0.00    +0.000 A 
ATOM      4  C   UNL     1      43.369   5.089  10.598  0.00  0.00    +0.000 A 
ATOM      5  C   UNL     1      44.646   4.631  10.256  0.00  0.00    +0.000 A 
ATOM      6  C   UNL     1      45.728   4.996  11.074  0.00  0.00    +0.000 A 
ENDROOT
BRANCH   5   7
ATOM      7  C   UNL     1      44.847   3.727   9.054  0.00  0.00    +0.000 C 
ATOM      8  C   UNL     1      45.266   2.316   9.499  0.00  0.00    +0.000 C 
ATOM      9  C   UNL     1      45.564   1.435   8.297  0.00  0.00    +0.000 C 
ATOM     10  O   UNL     1      46.551   2.042   7.463  0.00  0.00    +0.000 OA
ATOM     11  C   UNL     1      46.112   3.290   6.929  0.00  0.00    +0.000 C 
ATOM     12  C   UNL     1      45.858   4.294   8.046  0.00  0.00    +0.000 C 
ENDBRANCH   5   7
BRANCH   1  13
ATOM     13  C   UNL     1      46.772   6.212  13.065  0.00  0.00    +0.000 C 
ATOM     14  C   UNL     1      47.857   7.025  12.362  0.00  0.00    +0.000 C 
ATOM     15  C   UNL     1      46.924   7.713  13.304  0.00  0.00    +0.000 C 
BRANCH  13  20
ATOM     16  F   UNL     1      48.395   2.711  17.112  0.00  0.00    +0.000 F 
ATOM     17  C   UNL     1      47.993   3.531  16.128  0.00  0.00    +0.000 A 
ATOM     18  C   UNL     1      48.056   4.896  16.311  0.00  0.00    +0.000 A 
ATOM     19  N   UNL     1      47.667   5.784  15.363  0.00  0.00    +0.000 NA
ATOM     20  C   UNL     1      47.206   5.263  14.187  0.00  0.00    +0.000 A 
ATOM     21  C   UNL     1      47.160   3.871  14.036  0.00  0.00    +0.000 A 
ATOM     22  N   UNL     1      47.546   2.974  14.984  0.00  0.00    +0.000 NA
ENDBRANCH  13  20
ENDBRANCH   1  13
TORSDOF 3
ENDMDL
MODEL 3
REMARK VINA RESULT:    -7.268      2.375      3.875
REMARK INTER + INTRA:          -8.805
REMARK INTER:                  -8.837
REMARK INTRA:                   0.032
REMARK UNBOUND:                -0.263
REMARK  Name = 
REMARK  3 active torsions:
REMARK  status: ('A' for Active; 'I' for Inactive)
REMARK    1  A    between atoms: C_5  and  C_6
REMARK    2  A    between atoms: C_6  and  C_7
REMARK    3  A    between atoms: C_11  and  C_12
REMARK                            x       y       z     vdW  Elec       q    Type
REMARK                         _______ _______ _______ _____ _____    ______ ____
ROOT
ATOM      1  C   UNL     1      45.669   5.241  11.973  0.00  0.00    +0.000 A 
ATOM      2  C   UNL     1      46.334   6.409  11.569  0.00  0.00    +0.000 A 
ATOM      3  C   UNL     1      47.235   7.057  12.415  0.00  0.00    +0.000 A 
ATOM      4  C   UNL     1      47.519   6.529  13.674  0.00  0.00    +0.000 A 
ATOM      5  C   UNL     1      46.922   5.335  14.090  0.00  0.00    +0.000 A 
ATOM      6  C   UNL     1      45.995   4.717  13.236  0.00  0.00    +0.000 A 
ENDROOT
BRANCH   5   7
ATOM      7  C   UNL     1      47.303   4.703  15.417  0.00  0.00    +0.000 C 
ATOM      8  C   UNL     1      48.384   5.535  16.125  0.00  0.00    +0.000 C 
ATOM      9  C   UNL     1      48.840   4.854  17.406  0.00  0.00    +0.000 C 
ATOM     10  O   UNL     1      49.287   3.526  17.135  0.00  0.00    +0.000 OA
ATOM     11  C   UNL     1      48.247   2.704  16.609  0.00  0.00    +0.000 C 
ATOM     12  C   UNL     1      47.760   3.243  15.270  0.00  0.00    +0.000 C 
ENDBRANCH   5   7
BRANCH   1  13
ATOM     13  C   UNL     1      44.609   4.580  11.093  0.00  0.00    +0.000 C 
ATOM     14  C   UNL     1      43.380   3.998  11.789  0.00  0.00    +0.000 C 
ATOM     15  C   UNL     1      43.252   5.278  11.030  0.00  0.00    +0.000 C 
BRANCH  13  20
ATOM     16  F   UNL     1      46.496   2.062   6.471  0.00  0.00    +0.000 F 
ATOM     17  C   UNL     1      46.040   2.690   7.566  0.00  0.00    +0.000 A 
ATOM     18  C   UNL     1      45.634   1.949   8.656  0.00  0.00    +0.000 A 
ATOM     19  N   UNL     1      45.162   2.513   9.794  0.00  0.00    +0.000 NA
ATOM     20  C   UNL     1      45.110   3.878   9.827  0.00  0.00    +0.000 A 
ATOM     21  C   UNL     1      45.535   4.598   8.702  0.00  0.00    +0.000 A 
ATOM     22  N   UNL     1      46.007   4.037   7.555  0.00  0.00    +0.000 NA
ENDBRANCH  13  20
ENDBRANCH   1  13
TORSDOF 3
ENDMDL
MODEL 4
REMARK VINA RESULT:    -7.012      1.486      2.218
REMARK INTER + INTRA:          -8.504
REMARK INTER:                  -8.392
REMARK INTRA:                  -0.112
REMARK UNBOUND:                -0.263
REMARK  Name = 
REMARK  3 active torsions:
REMARK  status: ('A' for Active; 'I' for Inactive)
REMARK    1  A    between atoms: C_5  and  C_6
REMARK    2  A    between atoms: C_6  and  C_7
REMARK    3  A    between atoms: C_11  and  C_12
REMARK                            x       y       z     vdW  Elec       q    Type
REMARK                         _______ _______ _______ _____ _____    ______ ____
ROOT
ATOM      1  C   UNL     1      45.155   5.860  11.475  0.00  0.00    +0.000 A 
ATOM      2  C   UNL     1      44.440   7.066  11.433  0.00  0.00    +0.000 A 
ATOM      3  C   UNL     1      45.007   8.259  11.885  0.00  0.00    +0.000 A 
ATOM      4  C   UNL     1      46.319   8.276  12.357  0.00  0.00    +0.000 A 
ATOM      5  C   UNL     1      47.085   7.106  12.360  0.00  0.00    +0.000 A 
ATOM      6  C   UNL     1      46.484   5.912  11.930  0.00  0.00    +0.000 A 
ENDROOT
BRANCH   5   7
ATOM      7  C   UNL     1      48.544   7.138  12.777  0.00  0.00    +0.000 C 
ATOM      8  C   UNL     1      48.670   7.261  14.304  0.00  0.00    +0.000 C 
ATOM      9  C   UNL     1      50.127   7.394  14.719  0.00  0.00    +0.000 C 
ATOM     10  O   UNL     1      50.741   8.494  14.047  0.00  0.00    +0.000 OA
ATOM     11  C   UNL     1      50.755   8.319  12.631  0.00  0.00    +0.000 C 
ATOM     12  C   UNL     1      49.336   8.256  12.082  0.00  0.00    +0.000 C 
ENDBRANCH   5   7
BRANCH   1  13
ATOM     13  C   UNL     1      44.508   4.534  11.075  0.00  0.00    +0.000 C 
ATOM     14  C   UNL     1      44.002   3.631  12.198  0.00  0.00    +0.000 C 
ATOM     15  C   UNL     1      43.017   4.392  11.371  0.00  0.00    +0.000 C 
BRANCH  13  20
ATOM     16  F   UNL     1      46.550   2.124   6.460  0.00  0.00    +0.000 F 
ATOM     17  C   UNL     1      46.057   2.726   7.554  0.00  0.00    +0.000 A 
ATOM     18  C   UNL     1      45.615   1.960   8.612  0.00  0.00    +0.000 A 
ATOM     19  N   UNL     1      45.105   2.498   9.747  0.00  0.00    +0.000 NA
ATOM     20  C   UNL     1      45.052   3.862   9.810  0.00  0.00    +0.000 A 
ATOM     21  C   UNL     1      45.513   4.607   8.717  0.00  0.00    +0.000 A 
ATOM     22  N   UNL     1      46.024   4.074   7.573  0.00  0.00    +0.000 NA
ENDBRANCH  13  20
ENDBRANCH   1  13
TORSDOF 3
ENDMDL
MODEL 5
REMARK VINA RESULT:    -6.721      3.887      6.520
REMARK INTER + INTRA:          -8.162
REMARK INTER:                  -7.834
REMARK INTRA:                  -0.328
REMARK UNBOUND:                -0.263
REMARK  Name = 
REMARK  3 active torsions:
REMARK  status: ('A' for Active; 'I' for Inactive)
REMARK    1  A    between atoms: C_5  and  C_6
REMARK    2  A    between atoms: C_6  and  C_7
REMARK    3  A    between atoms: C_11  and  C_12
REMARK                            x       y       z     vdW  Elec       q    Type
REMARK                         _______ _______ _______ _____ _____    ______ ____
ROOT
ATOM      1  C   UNL     1      44.857   6.575  11.929  0.00  0.00    +0.000 A 
ATOM      2  C   UNL     1      43.792   6.125  12.725  0.00  0.00    +0.000 A 
ATOM      3  C   UNL     1      43.019   5.026  12.345  0.00  0.00    +0.000 A 
ATOM      4  C   UNL     1      43.318   4.330  11.175  0.00  0.00    +0.000 A 
ATOM      5  C   UNL     1      44.407   4.710  10.385  0.00  0.00    +0.000 A 
ATOM      6  C   UNL     1      45.151   5.837  10.769  0.00  0.00    +0.000 A 
ENDROOT
BRANCH   5   7
ATOM      7  C   UNL     1      44.798   3.896   9.165  0.00  0.00    +0.000 C 
ATOM      8  C   UNL     1      45.194   2.466   9.570  0.00  0.00    +0.000 C 
ATOM      9  C   UNL     1      45.681   1.677   8.365  0.00  0.00    +0.000 C 
ATOM     10  O   UNL     1      46.755   2.360   7.719  0.00  0.00    +0.000 OA
ATOM     11  C   UNL     1      46.356   3.633   7.213  0.00  0.00    +0.000 C 
ATOM     12  C   UNL     1      45.921   4.552   8.348  0.00  0.00    +0.000 C 
ENDBRANCH   5   7
BRANCH   1  13
ATOM     13  C   UNL     1      45.644   7.834  12.286  0.00  0.00    +0.000 C 
ATOM     14  C   UNL     1      45.559   9.015  11.320  0.00  0.00    +0.000 C 
ATOM     15  C   UNL     1      44.821   9.077  12.617  0.00  0.00    +0.000 C 
BRANCH  13  20
ATOM     16  F   UNL     1      50.478   7.068  14.990  0.00  0.00    +0.000 F 
ATOM     17  C   UNL     1      49.320   7.226  14.331  0.00  0.00    +0.000 A 
ATOM     18  C   UNL     1      48.504   8.296  14.636  0.00  0.00    +0.000 A 
ATOM     19  N   UNL     1      47.321   8.519  14.014  0.00  0.00    +0.000 NA
ATOM     20  C   UNL     1      46.959   7.627  13.044  0.00  0.00    +0.000 A 
ATOM     21  C   UNL     1      47.815   6.555  12.759  0.00  0.00    +0.000 A 
ATOM     22  N   UNL     1      49.003   6.324  13.382  0.00  0.00    +0.000 NA
ENDBRANCH  13  20
ENDBRANCH   1  13
TORSDOF 3
ENDMDL
MODEL 6
REMARK VINA RESULT:    -6.716      1.421      2.500
REMARK INTER + INTRA:          -8.156
REMARK INTER:                  -7.955
REMARK INTRA:                  -0.202
REMARK UNBOUND:                -0.263
REMARK  Name = 
REMARK  3 active torsions:
REMARK  status: ('A' for Active; 'I' for Inactive)
REMARK    1  A    between atoms: C_5  and  C_6
REMARK    2  A    between atoms: C_6  and  C_7
REMARK    3  A    between atoms: C_11  and  C_12
REMARK                            x       y       z     vdW  Elec       q    Type
REMARK                         _______ _______ _______ _____ _____    ______ ____
ROOT
ATOM      1  C   UNL     1      45.815   6.791  12.007  0.00  0.00    +0.000 A 
ATOM      2  C   UNL     1      44.893   7.847  12.082  0.00  0.00    +0.000 A 
ATOM      3  C   UNL     1      45.318   9.168  12.234  0.00  0.00    +0.000 A 
ATOM      4  C   UNL     1      46.679   9.466  12.279  0.00  0.00    +0.000 A 
ATOM      5  C   UNL     1      47.630   8.449  12.149  0.00  0.00    +0.000 A 
ATOM      6  C   UNL     1      47.181   7.124  12.028  0.00  0.00    +0.000 A 
ENDROOT
BRANCH   5   7
ATOM      7  C   UNL     1      49.111   8.778  12.096  0.00  0.00    +0.000 C 
ATOM      8  C   UNL     1      49.343  10.134  11.409  0.00  0.00    +0.000 C 
ATOM      9  C   UNL     1      50.829  10.422  11.265  0.00  0.00    +0.000 C 
ATOM     10  O   UNL     1      51.480   9.359  10.570  0.00  0.00    +0.000 OA
ATOM     11  C   UNL     1      51.392   8.121  11.275  0.00  0.00    +0.000 C 
ATOM     12  C   UNL     1      49.939   7.681  11.410  0.00  0.00    +0.000 C 
ENDBRANCH   5   7
BRANCH   1  13
ATOM     13  C   UNL     1      45.357   5.335  11.939  0.00  0.00    +0.000 C 
ATOM     14  C   UNL     1      45.744   4.422  13.101  0.00  0.00    +0.000 C 
ATOM     15  C   UNL     1      44.333   4.898  12.984  0.00  0.00    +0.000 C 
BRANCH  13  20
ATOM     16  F   UNL     1      45.086   3.067   6.835  0.00  0.00    +0.000 F 
ATOM     17  C   UNL     1      45.159   3.635   8.049  0.00  0.00    +0.000 A 
ATOM     18  C   UNL     1      44.558   3.018   9.127  0.00  0.00    +0.000 A 
ATOM     19  N   UNL     1      44.590   3.533  10.380  0.00  0.00    +0.000 NA
ATOM     20  C   UNL     1      45.263   4.711  10.543  0.00  0.00    +0.000 A 
ATOM     21  C   UNL     1      45.864   5.306   9.426  0.00  0.00    +0.000 A 
ATOM     22  N   UNL     1      45.833   4.796   8.164  0.00  0.00    +0.000 NA
ENDBRANCH  13  20
ENDBRANCH   1  13
TORSDOF 3
ENDMDL
MODEL 7
REMARK VINA RESULT:    -6.416      4.271      7.019
REMARK INTER + INTRA:          -7.804
REMARK INTER:                  -7.415
REMARK INTRA:                  -0.389
REMARK UNBOUND:                -0.263
REMARK  Name = 
REMARK  3 active torsions:
REMARK  status: ('A' for Active; 'I' for Inactive)
REMARK    1  A    between atoms: C_5  and  C_6
REMARK    2  A    between atoms: C_6  and  C_7
REMARK    3  A    between atoms: C_11  and  C_12
REMARK                            x       y       z     vdW  Elec       q    Type
REMARK                         _______ _______ _______ _____ _____    ______ ____
ROOT
ATOM      1  C   UNL     1      47.008   7.392  12.730  0.00  0.00    +0.000 A 
ATOM      2  C   UNL     1      46.280   8.590  12.787  0.00  0.00    +0.000 A 
ATOM      3  C   UNL     1      45.087   8.745  12.079  0.00  0.00    +0.000 A 
ATOM      4  C   UNL     1      44.577   7.689  11.325  0.00  0.00    +0.000 A 
ATOM      5  C   UNL     1      45.243   6.459  11.290  0.00  0.00    +0.000 A 
ATOM      6  C   UNL     1      46.457   6.336  11.984  0.00  0.00    +0.000 A 
ENDROOT
BRANCH   5   7
ATOM      7  C   UNL     1      44.642   5.276  10.554  0.00  0.00    +0.000 C 
ATOM      8  C   UNL     1      44.448   4.084  11.506  0.00  0.00    +0.000 C 
ATOM      9  C   UNL     1      43.939   2.866  10.753  0.00  0.00    +0.000 C 
ATOM     10  O   UNL     1      44.815   2.543   9.673  0.00  0.00    +0.000 OA
ATOM     11  C   UNL     1      44.889   3.591   8.708  0.00  0.00    +0.000 C 
ATOM     12  C   UNL     1      45.469   4.855   9.330  0.00  0.00    +0.000 C 
ENDBRANCH   5   7
BRANCH   1  13
ATOM     13  C   UNL     1      48.363   7.248  13.422  0.00  0.00    +0.000 C 
ATOM     14  C   UNL     1      49.595   7.102  12.531  0.00  0.00    +0.000 C 
ATOM     15  C   UNL     1      49.347   8.400  13.229  0.00  0.00    +0.000 C 
BRANCH  13  20
ATOM     16  F   UNL     1      48.357   4.662  18.380  0.00  0.00    +0.000 F 
ATOM     17  C   UNL     1      48.377   5.301  17.199  0.00  0.00    +0.000 A 
ATOM     18  C   UNL     1      47.858   4.681  16.081  0.00  0.00    +0.000 A 
ATOM     19  N   UNL     1      47.845   5.264  14.858  0.00  0.00    +0.000 NA
ATOM     20  C   UNL     1      48.369   6.524  14.772  0.00  0.00    +0.000 A 
ATOM     21  C   UNL     1      48.883   7.122  15.930  0.00  0.00    +0.000 A 
ATOM     22  N   UNL     1      48.902   6.541  17.161  0.00  0.00    +0.000 NA
ENDBRANCH  13  20
ENDBRANCH   1  13
TORSDOF 3
ENDMDL
MODEL 8
REMARK VINA RESULT:    -6.376      5.125      7.528
REMARK INTER + INTRA:          -7.757
REMARK INTER:                  -7.345
REMARK INTRA:                  -0.411
REMARK UNBOUND:                -0.263
REMARK  Name = 
REMARK  3 active torsions:
REMARK  status: ('A' for Active; 'I' for Inactive)
REMARK    1  A    between atoms: C_5  and  C_6
REMARK    2  A    between atoms: C_6  and  C_7
REMARK    3  A    between atoms: C_11  and  C_12
REMARK                            x       y       z     vdW  Elec       q    Type
REMARK                         _______ _______ _______ _____ _____    ______ ____
ROOT
ATOM      1  C   UNL     1      47.888   5.106  15.621  0.00  0.00    +0.000 A 
ATOM      2  C   UNL     1      48.656   6.252  15.368  0.00  0.00    +0.000 A 
ATOM      3  C   UNL     1      48.566   6.928  14.150  0.00  0.00    +0.000 A 
ATOM      4  C   UNL     1      47.676   6.491  13.170  0.00  0.00    +0.000 A 
ATOM      5  C   UNL     1      46.850   5.387  13.407  0.00  0.00    +0.000 A 
ATOM      6  C   UNL     1      46.980   4.704  14.626  0.00  0.00    +0.000 A 
ENDROOT
BRANCH   5   7
ATOM      7  C   UNL     1      45.809   4.968  12.385  0.00  0.00    +0.000 C 
ATOM      8  C   UNL     1      44.583   5.894  12.446  0.00  0.00    +0.000 C 
ATOM      9  C   UNL     1      43.496   5.419  11.494  0.00  0.00    +0.000 C 
ATOM     10  O   UNL     1      43.149   4.063  11.768  0.00  0.00    +0.000 OA
ATOM     11  C   UNL     1      44.248   3.175  11.574  0.00  0.00    +0.000 C 
ATOM     12  C   UNL     1      45.380   3.501  12.540  0.00  0.00    +0.000 C 
ENDBRANCH   5   7
BRANCH   1  13
ATOM     13  C   UNL     1      48.052   4.303  16.912  0.00  0.00    +0.000 C 
ATOM     14  C   UNL     1      47.322   4.812  18.154  0.00  0.00    +0.000 C 
ATOM     15  C   UNL     1      46.800   3.608  17.440  0.00  0.00    +0.000 C 
BRANCH  13  20
ATOM     16  F   UNL     1      52.956   1.703  17.585  0.00  0.00    +0.000 F 
ATOM     17  C   UNL     1      51.766   2.303  17.424  0.00  0.00    +0.000 A 
ATOM     18  C   UNL     1      51.659   3.665  17.615  0.00  0.00    +0.000 A 
ATOM     19  N   UNL     1      50.491   4.338  17.472  0.00  0.00    +0.000 NA
ATOM     20  C   UNL     1      49.398   3.600  17.113  0.00  0.00    +0.000 A 
ATOM     21  C   UNL     1      49.546   2.220  16.924  0.00  0.00    +0.000 A 
ATOM     22  N   UNL     1      50.715   1.538  17.070  0.00  0.00    +0.000 NA
ENDBRANCH  13  20
ENDBRANCH   1  13
TORSDOF 3
ENDMDL
MODEL 9
REMARK VINA RESULT:    -6.035      5.309      7.874
REMARK INTER + INTRA:          -7.356
REMARK INTER:                  -7.308
REMARK INTRA:                  -0.048
REMARK UNBOUND:                -0.263
REMARK  Name = 
REMARK  3 active torsions:
REMARK  status: ('A' for Active; 'I' for Inactive)
REMARK    1  A    between atoms: C_5  and  C_6
REMARK    2  A    between atoms: C_6  and  C_7
REMARK    3  A    between atoms: C_11  and  C_12
REMARK                            x       y       z     vdW  Elec       q    Type
REMARK                         _______ _______ _______ _____ _____    ______ ____
ROOT
ATOM      1  C   UNL     1      47.572   5.352  14.851  0.00  0.00    +0.000 A 
ATOM      2  C   UNL     1      48.280   6.443  14.325  0.00  0.00    +0.000 A 
ATOM      3  C   UNL     1      47.971   6.967  13.068  0.00  0.00    +0.000 A 
ATOM      4  C   UNL     1      46.920   6.431  12.325  0.00  0.00    +0.000 A 
ATOM      5  C   UNL     1      46.153   5.382  12.840  0.00  0.00    +0.000 A 
ATOM      6  C   UNL     1      46.501   4.850  14.092  0.00  0.00    +0.000 A 
ENDROOT
BRANCH   5   7
ATOM      7  C   UNL     1      44.946   4.862  12.080  0.00  0.00    +0.000 C 
ATOM      8  C   UNL     1      44.625   3.416  12.492  0.00  0.00    +0.000 C 
ATOM      9  C   UNL     1      43.480   2.857  11.663  0.00  0.00    +0.000 C 
ATOM     10  O   UNL     1      43.775   2.957  10.271  0.00  0.00    +0.000 OA
ATOM     11  C   UNL     1      43.933   4.311   9.849  0.00  0.00    +0.000 C 
ATOM     12  C   UNL     1      45.116   4.960  10.556  0.00  0.00    +0.000 C 
ENDBRANCH   5   7
BRANCH   1  13
ATOM     13  C   UNL     1      47.967   4.710  16.181  0.00  0.00    +0.000 C 
ATOM     14  C   UNL     1      46.873   3.990  16.967  0.00  0.00    +0.000 C 
ATOM     15  C   UNL     1      47.902   3.186  16.242  0.00  0.00    +0.000 C 
BRANCH  13  20
ATOM     16  F   UNL     1      51.961   7.268  19.143  0.00  0.00    +0.000 F 
ATOM     17  C   UNL     1      50.987   6.676  18.434  0.00  0.00    +0.000 A 
ATOM     18  C   UNL     1      51.271   5.543  17.701  0.00  0.00    +0.000 A 
ATOM     19  N   UNL     1      50.338   4.894  16.961  0.00  0.00    +0.000 NA
ATOM     20  C   UNL     1      49.073   5.410  16.976  0.00  0.00    +0.000 A 
ATOM     21  C   UNL     1      48.822   6.560  17.736  0.00  0.00    +0.000 A 
ATOM     22  N   UNL     1      49.754   7.219  18.478  0.00  0.00    +0.000 NA
ENDBRANCH  13  20
ENDBRANCH   1  13
TORSDOF 3
ENDMDL
