MODEL 1
REMARK VINA RESULT:    -8.287      0.000      0.000
REMARK INTER + INTRA:         -12.178
REMARK INTER:                 -11.194
REMARK INTRA:                  -0.984
REMARK UNBOUND:                -0.984
REMARK  Name = 
REMARK  6 active torsions:
REMARK  status: ('A' for Active; 'I' for Inactive)
REMARK    1  A    between atoms: C_2  and  C_19
REMARK    2  A    between atoms: N_3  and  C_4
REMARK    3  A    between atoms: C_4  and  C_5
REMARK    4  A    between atoms: C_8  and  C_9
REMARK    5  A    between atoms: C_9  and  O_10
REMARK    6  A    between atoms: O_10  and  C_11
REMARK                            x       y       z     vdW  Elec       q    Type
REMARK                         _______ _______ _______ _____ _____    ______ ____
ROOT
ATOM      1  O   UNL     1      49.163   6.677  13.496  0.00  0.00    +0.000 OA
ATOM      2  C   UNL     1      48.428   6.750  14.477  0.00  0.00    +0.000 C 
ATOM      3  N   UNL     1      47.165   7.273  14.407  0.00  0.00    +0.000 N 
ATOM      4  H   UNL     1      46.683   7.534  15.261  0.00  0.00    +0.000 HD
ENDROOT
BRANCH   2   5
ATOM      5  C   UNL     1      48.840   6.223  15.785  0.00  0.00    +0.000 A 
ATOM      6  C   UNL     1      49.828   6.874  16.513  0.00  0.00    +0.000 A 
ATOM      7  S   UNL     1      50.197   6.112  17.995  0.00  0.00    +0.000 S 
ATOM      8  C   UNL     1      49.020   4.912  17.735  0.00  0.00    +0.000 A 
ATOM      9  N   UNL     1      48.793   3.939  18.662  0.00  0.00    +0.000 NA
ATOM     10  C   UNL     1      47.846   3.119  18.349  0.00  0.00    +0.000 A 
ATOM     11  N   UNL     1      47.111   3.176  17.195  0.00  0.00    +0.000 N 
ATOM     12  C   UNL     1      47.347   4.100  16.206  0.00  0.00    +0.000 A 
ATOM     13  O   UNL     1      46.744   4.053  15.140  0.00  0.00    +0.000 OA
ATOM     14  C   UNL     1      48.374   5.073  16.522  0.00  0.00    +0.000 A 
ATOM     15  H   UNL     1      46.397   2.489  16.996  0.00  0.00    +0.000 HD
ENDBRANCH   2   5
BRANCH   3  16
ATOM     16  C   UNL     1      46.634   7.873  13.204  0.00  0.00    +0.000 C 
BRANCH  16  17
ATOM     17  C   UNL     1      45.999   6.848  12.295  0.00  0.00    +0.000 A 
ATOM     18  C   UNL     1      46.506   6.634  11.017  0.00  0.00    +0.000 A 
ATOM     19  C   UNL     1      45.894   5.688  10.198  0.00  0.00    +0.000 A 
ATOM     20  C   UNL     1      44.773   4.997  10.658  0.00  0.00    +0.000 A 
ATOM     21  C   UNL     1      44.332   5.280  11.945  0.00  0.00    +0.000 A 
ATOM     22  N   UNL     1      44.912   6.184  12.766  0.00  0.00    +0.000 NA
BRANCH  20  23
ATOM     23  C   UNL     1      44.055   3.993   9.799  0.00  0.00    +0.000 C 
BRANCH  23  24
ATOM     24  O   UNL     1      44.431   4.173   8.434  0.00  0.00    +0.000 OA
BRANCH  24  25
ATOM     25  C   UNL     1      45.345   3.220   8.024  0.00  0.00    +0.000 A 
ATOM     26  C   UNL     1      46.260   3.602   7.056  0.00  0.00    +0.000 A 
ATOM     27  C   UNL     1      47.206   2.669   6.637  0.00  0.00    +0.000 A 
ATOM     28  C   UNL     1      47.203   1.395   7.201  0.00  0.00    +0.000 A 
ATOM     29  C   UNL     1      46.246   1.104   8.157  0.00  0.00    +0.000 A 
ATOM     30  N   UNL     1      45.318   1.988   8.581  0.00  0.00    +0.000 NA
ENDBRANCH  24  25
ENDBRANCH  23  24
ENDBRANCH  20  23
ENDBRANCH  16  17
ENDBRANCH   3  16
TORSDOF 6
ENDMDL
MODEL 2
REMARK VINA RESULT:    -8.011      2.105      3.574
REMARK INTER + INTRA:         -11.804
REMARK INTER:                 -10.728
REMARK INTRA:                  -1.076
REMARK UNBOUND:                -0.984
REMARK  Name = 
REMARK  6 active torsions:
REMARK  status: ('A' for Active; 'I' for Inactive)
REMARK    1  A    between atoms: C_2  and  C_19
REMARK    2  A    between atoms: N_3  and  C_4
REMARK    3  A    between atoms: C_4  and  C_5
REMARK    4  A    between atoms: C_8  and  C_9
REMARK    5  A    between atoms: C_9  and  O_10
REMARK    6  A    between atoms: O_10  and  C_11
REMARK                            x       y       z     vdW  Elec       q    Type
REMARK                         _______ _______ _______ _____ _____    ______ ____
ROOT
ATOM      1  O   UNL     1      48.853   4.813  16.664  0.00  0.00    +0.000 OA
ATOM      2  C   UNL     1      48.503   5.748  15.950  0.00  0.00    +0.000 C 
ATOM      3  N   UNL     1      47.480   5.634  15.046  0.00  0.00    +0.000 N 
ATOM      4  H   UNL     1      47.375   6.334  14.319  0.00  0.00    +0.000 HD
ENDROOT
BRANCH   2   5
ATOM      5  C   UNL     1      49.125   7.074  16.062  0.00  0.00    +0.000 A 
ATOM      6  C   UNL     1      49.228   7.687  17.304  0.00  0.00    +0.000 A 
ATOM      7  S   UNL     1      49.956   9.230  17.245  0.00  0.00    +0.000 S 
ATOM      8  C   UNL     1      50.196   9.114  15.565  0.00  0.00    +0.000 A 
ATOM      9  N   UNL     1      50.814  10.113  14.874  0.00  0.00    +0.000 NA
ATOM     10  C   UNL     1      50.962   9.873  13.614  0.00  0.00    +0.000 A 
ATOM     11  N   UNL     1      50.545   8.733  12.980  0.00  0.00    +0.000 N 
ATOM     12  C   UNL     1      49.862   7.730  13.624  0.00  0.00    +0.000 A 
ATOM     13  O   UNL     1      49.408   6.775  13.004  0.00  0.00    +0.000 OA
ATOM     14  C   UNL     1      49.703   7.928  15.052  0.00  0.00    +0.000 A 
ATOM     15  H   UNL     1      50.668   8.614  11.985  0.00  0.00    +0.000 HD
ENDBRANCH   2   5
BRANCH   3  16
ATOM     16  C   UNL     1      46.803   4.384  14.788  0.00  0.00    +0.000 C 
BRANCH  16  17
ATOM     17  C   UNL     1      46.184   4.352  13.411  0.00  0.00    +0.000 A 
ATOM     18  C   UNL     1      46.219   5.481  12.599  0.00  0.00    +0.000 A 
ATOM     19  C   UNL     1      45.633   5.424  11.338  0.00  0.00    +0.000 A 
ATOM     20  C   UNL     1      44.997   4.254  10.923  0.00  0.00    +0.000 A 
ATOM     21  C   UNL     1      45.003   3.178  11.802  0.00  0.00    +0.000 A 
ATOM     22  N   UNL     1      45.574   3.200  13.028  0.00  0.00    +0.000 NA
BRANCH  20  23
ATOM     23  C   UNL     1      44.316   4.154   9.586  0.00  0.00    +0.000 C 
BRANCH  23  24
ATOM     24  O   UNL     1      44.277   2.790   9.168  0.00  0.00    +0.000 OA
BRANCH  24  25
ATOM     25  C   UNL     1      45.331   2.481   8.328  0.00  0.00    +0.000 A 
ATOM     26  C   UNL     1      45.713   3.453   7.416  0.00  0.00    +0.000 A 
ATOM     27  C   UNL     1      46.785   3.178   6.570  0.00  0.00    +0.000 A 
ATOM     28  C   UNL     1      47.434   1.949   6.668  0.00  0.00    +0.000 A 
ATOM     29  C   UNL     1      46.976   1.040   7.605  0.00  0.00    +0.000 A 
ATOM     30  N   UNL     1      45.940   1.279   8.437  0.00  0.00    +0.000 NA
ENDBRANCH  24  25
ENDBRANCH  23  24
ENDBRANCH  20  23
ENDBRANCH  16  17
ENDBRANCH   3  16
TORSDOF 6
ENDMDL
MODEL 3
REMARK VINA RESULT:    -7.657      2.617      3.375
REMARK INTER + INTRA:         -11.326
REMARK INTER:                 -10.517
REMARK INTRA:                  -0.809
REMARK UNBOUND:                -0.984
REMARK  Name = 
REMARK  6 active torsions:
REMARK  status: ('A' for Active; 'I' for Inactive)
REMARK    1  A    between atoms: C_2  and  C_19
REMARK    2  A    between atoms: N_3  and  C_4
REMARK    3  A    between atoms: C_4  and  C_5
REMARK    4  A    between atoms: C_8  and  C_9
REMARK    5  A    between atoms: C_9  and  O_10
REMARK    6  A    between atoms: O_10  and  C_11
REMARK                            x       y       z     vdW  Elec       q    Type
REMARK                         _______ _______ _______ _____ _____    ______ ____
ROOT
ATOM      1  O   UNL     1      49.298   5.142  16.424  0.00  0.00    +0.000 OA
ATOM      2  C   UNL     1      48.619   6.039  15.931  0.00  0.00    +0.000 C 
ATOM      3  N   UNL     1      47.527   5.782  15.146  0.00  0.00    +0.000 N 
ATOM      4  H   UNL     1      47.139   6.523  14.571  0.00  0.00    +0.000 HD
ENDROOT
BRANCH   2   5
ATOM      5  C   UNL     1      48.904   7.454  16.204  0.00  0.00    +0.000 A 
ATOM      6  C   UNL     1      49.567   8.222  15.256  0.00  0.00    +0.000 A 
ATOM      7  S   UNL     1      49.833   9.835  15.749  0.00  0.00    +0.000 S 
ATOM      8  C   UNL     1      49.034   9.574  17.227  0.00  0.00    +0.000 A 
ATOM      9  N   UNL     1      48.878  10.584  18.129  0.00  0.00    +0.000 NA
ATOM     10  C   UNL     1      48.220  10.252  19.189  0.00  0.00    +0.000 A 
ATOM     11  N   UNL     1      47.709   9.005  19.434  0.00  0.00    +0.000 N 
ATOM     12  C   UNL     1      47.896   7.943  18.584  0.00  0.00    +0.000 A 
ATOM     13  O   UNL     1      47.519   6.816  18.887  0.00  0.00    +0.000 OA
ATOM     14  C   UNL     1      48.595   8.268  17.356  0.00  0.00    +0.000 A 
ATOM     15  H   UNL     1      47.222   8.801  20.296  0.00  0.00    +0.000 HD
ENDBRANCH   2   5
BRANCH   3  16
ATOM     16  C   UNL     1      47.148   4.445  14.750  0.00  0.00    +0.000 C 
BRANCH  16  17
ATOM     17  C   UNL     1      46.403   4.435  13.437  0.00  0.00    +0.000 A 
ATOM     18  C   UNL     1      46.381   5.572  12.635  0.00  0.00    +0.000 A 
ATOM     19  C   UNL     1      45.679   5.536  11.433  0.00  0.00    +0.000 A 
ATOM     20  C   UNL     1      44.989   4.379  11.070  0.00  0.00    +0.000 A 
ATOM     21  C   UNL     1      45.061   3.294  11.935  0.00  0.00    +0.000 A 
ATOM     22  N   UNL     1      45.743   3.296  13.103  0.00  0.00    +0.000 NA
BRANCH  20  23
ATOM     23  C   UNL     1      44.186   4.303   9.801  0.00  0.00    +0.000 C 
BRANCH  23  24
ATOM     24  O   UNL     1      44.252   2.979   9.270  0.00  0.00    +0.000 OA
BRANCH  24  25
ATOM     25  C   UNL     1      45.322   2.825   8.408  0.00  0.00    +0.000 A 
ATOM     26  C   UNL     1      45.930   1.579   8.376  0.00  0.00    +0.000 A 
ATOM     27  C   UNL     1      46.998   1.389   7.503  0.00  0.00    +0.000 A 
ATOM     28  C   UNL     1      47.416   2.445   6.696  0.00  0.00    +0.000 A 
ATOM     29  C   UNL     1      46.751   3.653   6.803  0.00  0.00    +0.000 A 
ATOM     30  N   UNL     1      45.714   3.867   7.640  0.00  0.00    +0.000 NA
ENDBRANCH  24  25
ENDBRANCH  23  24
ENDBRANCH  20  23
ENDBRANCH  16  17
ENDBRANCH   3  16
TORSDOF 6
ENDMDL
MODEL 4
REMARK VINA RESULT:    -7.609      2.240      3.573
REMARK INTER + INTRA:         -11.262
REMARK INTER:                 -10.397
REMARK INTRA:                  -0.865
REMARK UNBOUND:                -0.984
REMARK  Name = 
REMARK  6 active torsions:
REMARK  status: ('A' for Active; 'I' for Inactive)
REMARK    1  A    between atoms: C_2  and  C_19
REMARK    2  A    between atoms: N_3  and  C_4
REMARK    3  A    between atoms: C_4  and  C_5
REMARK    4  A    between atoms: C_8  and  C_9
REMARK    5  A    between atoms: C_9  and  O_10
REMARK    6  A    between atoms: O_10  and  C_11
REMARK                            x       y       z     vdW  Elec       q    Type
REMARK                         _______ _______ _______ _____ _____    ______ ____
ROOT
ATOM      1  O   UNL     1      49.610   4.741  16.680  0.00  0.00    +0.000 OA
ATOM      2  C   UNL     1      48.663   5.520  16.618  0.00  0.00    +0.000 C 
ATOM      3  N   UNL     1      47.514   5.221  15.936  0.00  0.00    +0.000 N 
ATOM      4  H   UNL     1      46.860   5.962  15.707  0.00  0.00    +0.000 HD
ENDROOT
BRANCH   2   5
ATOM      5  C   UNL     1      48.680   6.807  17.326  0.00  0.00    +0.000 A 
ATOM      6  C   UNL     1      48.736   6.832  18.714  0.00  0.00    +0.000 A 
ATOM      7  S   UNL     1      48.726   8.409  19.369  0.00  0.00    +0.000 S 
ATOM      8  C   UNL     1      48.690   9.112  17.820  0.00  0.00    +0.000 A 
ATOM      9  N   UNL     1      48.699  10.466  17.663  0.00  0.00    +0.000 NA
ATOM     10  C   UNL     1      48.707  10.857  16.433  0.00  0.00    +0.000 A 
ATOM     11  N   UNL     1      48.701  10.023  15.346  0.00  0.00    +0.000 N 
ATOM     12  C   UNL     1      48.629   8.656  15.457  0.00  0.00    +0.000 A 
ATOM     13  O   UNL     1      48.514   7.947  14.464  0.00  0.00    +0.000 OA
ATOM     14  C   UNL     1      48.657   8.158  16.818  0.00  0.00    +0.000 A 
ATOM     15  H   UNL     1      48.684  10.392  14.406  0.00  0.00    +0.000 HD
ENDBRANCH   2   5
BRANCH   3  16
ATOM     16  C   UNL     1      47.363   4.016  15.152  0.00  0.00    +0.000 C 
BRANCH  16  17
ATOM     17  C   UNL     1      46.632   4.274  13.856  0.00  0.00    +0.000 A 
ATOM     18  C   UNL     1      46.582   5.558  13.323  0.00  0.00    +0.000 A 
ATOM     19  C   UNL     1      45.894   5.766  12.131  0.00  0.00    +0.000 A 
ATOM     20  C   UNL     1      45.245   4.699  11.511  0.00  0.00    +0.000 A 
ATOM     21  C   UNL     1      45.342   3.452  12.118  0.00  0.00    +0.000 A 
ATOM     22  N   UNL     1      46.012   3.218  13.269  0.00  0.00    +0.000 NA
BRANCH  20  23
ATOM     23  C   UNL     1      44.458   4.880  10.242  0.00  0.00    +0.000 C 
BRANCH  23  24
ATOM     24  O   UNL     1      44.188   3.605   9.659  0.00  0.00    +0.000 OA
BRANCH  24  25
ATOM     25  C   UNL     1      45.168   3.237   8.755  0.00  0.00    +0.000 A 
ATOM     26  C   UNL     1      45.551   1.905   8.751  0.00  0.00    +0.000 A 
ATOM     27  C   UNL     1      46.522   1.501   7.838  0.00  0.00    +0.000 A 
ATOM     28  C   UNL     1      47.070   2.439   6.965  0.00  0.00    +0.000 A 
ATOM     29  C   UNL     1      46.628   3.747   7.049  0.00  0.00    +0.000 A 
ATOM     30  N   UNL     1      45.689   4.167   7.923  0.00  0.00    +0.000 NA
ENDBRANCH  24  25
ENDBRANCH  23  24
ENDBRANCH  20  23
ENDBRANCH  16  17
ENDBRANCH   3  16
TORSDOF 6
ENDMDL
MODEL 5
REMARK VINA RESULT:    -7.388      1.921      2.637
REMARK INTER + INTRA:         -10.962
REMARK INTER:                 -10.234
REMARK INTRA:                  -0.728
REMARK UNBOUND:                -0.984
REMARK  Name = 
REMARK  6 active torsions:
REMARK  status: ('A' for Active; 'I' for Inactive)
REMARK    1  A    between atoms: C_2  and  C_19
REMARK    2  A    between atoms: N_3  and  C_4
REMARK    3  A    between atoms: C_4  and  C_5
REMARK    4  A    between atoms: C_8  and  C_9
REMARK    5  A    between atoms: C_9  and  O_10
REMARK    6  A    between atoms: O_10  and  C_11
REMARK                            x       y       z     vdW  Elec       q    Type
REMARK                         _______ _______ _______ _____ _____    ______ ____
ROOT
ATOM      1  O   UNL     1      48.356   7.812  16.053  0.00  0.00    +0.000 OA
ATOM      2  C   UNL     1      48.396   6.611  15.801  0.00  0.00    +0.000 C 
ATOM      3  N   UNL     1      47.994   6.103  14.594  0.00  0.00    +0.000 N 
ATOM      4  H   UNL     1      47.818   5.108  14.503  0.00  0.00    +0.000 HD
ENDROOT
BRANCH   2   5
ATOM      5  C   UNL     1      48.939   5.643  16.763  0.00  0.00    +0.000 A 
ATOM      6  C   UNL     1      48.082   4.780  17.435  0.00  0.00    +0.000 A 
ATOM      7  S   UNL     1      48.880   3.741  18.529  0.00  0.00    +0.000 S 
ATOM      8  C   UNL     1      50.401   4.378  18.113  0.00  0.00    +0.000 A 
ATOM      9  N   UNL     1      51.543   3.895  18.678  0.00  0.00    +0.000 NA
ATOM     10  C   UNL     1      52.625   4.446  18.239  0.00  0.00    +0.000 A 
ATOM     11  N   UNL     1      52.672   5.438  17.296  0.00  0.00    +0.000 N 
ATOM     12  C   UNL     1      51.545   5.997  16.746  0.00  0.00    +0.000 A 
ATOM     13  O   UNL     1      51.621   6.956  15.987  0.00  0.00    +0.000 OA
ATOM     14  C   UNL     1      50.300   5.389  17.173  0.00  0.00    +0.000 A 
ATOM     15  H   UNL     1      53.551   5.846  17.011  0.00  0.00    +0.000 HD
ENDBRANCH   2   5
BRANCH   3  16
ATOM     16  C   UNL     1      47.396   6.921  13.564  0.00  0.00    +0.000 C 
BRANCH  16  17
ATOM     17  C   UNL     1      46.560   6.103  12.608  0.00  0.00    +0.000 A 
ATOM     18  C   UNL     1      46.099   4.844  12.980  0.00  0.00    +0.000 A 
ATOM     19  C   UNL     1      45.338   4.110  12.075  0.00  0.00    +0.000 A 
ATOM     20  C   UNL     1      45.078   4.631  10.808  0.00  0.00    +0.000 A 
ATOM     21  C   UNL     1      45.584   5.893  10.520  0.00  0.00    +0.000 A 
ATOM     22  N   UNL     1      46.316   6.634  11.382  0.00  0.00    +0.000 NA
BRANCH  20  23
ATOM     23  C   UNL     1      44.293   3.861   9.781  0.00  0.00    +0.000 C 
BRANCH  23  24
ATOM     24  O   UNL     1      44.800   2.530   9.689  0.00  0.00    +0.000 OA
BRANCH  24  25
ATOM     25  C   UNL     1      45.582   2.356   8.562  0.00  0.00    +0.000 A 
ATOM     26  C   UNL     1      45.666   3.426   7.685  0.00  0.00    +0.000 A 
ATOM     27  C   UNL     1      46.462   3.287   6.551  0.00  0.00    +0.000 A 
ATOM     28  C   UNL     1      47.144   2.092   6.338  0.00  0.00    +0.000 A 
ATOM     29  C   UNL     1      46.993   1.078   7.267  0.00  0.00    +0.000 A 
ATOM     30  N   UNL     1      46.228   1.183   8.374  0.00  0.00    +0.000 NA
ENDBRANCH  24  25
ENDBRANCH  23  24
ENDBRANCH  20  23
ENDBRANCH  16  17
ENDBRANCH   3  16
TORSDOF 6
ENDMDL
MODEL 6
REMARK VINA RESULT:    -7.344      2.525      4.168
REMARK INTER + INTRA:         -10.904
REMARK INTER:                  -9.885
REMARK INTRA:                  -1.019
REMARK UNBOUND:                -0.984
REMARK  Name = 
REMARK  6 active torsions:
REMARK  status: ('A' for Active; 'I' for Inactive)
REMARK    1  A    between atoms: C_2  and  C_19
REMARK    2  A    between atoms: N_3  and  C_4
REMARK    3  A    between atoms: C_4  and  C_5
REMARK    4  A    between atoms: C_8  and  C_9
REMARK    5  A    between atoms: C_9  and  O_10
REMARK    6  A    between atoms: O_10  and  C_11
REMARK                            x       y       z     vdW  Elec       q    Type
REMARK                         _______ _______ _______ _____ _____    ______ ____
ROOT
ATOM      1  O   UNL     1      49.617   5.865  16.061  0.00  0.00    +0.000 OA
ATOM      2  C   UNL     1      49.102   6.667  15.288  0.00  0.00    +0.000 C 
ATOM      3  N   UNL     1      47.902   6.424  14.675  0.00  0.00    +0.000 N 
ATOM      4  H   UNL     1      47.625   6.986  13.876  0.00  0.00    +0.000 HD
ENDROOT
BRANCH   2   5
ATOM      5  C   UNL     1      49.717   7.973  15.016  0.00  0.00    +0.000 A 
ATOM      6  C   UNL     1      50.161   8.762  16.069  0.00  0.00    +0.000 A 
ATOM      7  S   UNL     1      50.827  10.253  15.572  0.00  0.00    +0.000 S 
ATOM      8  C   UNL     1      50.584   9.879  13.931  0.00  0.00    +0.000 A 
ATOM      9  N   UNL     1      50.971  10.740  12.949  0.00  0.00    +0.000 NA
ATOM     10  C   UNL     1      50.760  10.309  11.750  0.00  0.00    +0.000 A 
ATOM     11  N   UNL     1      50.192   9.101  11.442  0.00  0.00    +0.000 N 
ATOM     12  C   UNL     1      49.729   8.230  12.398  0.00  0.00    +0.000 A 
ATOM     13  O   UNL     1      49.128   7.209  12.085  0.00  0.00    +0.000 OA
ATOM     14  C   UNL     1      49.978   8.645  13.765  0.00  0.00    +0.000 A 
ATOM     15  H   UNL     1      50.030   8.830  10.483  0.00  0.00    +0.000 HD
ENDBRANCH   2   5
BRANCH   3  16
ATOM     16  C   UNL     1      47.199   5.169  14.806  0.00  0.00    +0.000 C 
BRANCH  16  17
ATOM     17  C   UNL     1      46.398   4.839  13.569  0.00  0.00    +0.000 A 
ATOM     18  C   UNL     1      46.164   3.513  13.218  0.00  0.00    +0.000 A 
ATOM     19  C   UNL     1      45.429   3.240  12.067  0.00  0.00    +0.000 A 
ATOM     20  C   UNL     1      44.967   4.291  11.276  0.00  0.00    +0.000 A 
ATOM     21  C   UNL     1      45.253   5.584  11.700  0.00  0.00    +0.000 A 
ATOM     22  N   UNL     1      45.955   5.879  12.817  0.00  0.00    +0.000 NA
BRANCH  20  23
ATOM     23  C   UNL     1      44.201   4.048  10.005  0.00  0.00    +0.000 C 
BRANCH  23  24
ATOM     24  O   UNL     1      44.327   2.678   9.623  0.00  0.00    +0.000 OA
BRANCH  24  25
ATOM     25  C   UNL     1      45.273   2.508   8.629  0.00  0.00    +0.000 A 
ATOM     26  C   UNL     1      45.508   3.589   7.793  0.00  0.00    +0.000 A 
ATOM     27  C   UNL     1      46.470   3.453   6.795  0.00  0.00    +0.000 A 
ATOM     28  C   UNL     1      47.161   2.250   6.672  0.00  0.00    +0.000 A 
ATOM     29  C   UNL     1      46.853   1.226   7.549  0.00  0.00    +0.000 A 
ATOM     30  N   UNL     1      45.926   1.328   8.525  0.00  0.00    +0.000 NA
ENDBRANCH  24  25
ENDBRANCH  23  24
ENDBRANCH  20  23
ENDBRANCH  16  17
ENDBRANCH   3  16
TORSDOF 6
ENDMDL
MODEL 7
REMARK VINA RESULT:    -6.998      3.271      7.907
REMARK INTER + INTRA:         -10.437
REMARK INTER:                  -9.488
REMARK INTRA:                  -0.949
REMARK UNBOUND:                -0.984
REMARK  Name = 
REMARK  6 active torsions:
REMARK  status: ('A' for Active; 'I' for Inactive)
REMARK    1  A    between atoms: C_2  and  C_19
REMARK    2  A    between atoms: N_3  and  C_4
REMARK    3  A    between atoms: C_4  and  C_5
REMARK    4  A    between atoms: C_8  and  C_9
REMARK    5  A    between atoms: C_9  and  O_10
REMARK    6  A    between atoms: O_10  and  C_11
REMARK                            x       y       z     vdW  Elec       q    Type
REMARK                         _______ _______ _______ _____ _____    ______ ____
ROOT
ATOM      1  O   UNL     1      45.682   7.860  11.856  0.00  0.00    +0.000 OA
ATOM      2  C   UNL     1      46.332   6.890  11.474  0.00  0.00    +0.000 C 
ATOM      3  N   UNL     1      47.685   6.796  11.664  0.00  0.00    +0.000 N 
ATOM      4  H   UNL     1      48.217   6.111  11.138  0.00  0.00    +0.000 HD
ENDROOT
BRANCH   2   5
ATOM      5  C   UNL     1      45.684   5.736  10.838  0.00  0.00    +0.000 A 
ATOM      6  C   UNL     1      45.850   5.512   9.477  0.00  0.00    +0.000 A 
ATOM      7  S   UNL     1      45.010   4.142   8.903  0.00  0.00    +0.000 S 
ATOM      8  C   UNL     1      44.430   3.775  10.460  0.00  0.00    +0.000 A 
ATOM      9  N   UNL     1      43.653   2.677  10.680  0.00  0.00    +0.000 NA
ATOM     10  C   UNL     1      43.319   2.504  11.915  0.00  0.00    +0.000 A 
ATOM     11  N   UNL     1      43.682   3.327  12.948  0.00  0.00    +0.000 N 
ATOM     12  C   UNL     1      44.410   4.477  12.763  0.00  0.00    +0.000 A 
ATOM     13  O   UNL     1      44.623   5.246  13.693  0.00  0.00    +0.000 OA
ATOM     14  C   UNL     1      44.849   4.701  11.400  0.00  0.00    +0.000 A 
ATOM     15  H   UNL     1      43.367   3.149  13.891  0.00  0.00    +0.000 HD
ENDBRANCH   2   5
BRANCH   3  16
ATOM     16  C   UNL     1      48.470   7.868  12.232  0.00  0.00    +0.000 C 
BRANCH  16  17
ATOM     17  C   UNL     1      49.031   7.501  13.585  0.00  0.00    +0.000 A 
ATOM     18  C   UNL     1      50.315   7.901  13.943  0.00  0.00    +0.000 A 
ATOM     19  C   UNL     1      50.809   7.540  15.194  0.00  0.00    +0.000 A 
ATOM     20  C   UNL     1      50.027   6.764  16.049  0.00  0.00    +0.000 A 
ATOM     21  C   UNL     1      48.759   6.405  15.606  0.00  0.00    +0.000 A 
ATOM     22  N   UNL     1      48.249   6.749  14.402  0.00  0.00    +0.000 NA
BRANCH  20  23
ATOM     23  C   UNL     1      50.529   6.317  17.394  0.00  0.00    +0.000 C 
BRANCH  23  24
ATOM     24  O   UNL     1      49.752   5.211  17.854  0.00  0.00    +0.000 OA
BRANCH  24  25
ATOM     25  C   UNL     1      50.422   4.013  17.695  0.00  0.00    +0.000 A 
ATOM     26  C   UNL     1      51.725   3.955  18.164  0.00  0.00    +0.000 A 
ATOM     27  C   UNL     1      52.419   2.754  18.035  0.00  0.00    +0.000 A 
ATOM     28  C   UNL     1      51.787   1.660  17.448  0.00  0.00    +0.000 A 
ATOM     29  C   UNL     1      50.487   1.817  17.004  0.00  0.00    +0.000 A 
ATOM     30  N   UNL     1      49.790   2.967  17.115  0.00  0.00    +0.000 NA
ENDBRANCH  24  25
ENDBRANCH  23  24
ENDBRANCH  20  23
ENDBRANCH  16  17
ENDBRANCH   3  16
TORSDOF 6
ENDMDL
MODEL 8
REMARK VINA RESULT:    -6.874      3.302      5.599
REMARK INTER + INTRA:         -10.269
REMARK INTER:                  -9.495
REMARK INTRA:                  -0.775
REMARK UNBOUND:                -0.984
REMARK  Name = 
REMARK  6 active torsions:
REMARK  status: ('A' for Active; 'I' for Inactive)
REMARK    1  A    between atoms: C_2  and  C_19
REMARK    2  A    between atoms: N_3  and  C_4
REMARK    3  A    between atoms: C_4  and  C_5
REMARK    4  A    between atoms: C_8  and  C_9
REMARK    5  A    between atoms: C_9  and  O_10
REMARK    6  A    between atoms: O_10  and  C_11
REMARK                            x       y       z     vdW  Elec       q    Type
REMARK                         _______ _______ _______ _____ _____    ______ ____
ROOT
ATOM      1  O   UNL     1      49.703   1.680  16.080  0.00  0.00    +0.000 OA
ATOM      2  C   UNL     1      50.116   2.295  17.059  0.00  0.00    +0.000 C 
ATOM      3  N   UNL     1      49.295   3.070  17.835  0.00  0.00    +0.000 N 
ATOM      4  H   UNL     1      49.702   3.741  18.479  0.00  0.00    +0.000 HD
ENDROOT
BRANCH   2   5
ATOM      5  C   UNL     1      51.513   2.189  17.499  0.00  0.00    +0.000 A 
ATOM      6  C   UNL     1      52.100   0.939  17.645  0.00  0.00    +0.000 A 
ATOM      7  S   UNL     1      53.718   1.002  18.184  0.00  0.00    +0.000 S 
ATOM      8  C   UNL     1      53.705   2.703  18.198  0.00  0.00    +0.000 A 
ATOM      9  N   UNL     1      54.817   3.411  18.544  0.00  0.00    +0.000 NA
ATOM     10  C   UNL     1      54.673   4.693  18.474  0.00  0.00    +0.000 A 
ATOM     11  N   UNL     1      53.521   5.331  18.097  0.00  0.00    +0.000 N 
ATOM     12  C   UNL     1      52.360   4.660  17.802  0.00  0.00    +0.000 A 
ATOM     13  O   UNL     1      51.319   5.267  17.575  0.00  0.00    +0.000 OA
ATOM     14  C   UNL     1      52.475   3.215  17.825  0.00  0.00    +0.000 A 
ATOM     15  H   UNL     1      53.464   6.340  18.085  0.00  0.00    +0.000 HD
ENDBRANCH   2   5
BRANCH   3  16
ATOM     16  C   UNL     1      47.909   3.310  17.506  0.00  0.00    +0.000 C 
BRANCH  16  17
ATOM     17  C   UNL     1      47.761   4.133  16.249  0.00  0.00    +0.000 A 
ATOM     18  C   UNL     1      48.239   5.439  16.206  0.00  0.00    +0.000 A 
ATOM     19  C   UNL     1      48.081   6.177  15.035  0.00  0.00    +0.000 A 
ATOM     20  C   UNL     1      47.424   5.610  13.944  0.00  0.00    +0.000 A 
ATOM     21  C   UNL     1      46.973   4.302  14.079  0.00  0.00    +0.000 A 
ATOM     22  N   UNL     1      47.122   3.558  15.198  0.00  0.00    +0.000 NA
BRANCH  20  23
ATOM     23  C   UNL     1      47.195   6.378  12.671  0.00  0.00    +0.000 C 
BRANCH  23  24
ATOM     24  O   UNL     1      45.923   7.024  12.722  0.00  0.00    +0.000 OA
BRANCH  24  25
ATOM     25  C   UNL     1      44.905   6.184  12.311  0.00  0.00    +0.000 A 
ATOM     26  C   UNL     1      44.985   5.685  11.020  0.00  0.00    +0.000 A 
ATOM     27  C   UNL     1      43.983   4.821  10.584  0.00  0.00    +0.000 A 
ATOM     28  C   UNL     1      42.945   4.487  11.451  0.00  0.00    +0.000 A 
ATOM     29  C   UNL     1      42.948   5.040  12.719  0.00  0.00    +0.000 A 
ATOM     30  N   UNL     1      43.904   5.880  13.168  0.00  0.00    +0.000 NA
ENDBRANCH  24  25
ENDBRANCH  23  24
ENDBRANCH  20  23
ENDBRANCH  16  17
ENDBRANCH   3  16
TORSDOF 6
ENDMDL
MODEL 9
REMARK VINA RESULT:    -6.789      2.966      4.068
REMARK INTER + INTRA:         -10.154
REMARK INTER:                  -9.364
REMARK INTRA:                  -0.791
REMARK UNBOUND:                -0.984
REMARK  Name = 
REMARK  6 active torsions:
REMARK  status: ('A' for Active; 'I' for Inactive)
REMARK    1  A    between atoms: C_2  and  C_19
REMARK    2  A    between atoms: N_3  and  C_4
REMARK    3  A    between atoms: C_4  and  C_5
REMARK    4  A    between atoms: C_8  and  C_9
REMARK    5  A    between atoms: C_9  and  O_10
REMARK    6  A    between atoms: O_10  and  C_11
REMARK                            x       y       z     vdW  Elec       q    Type
REMARK                         _______ _______ _______ _____ _____    ______ ____
ROOT
ATOM      1  O   UNL     1      48.148   8.031  15.410  0.00  0.00    +0.000 OA
ATOM      2  C   UNL     1      48.772   7.581  14.453  0.00  0.00    +0.000 C 
ATOM      3  N   UNL     1      48.349   6.482  13.755  0.00  0.00    +0.000 N 
ATOM      4  H   UNL     1      48.995   6.003  13.136  0.00  0.00    +0.000 HD
ENDROOT
BRANCH   2   5
ATOM      5  C   UNL     1      49.990   8.236  13.956  0.00  0.00    +0.000 A 
ATOM      6  C   UNL     1      49.917   9.106  12.876  0.00  0.00    +0.000 A 
ATOM      7  S   UNL     1      51.427   9.756  12.420  0.00  0.00    +0.000 S 
ATOM      8  C   UNL     1      52.224   8.932  13.676  0.00  0.00    +0.000 A 
ATOM      9  N   UNL     1      53.565   9.079  13.872  0.00  0.00    +0.000 NA
ATOM     10  C   UNL     1      54.028   8.424  14.885  0.00  0.00    +0.000 A 
ATOM     11  N   UNL     1      53.278   7.633  15.714  0.00  0.00    +0.000 N 
ATOM     12  C   UNL     1      51.938   7.406  15.516  0.00  0.00    +0.000 A 
ATOM     13  O   UNL     1      51.323   6.606  16.212  0.00  0.00    +0.000 OA
ATOM     14  C   UNL     1      51.356   8.149  14.416  0.00  0.00    +0.000 A 
ATOM     15  H   UNL     1      53.704   7.126  16.476  0.00  0.00    +0.000 HD
ENDBRANCH   2   5
BRANCH   3  16
ATOM     16  C   UNL     1      47.197   5.703  14.150  0.00  0.00    +0.000 C 
BRANCH  16  17
ATOM     17  C   UNL     1      46.396   5.238  12.958  0.00  0.00    +0.000 A 
ATOM     18  C   UNL     1      45.753   4.004  12.984  0.00  0.00    +0.000 A 
ATOM     19  C   UNL     1      45.028   3.597  11.866  0.00  0.00    +0.000 A 
ATOM     20  C   UNL     1      44.985   4.413  10.736  0.00  0.00    +0.000 A 
ATOM     21  C   UNL     1      45.663   5.625  10.796  0.00  0.00    +0.000 A 
ATOM     22  N   UNL     1      46.364   6.051  11.870  0.00  0.00    +0.000 NA
BRANCH  20  23
ATOM     23  C   UNL     1      44.248   4.002   9.491  0.00  0.00    +0.000 C 
BRANCH  23  24
ATOM     24  O   UNL     1      44.441   2.607   9.257  0.00  0.00    +0.000 OA
BRANCH  24  25
ATOM     25  C   UNL     1      45.445   2.377   8.334  0.00  0.00    +0.000 A 
ATOM     26  C   UNL     1      45.744   3.410   7.460  0.00  0.00    +0.000 A 
ATOM     27  C   UNL     1      46.764   3.214   6.532  0.00  0.00    +0.000 A 
ATOM     28  C   UNL     1      47.446   2.000   6.515  0.00  0.00    +0.000 A 
ATOM     29  C   UNL     1      47.072   1.025   7.423  0.00  0.00    +0.000 A 
ATOM     30  N   UNL     1      46.088   1.187   8.332  0.00  0.00    +0.000 NA
ENDBRANCH  24  25
ENDBRANCH  23  24
ENDBRANCH  20  23
ENDBRANCH  16  17
ENDBRANCH   3  16
TORSDOF 6
ENDMDL
