MODEL 1
REMARK VINA RESULT:    -7.854      0.000      0.000
REMARK INTER + INTRA:         -11.728
REMARK INTER:                 -10.609
REMARK INTRA:                  -1.120
REMARK UNBOUND:                -1.120
REMARK  Name = 
REMARK  6 active torsions:
REMARK  status: ('A' for Active; 'I' for Inactive)
REMARK    1  A    between atoms: C_2  and  C_3
REMARK    2  A    between atoms: C_7  and  C_8
REMARK    3  A    between atoms: C_8  and  C_9
REMARK    4  A    between atoms: C_12  and  C_13
REMARK    5  A    between atoms: C_13  and  N_14
REMARK    6  A    between atoms: C_15  and  C_17
REMARK                            x       y       z     vdW  Elec       q    Type
REMARK                         _______ _______ _______ _____ _____    ______ ____
ROOT
ATOM      1  C   UNL     1      46.821   4.673  14.974  0.00  0.00    +0.000 C 
ENDROOT
BRANCH   1   5
ATOM      2  C   UNL     1      44.995   4.321  11.129  0.00  0.00    +0.000 A 
ATOM      3  C   UNL     1      45.517   5.553  11.528  0.00  0.00    +0.000 A 
ATOM      4  C   UNL     1      46.120   5.679  12.778  0.00  0.00    +0.000 A 
ATOM      5  C   UNL     1      46.173   4.569  13.615  0.00  0.00    +0.000 A 
ATOM      6  N   UNL     1      45.672   3.360  13.250  0.00  0.00    +0.000 NA
ATOM      7  C   UNL     1      45.108   3.264  12.024  0.00  0.00    +0.000 A 
BRANCH   2   8
ATOM      8  C   UNL     1      44.393   4.129   9.764  0.00  0.00    +0.000 C 
BRANCH   8  13
ATOM      9  C   UNL     1      46.440   1.629   7.724  0.00  0.00    +0.000 A 
ATOM     10  C   UNL     1      47.109   2.478   6.837  0.00  0.00    +0.000 A 
ATOM     11  C   UNL     1      46.919   3.858   6.915  0.00  0.00    +0.000 A 
ATOM     12  C   UNL     1      46.057   4.394   7.872  0.00  0.00    +0.000 A 
ATOM     13  C   UNL     1      45.374   3.556   8.765  0.00  0.00    +0.000 A 
ATOM     14  C   UNL     1      45.574   2.169   8.683  0.00  0.00    +0.000 A 
BRANCH   9  16
ATOM     15  N   UNL     1      46.788  -0.939   7.590  0.00  0.00    +0.000 NA
ATOM     16  C   UNL     1      46.635   0.212   7.650  0.00  0.00    +0.000 C 
ENDBRANCH   9  16
ENDBRANCH   8  13
ENDBRANCH   2   8
ENDBRANCH   1   5
BRANCH   1  17
ATOM     17  N   UNL     1      47.588   5.888  15.131  0.00  0.00    +0.000 N 
ATOM     18  C   UNL     1      48.701   5.965  15.921  0.00  0.00    +0.000 C 
ATOM     19  O   UNL     1      49.114   5.001  16.562  0.00  0.00    +0.000 OA
ATOM     20  H   UNL     1      47.133   6.739  14.811  0.00  0.00    +0.000 HD
BRANCH  18  21
ATOM     21  C   UNL     1      49.432   7.240  15.899  0.00  0.00    +0.000 A 
ATOM     22  C   UNL     1      49.704   7.898  17.091  0.00  0.00    +0.000 A 
ATOM     23  S   UNL     1      50.620   9.323  16.893  0.00  0.00    +0.000 S 
ATOM     24  C   UNL     1      50.646   9.136  15.203  0.00  0.00    +0.000 A 
ATOM     25  N   UNL     1      51.273  10.046  14.408  0.00  0.00    +0.000 NA
ATOM     26  C   UNL     1      51.187   9.799  13.145  0.00  0.00    +0.000 A 
ATOM     27  N   UNL     1      50.535   8.722  12.602  0.00  0.00    +0.000 N 
ATOM     28  C   UNL     1      49.931   7.753  13.367  0.00  0.00    +0.000 A 
ATOM     29  O   UNL     1      49.428   6.762  12.852  0.00  0.00    +0.000 OA
ATOM     30  C   UNL     1      49.978   7.995  14.796  0.00  0.00    +0.000 A 
ATOM     31  H   UNL     1      50.517   8.575  11.604  0.00  0.00    +0.000 HD
ENDBRANCH  18  21
ENDBRANCH   1  17
TORSDOF 6
ENDMDL
MODEL 2
REMARK VINA RESULT:    -7.480      1.741      2.671
REMARK INTER + INTRA:         -11.223
REMARK INTER:                 -10.417
REMARK INTRA:                  -0.806
REMARK UNBOUND:                -1.120
REMARK  Name = 
REMARK  6 active torsions:
REMARK  status: ('A' for Active; 'I' for Inactive)
REMARK    1  A    between atoms: C_2  and  C_3
REMARK    2  A    between atoms: C_7  and  C_8
REMARK    3  A    between atoms: C_8  and  C_9
REMARK    4  A    between atoms: C_12  and  C_13
REMARK    5  A    between atoms: C_13  and  N_14
REMARK    6  A    between atoms: C_15  and  C_17
REMARK                            x       y       z     vdW  Elec       q    Type
REMARK                         _______ _______ _______ _____ _____    ______ ____
ROOT
ATOM      1  C   UNL     1      47.144   4.529  14.997  0.00  0.00    +0.000 C 
ENDROOT
BRANCH   1   5
ATOM      2  C   UNL     1      45.115   4.302  11.246  0.00  0.00    +0.000 A 
ATOM      3  C   UNL     1      45.670   5.518  11.650  0.00  0.00    +0.000 A 
ATOM      4  C   UNL     1      46.340   5.603  12.869  0.00  0.00    +0.000 A 
ATOM      5  C   UNL     1      46.424   4.469  13.671  0.00  0.00    +0.000 A 
ATOM      6  N   UNL     1      45.892   3.275  13.301  0.00  0.00    +0.000 NA
ATOM      7  C   UNL     1      45.263   3.219  12.104  0.00  0.00    +0.000 A 
BRANCH   2   8
ATOM      8  C   UNL     1      44.440   4.153   9.910  0.00  0.00    +0.000 C 
BRANCH   8  13
ATOM      9  C   UNL     1      46.401   1.696   7.737  0.00  0.00    +0.000 A 
ATOM     10  C   UNL     1      46.981   2.557   6.801  0.00  0.00    +0.000 A 
ATOM     11  C   UNL     1      46.760   3.932   6.886  0.00  0.00    +0.000 A 
ATOM     12  C   UNL     1      45.956   4.451   7.901  0.00  0.00    +0.000 A 
ATOM     13  C   UNL     1      45.362   3.601   8.845  0.00  0.00    +0.000 A 
ATOM     14  C   UNL     1      45.592   2.219   8.754  0.00  0.00    +0.000 A 
BRANCH   9  16
ATOM     15  N   UNL     1      46.811  -0.862   7.592  0.00  0.00    +0.000 NA
ATOM     16  C   UNL     1      46.627   0.284   7.655  0.00  0.00    +0.000 C 
ENDBRANCH   9  16
ENDBRANCH   8  13
ENDBRANCH   2   8
ENDBRANCH   1   5
BRANCH   1  17
ATOM     17  N   UNL     1      47.569   5.868  15.337  0.00  0.00    +0.000 N 
ATOM     18  C   UNL     1      48.666   6.122  16.113  0.00  0.00    +0.000 C 
ATOM     19  O   UNL     1      49.355   5.221  16.584  0.00  0.00    +0.000 OA
ATOM     20  H   UNL     1      46.888   6.602  15.165  0.00  0.00    +0.000 HD
BRANCH  18  21
ATOM     21  C   UNL     1      49.031   7.536  16.286  0.00  0.00    +0.000 A 
ATOM     22  C   UNL     1      49.773   8.181  15.306  0.00  0.00    +0.000 A 
ATOM     23  S   UNL     1      50.049   9.832  15.631  0.00  0.00    +0.000 S 
ATOM     24  C   UNL     1      49.226   9.734  17.116  0.00  0.00    +0.000 A 
ATOM     25  N   UNL     1      49.104  10.823  17.922  0.00  0.00    +0.000 NA
ATOM     26  C   UNL     1      48.486  10.598  19.032  0.00  0.00    +0.000 A 
ATOM     27  N   UNL     1      47.972   9.384  19.408  0.00  0.00    +0.000 N 
ATOM     28  C   UNL     1      48.028   8.271  18.605  0.00  0.00    +0.000 A 
ATOM     29  O   UNL     1      47.487   7.222  18.938  0.00  0.00    +0.000 OA
ATOM     30  C   UNL     1      48.735   8.462  17.354  0.00  0.00    +0.000 A 
ATOM     31  H   UNL     1      47.483   9.276  20.285  0.00  0.00    +0.000 HD
ENDBRANCH  18  21
ENDBRANCH   1  17
TORSDOF 6
ENDMDL
MODEL 3
REMARK VINA RESULT:    -7.460      2.057      3.622
REMARK INTER + INTRA:         -11.196
REMARK INTER:                 -10.271
REMARK INTRA:                  -0.926
REMARK UNBOUND:                -1.120
REMARK  Name = 
REMARK  6 active torsions:
REMARK  status: ('A' for Active; 'I' for Inactive)
REMARK    1  A    between atoms: C_2  and  C_3
REMARK    2  A    between atoms: C_7  and  C_8
REMARK    3  A    between atoms: C_8  and  C_9
REMARK    4  A    between atoms: C_12  and  C_13
REMARK    5  A    between atoms: C_13  and  N_14
REMARK    6  A    between atoms: C_15  and  C_17
REMARK                            x       y       z     vdW  Elec       q    Type
REMARK                         _______ _______ _______ _____ _____    ______ ____
ROOT
ATOM      1  C   UNL     1      47.632   7.578  13.635  0.00  0.00    +0.000 C 
ENDROOT
BRANCH   1   5
ATOM      2  C   UNL     1      45.278   4.973  11.204  0.00  0.00    +0.000 A 
ATOM      3  C   UNL     1      45.315   6.337  10.908  0.00  0.00    +0.000 A 
ATOM      4  C   UNL     1      46.083   7.196  11.690  0.00  0.00    +0.000 A 
ATOM      5  C   UNL     1      46.789   6.673  12.770  0.00  0.00    +0.000 A 
ATOM      6  N   UNL     1      46.769   5.350  13.079  0.00  0.00    +0.000 NA
ATOM      7  C   UNL     1      46.027   4.538  12.291  0.00  0.00    +0.000 A 
BRANCH   2   8
ATOM      8  C   UNL     1      44.510   4.004  10.347  0.00  0.00    +0.000 C 
BRANCH   8  13
ATOM      9  C   UNL     1      46.273   1.661   7.896  0.00  0.00    +0.000 A 
ATOM     10  C   UNL     1      46.700   2.560   6.913  0.00  0.00    +0.000 A 
ATOM     11  C   UNL     1      46.441   3.923   7.054  0.00  0.00    +0.000 A 
ATOM     12  C   UNL     1      45.750   4.393   8.172  0.00  0.00    +0.000 A 
ATOM     13  C   UNL     1      45.311   3.505   9.164  0.00  0.00    +0.000 A 
ATOM     14  C   UNL     1      45.579   2.136   9.017  0.00  0.00    +0.000 A 
BRANCH   9  16
ATOM     15  N   UNL     1      46.752  -0.876   7.644  0.00  0.00    +0.000 NA
ATOM     16  C   UNL     1      46.540   0.261   7.756  0.00  0.00    +0.000 C 
ENDBRANCH   9  16
ENDBRANCH   8  13
ENDBRANCH   2   8
ENDBRANCH   1   5
BRANCH   1  17
ATOM     17  N   UNL     1      47.886   7.016  14.942  0.00  0.00    +0.000 N 
ATOM     18  C   UNL     1      49.143   6.896  15.466  0.00  0.00    +0.000 C 
ATOM     19  O   UNL     1      50.144   7.250  14.847  0.00  0.00    +0.000 OA
ATOM     20  H   UNL     1      47.112   6.505  15.359  0.00  0.00    +0.000 HD
BRANCH  18  21
ATOM     21  C   UNL     1      49.232   6.401  16.847  0.00  0.00    +0.000 A 
ATOM     22  C   UNL     1      49.791   7.204  17.832  0.00  0.00    +0.000 A 
ATOM     23  S   UNL     1      49.753   6.507  19.388  0.00  0.00    +0.000 S 
ATOM     24  C   UNL     1      49.031   5.087  18.794  0.00  0.00    +0.000 A 
ATOM     25  N   UNL     1      48.734   4.051  19.625  0.00  0.00    +0.000 NA
ATOM     26  C   UNL     1      48.220   3.024  19.036  0.00  0.00    +0.000 A 
ATOM     27  N   UNL     1      47.970   2.940  17.691  0.00  0.00    +0.000 N 
ATOM     28  C   UNL     1      48.207   3.977  16.822  0.00  0.00    +0.000 A 
ATOM     29  O   UNL     1      47.897   3.897  15.639  0.00  0.00    +0.000 OA
ATOM     30  C   UNL     1      48.808   5.149  17.429  0.00  0.00    +0.000 A 
ATOM     31  H   UNL     1      47.551   2.113  17.291  0.00  0.00    +0.000 HD
ENDBRANCH  18  21
ENDBRANCH   1  17
TORSDOF 6
ENDMDL
MODEL 4
REMARK VINA RESULT:    -7.277      2.308      4.062
REMARK INTER + INTRA:         -10.949
REMARK INTER:                  -9.886
REMARK INTRA:                  -1.064
REMARK UNBOUND:                -1.120
REMARK  Name = 
REMARK  6 active torsions:
REMARK  status: ('A' for Active; 'I' for Inactive)
REMARK    1  A    between atoms: C_2  and  C_3
REMARK    2  A    between atoms: C_7  and  C_8
REMARK    3  A    between atoms: C_8  and  C_9
REMARK    4  A    between atoms: C_12  and  C_13
REMARK    5  A    between atoms: C_13  and  N_14
REMARK    6  A    between atoms: C_15  and  C_17
REMARK                            x       y       z     vdW  Elec       q    Type
REMARK                         _______ _______ _______ _____ _____    ______ ____
ROOT
ATOM      1  C   UNL     1      47.469   8.350  13.671  0.00  0.00    +0.000 C 
ENDROOT
BRANCH   1   5
ATOM      2  C   UNL     1      44.683   6.194  11.257  0.00  0.00    +0.000 A 
ATOM      3  C   UNL     1      45.785   5.525  11.793  0.00  0.00    +0.000 A 
ATOM      4  C   UNL     1      46.698   6.215  12.587  0.00  0.00    +0.000 A 
ATOM      5  C   UNL     1      46.499   7.574  12.814  0.00  0.00    +0.000 A 
ATOM      6  N   UNL     1      45.436   8.248  12.303  0.00  0.00    +0.000 NA
ATOM      7  C   UNL     1      44.557   7.547  11.551  0.00  0.00    +0.000 A 
BRANCH   2   8
ATOM      8  C   UNL     1      43.642   5.470  10.447  0.00  0.00    +0.000 C 
BRANCH   8  13
ATOM      9  C   UNL     1      45.485   3.156   8.028  0.00  0.00    +0.000 A 
ATOM     10  C   UNL     1      45.271   1.908   8.622  0.00  0.00    +0.000 A 
ATOM     11  C   UNL     1      44.511   1.811   9.787  0.00  0.00    +0.000 A 
ATOM     12  C   UNL     1      43.968   2.958  10.368  0.00  0.00    +0.000 A 
ATOM     13  C   UNL     1      44.178   4.218   9.788  0.00  0.00    +0.000 A 
ATOM     14  C   UNL     1      44.941   4.306   8.613  0.00  0.00    +0.000 A 
BRANCH   9  16
ATOM     15  N   UNL     1      46.889   3.345   5.855  0.00  0.00    +0.000 NA
ATOM     16  C   UNL     1      46.262   3.259   6.829  0.00  0.00    +0.000 C 
ENDBRANCH   9  16
ENDBRANCH   8  13
ENDBRANCH   2   8
ENDBRANCH   1   5
BRANCH   1  17
ATOM     17  N   UNL     1      47.860   7.627  14.860  0.00  0.00    +0.000 N 
ATOM     18  C   UNL     1      49.090   7.048  15.004  0.00  0.00    +0.000 C 
ATOM     19  O   UNL     1      49.941   7.096  14.119  0.00  0.00    +0.000 OA
ATOM     20  H   UNL     1      47.102   7.373  15.488  0.00  0.00    +0.000 HD
BRANCH  18  21
ATOM     21  C   UNL     1      49.376   6.437  16.310  0.00  0.00    +0.000 A 
ATOM     22  C   UNL     1      50.335   7.002  17.139  0.00  0.00    +0.000 A 
ATOM     23  S   UNL     1      50.492   6.212  18.642  0.00  0.00    +0.000 S 
ATOM     24  C   UNL     1      49.318   5.057  18.220  0.00  0.00    +0.000 A 
ATOM     25  N   UNL     1      48.976   4.058  19.079  0.00  0.00    +0.000 NA
ATOM     26  C   UNL     1      48.098   3.234  18.617  0.00  0.00    +0.000 A 
ATOM     27  N   UNL     1      47.524   3.319  17.375  0.00  0.00    +0.000 N 
ATOM     28  C   UNL     1      47.801   4.337  16.494  0.00  0.00    +0.000 A 
ATOM     29  O   UNL     1      47.209   4.428  15.425  0.00  0.00    +0.000 OA
ATOM     30  C   UNL     1      48.802   5.279  16.955  0.00  0.00    +0.000 A 
ATOM     31  H   UNL     1      46.828   2.651  17.077  0.00  0.00    +0.000 HD
ENDBRANCH  18  21
ENDBRANCH   1  17
TORSDOF 6
ENDMDL
MODEL 5
REMARK VINA RESULT:    -7.080      2.400      3.534
REMARK INTER + INTRA:         -10.682
REMARK INTER:                  -9.836
REMARK INTRA:                  -0.847
REMARK UNBOUND:                -1.120
REMARK  Name = 
REMARK  6 active torsions:
REMARK  status: ('A' for Active; 'I' for Inactive)
REMARK    1  A    between atoms: C_2  and  C_3
REMARK    2  A    between atoms: C_7  and  C_8
REMARK    3  A    between atoms: C_8  and  C_9
REMARK    4  A    between atoms: C_12  and  C_13
REMARK    5  A    between atoms: C_13  and  N_14
REMARK    6  A    between atoms: C_15  and  C_17
REMARK                            x       y       z     vdW  Elec       q    Type
REMARK                         _______ _______ _______ _____ _____    ______ ____
ROOT
ATOM      1  C   UNL     1      47.408   7.681  13.715  0.00  0.00    +0.000 C 
ENDROOT
BRANCH   1   5
ATOM      2  C   UNL     1      45.324   4.916  11.215  0.00  0.00    +0.000 A 
ATOM      3  C   UNL     1      45.876   4.470  12.417  0.00  0.00    +0.000 A 
ATOM      4  C   UNL     1      46.552   5.363  13.244  0.00  0.00    +0.000 A 
ATOM      5  C   UNL     1      46.682   6.688  12.841  0.00  0.00    +0.000 A 
ATOM      6  N   UNL     1      46.155   7.147  11.675  0.00  0.00    +0.000 NA
ATOM      7  C   UNL     1      45.489   6.260  10.902  0.00  0.00    +0.000 A 
BRANCH   2   8
ATOM      8  C   UNL     1      44.532   3.998  10.325  0.00  0.00    +0.000 C 
BRANCH   8  13
ATOM      9  C   UNL     1      46.276   1.645   7.870  0.00  0.00    +0.000 A 
ATOM     10  C   UNL     1      46.715   2.542   6.891  0.00  0.00    +0.000 A 
ATOM     11  C   UNL     1      46.470   3.908   7.036  0.00  0.00    +0.000 A 
ATOM     12  C   UNL     1      45.782   4.382   8.153  0.00  0.00    +0.000 A 
ATOM     13  C   UNL     1      45.331   3.495   9.142  0.00  0.00    +0.000 A 
ATOM     14  C   UNL     1      45.585   2.123   8.990  0.00  0.00    +0.000 A 
BRANCH   9  16
ATOM     15  N   UNL     1      46.729  -0.897   7.610  0.00  0.00    +0.000 NA
ATOM     16  C   UNL     1      46.529   0.242   7.726  0.00  0.00    +0.000 C 
ENDBRANCH   9  16
ENDBRANCH   8  13
ENDBRANCH   2   8
ENDBRANCH   1   5
BRANCH   1  17
ATOM     17  N   UNL     1      47.729   7.142  15.017  0.00  0.00    +0.000 N 
ATOM     18  C   UNL     1      49.004   6.823  15.394  0.00  0.00    +0.000 C 
ATOM     19  O   UNL     1      49.962   6.964  14.637  0.00  0.00    +0.000 OA
ATOM     20  H   UNL     1      46.939   6.797  15.557  0.00  0.00    +0.000 HD
BRANCH  18  21
ATOM     21  C   UNL     1      49.185   6.382  16.784  0.00  0.00    +0.000 A 
ATOM     22  C   UNL     1      49.762   5.146  17.045  0.00  0.00    +0.000 A 
ATOM     23  S   UNL     1      49.962   4.821  18.707  0.00  0.00    +0.000 S 
ATOM     24  C   UNL     1      49.242   6.299  19.139  0.00  0.00    +0.000 A 
ATOM     25  N   UNL     1      49.088   6.647  20.446  0.00  0.00    +0.000 NA
ATOM     26  C   UNL     1      48.497   7.779  20.630  0.00  0.00    +0.000 A 
ATOM     27  N   UNL     1      48.050   8.599  19.627  0.00  0.00    +0.000 N 
ATOM     28  C   UNL     1      48.228   8.313  18.295  0.00  0.00    +0.000 A 
ATOM     29  O   UNL     1      47.889   9.106  17.425  0.00  0.00    +0.000 OA
ATOM     30  C   UNL     1      48.867   7.038  18.031  0.00  0.00    +0.000 A 
ATOM     31  H   UNL     1      47.608   9.483  19.836  0.00  0.00    +0.000 HD
ENDBRANCH  18  21
ENDBRANCH   1  17
TORSDOF 6
ENDMDL
MODEL 6
REMARK VINA RESULT:    -6.984      2.743      3.539
REMARK INTER + INTRA:         -10.553
REMARK INTER:                  -9.923
REMARK INTRA:                  -0.630
REMARK UNBOUND:                -1.120
REMARK  Name = 
REMARK  6 active torsions:
REMARK  status: ('A' for Active; 'I' for Inactive)
REMARK    1  A    between atoms: C_2  and  C_3
REMARK    2  A    between atoms: C_7  and  C_8
REMARK    3  A    between atoms: C_8  and  C_9
REMARK    4  A    between atoms: C_12  and  C_13
REMARK    5  A    between atoms: C_13  and  N_14
REMARK    6  A    between atoms: C_15  and  C_17
REMARK                            x       y       z     vdW  Elec       q    Type
REMARK                         _______ _______ _______ _____ _____    ______ ____
ROOT
ATOM      1  C   UNL     1      47.876   4.753  15.782  0.00  0.00    +0.000 C 
ENDROOT
BRANCH   1   5
ATOM      2  C   UNL     1      45.750   5.518  12.159  0.00  0.00    +0.000 A 
ATOM      3  C   UNL     1      46.909   6.244  12.437  0.00  0.00    +0.000 A 
ATOM      4  C   UNL     1      47.615   5.999  13.613  0.00  0.00    +0.000 A 
ATOM      5  C   UNL     1      47.133   5.042  14.500  0.00  0.00    +0.000 A 
ATOM      6  N   UNL     1      46.007   4.323  14.253  0.00  0.00    +0.000 NA
ATOM      7  C   UNL     1      45.353   4.570  13.095  0.00  0.00    +0.000 A 
BRANCH   2   8
ATOM      8  C   UNL     1      44.995   5.707  10.871  0.00  0.00    +0.000 C 
BRANCH   8  13
ATOM      9  C   UNL     1      45.653   3.259   8.012  0.00  0.00    +0.000 A 
ATOM     10  C   UNL     1      45.013   2.107   8.482  0.00  0.00    +0.000 A 
ATOM     11  C   UNL     1      44.349   2.129   9.708  0.00  0.00    +0.000 A 
ATOM     12  C   UNL     1      44.325   3.296  10.472  0.00  0.00    +0.000 A 
ATOM     13  C   UNL     1      44.966   4.458  10.018  0.00  0.00    +0.000 A 
ATOM     14  C   UNL     1      45.629   4.429   8.782  0.00  0.00    +0.000 A 
BRANCH   9  16
ATOM     15  N   UNL     1      46.887   3.223   5.730  0.00  0.00    +0.000 NA
ATOM     16  C   UNL     1      46.334   3.242   6.752  0.00  0.00    +0.000 C 
ENDBRANCH   9  16
ENDBRANCH   8  13
ENDBRANCH   2   8
ENDBRANCH   1   5
BRANCH   1  17
ATOM     17  N   UNL     1      47.622   5.741  16.805  0.00  0.00    +0.000 N 
ATOM     18  C   UNL     1      48.492   5.987  17.830  0.00  0.00    +0.000 C 
ATOM     19  O   UNL     1      49.547   5.369  17.953  0.00  0.00    +0.000 OA
ATOM     20  H   UNL     1      46.666   6.083  16.858  0.00  0.00    +0.000 HD
BRANCH  18  21
ATOM     21  C   UNL     1      48.143   7.093  18.734  0.00  0.00    +0.000 A 
ATOM     22  C   UNL     1      47.954   6.842  20.087  0.00  0.00    +0.000 A 
ATOM     23  S   UNL     1      47.625   8.243  21.003  0.00  0.00    +0.000 S 
ATOM     24  C   UNL     1      47.677   9.228  19.618  0.00  0.00    +0.000 A 
ATOM     25  N   UNL     1      47.461  10.569  19.704  0.00  0.00    +0.000 NA
ATOM     26  C   UNL     1      47.496  11.188  18.573  0.00  0.00    +0.000 A 
ATOM     27  N   UNL     1      47.735  10.591  17.362  0.00  0.00    +0.000 N 
ATOM     28  C   UNL     1      48.008   9.250  17.234  0.00  0.00    +0.000 A 
ATOM     29  O   UNL     1      48.297   8.764  16.147  0.00  0.00    +0.000 OA
ATOM     30  C   UNL     1      47.956   8.501  18.474  0.00  0.00    +0.000 A 
ATOM     31  H   UNL     1      47.767  11.134  16.512  0.00  0.00    +0.000 HD
ENDBRANCH  18  21
ENDBRANCH   1  17
TORSDOF 6
ENDMDL
MODEL 7
REMARK VINA RESULT:    -6.714      2.626      4.768
REMARK INTER + INTRA:         -10.188
REMARK INTER:                  -8.879
REMARK INTRA:                  -1.309
REMARK UNBOUND:                -1.120
REMARK  Name = 
REMARK  6 active torsions:
REMARK  status: ('A' for Active; 'I' for Inactive)
REMARK    1  A    between atoms: C_2  and  C_3
REMARK    2  A    between atoms: C_7  and  C_8
REMARK    3  A    between atoms: C_8  and  C_9
REMARK    4  A    between atoms: C_12  and  C_13
REMARK    5  A    between atoms: C_13  and  N_14
REMARK    6  A    between atoms: C_15  and  C_17
REMARK                            x       y       z     vdW  Elec       q    Type
REMARK                         _______ _______ _______ _____ _____    ______ ____
ROOT
ATOM      1  C   UNL     1      49.427   8.556  14.137  0.00  0.00    +0.000 C 
ENDROOT
BRANCH   1   5
ATOM      2  C   UNL     1      45.860   7.501  12.040  0.00  0.00    +0.000 A 
ATOM      3  C   UNL     1      47.007   6.723  11.873  0.00  0.00    +0.000 A 
ATOM      4  C   UNL     1      48.175   7.053  12.556  0.00  0.00    +0.000 A 
ATOM      5  C   UNL     1      48.178   8.173  13.382  0.00  0.00    +0.000 A 
ATOM      6  N   UNL     1      47.075   8.947  13.561  0.00  0.00    +0.000 NA
ATOM      7  C   UNL     1      45.951   8.591  12.898  0.00  0.00    +0.000 A 
BRANCH   2   8
ATOM      8  C   UNL     1      44.562   7.142  11.369  0.00  0.00    +0.000 C 
BRANCH   8  13
ATOM      9  C   UNL     1      44.191   3.391  10.737  0.00  0.00    +0.000 A 
ATOM     10  C   UNL     1      43.607   2.965  11.934  0.00  0.00    +0.000 A 
ATOM     11  C   UNL     1      43.310   3.892  12.933  0.00  0.00    +0.000 A 
ATOM     12  C   UNL     1      43.600   5.243  12.745  0.00  0.00    +0.000 A 
ATOM     13  C   UNL     1      44.191   5.686  11.553  0.00  0.00    +0.000 A 
ATOM     14  C   UNL     1      44.483   4.748  10.551  0.00  0.00    +0.000 A 
BRANCH   9  16
ATOM     15  N   UNL     1      44.746   1.676   8.870  0.00  0.00    +0.000 NA
ATOM     16  C   UNL     1      44.495   2.443   9.707  0.00  0.00    +0.000 C 
ENDBRANCH   9  16
ENDBRANCH   8  13
ENDBRANCH   2   8
ENDBRANCH   1   5
BRANCH   1  17
ATOM     17  N   UNL     1      49.585   7.809  15.365  0.00  0.00    +0.000 N 
ATOM     18  C   UNL     1      49.016   8.197  16.546  0.00  0.00    +0.000 C 
ATOM     19  O   UNL     1      48.342   9.221  16.641  0.00  0.00    +0.000 OA
ATOM     20  H   UNL     1      50.322   7.110  15.362  0.00  0.00    +0.000 HD
BRANCH  18  21
ATOM     21  C   UNL     1      49.181   7.281  17.683  0.00  0.00    +0.000 A 
ATOM     22  C   UNL     1      49.672   7.762  18.890  0.00  0.00    +0.000 A 
ATOM     23  S   UNL     1      49.733   6.586  20.123  0.00  0.00    +0.000 S 
ATOM     24  C   UNL     1      49.150   5.379  19.076  0.00  0.00    +0.000 A 
ATOM     25  N   UNL     1      48.977   4.100  19.508  0.00  0.00    +0.000 NA
ATOM     26  C   UNL     1      48.561   3.282  18.601  0.00  0.00    +0.000 A 
ATOM     27  N   UNL     1      48.297   3.626  17.301  0.00  0.00    +0.000 N 
ATOM     28  C   UNL     1      48.410   4.913  16.833  0.00  0.00    +0.000 A 
ATOM     29  O   UNL     1      48.088   5.201  15.686  0.00  0.00    +0.000 OA
ATOM     30  C   UNL     1      48.898   5.870  17.807  0.00  0.00    +0.000 A 
ATOM     31  H   UNL     1      47.957   2.942  16.641  0.00  0.00    +0.000 HD
ENDBRANCH  18  21
ENDBRANCH   1  17
TORSDOF 6
ENDMDL
MODEL 8
REMARK VINA RESULT:    -6.409      3.757      8.863
REMARK INTER + INTRA:          -9.777
REMARK INTER:                  -8.802
REMARK INTRA:                  -0.975
REMARK UNBOUND:                -1.120
REMARK  Name = 
REMARK  6 active torsions:
REMARK  status: ('A' for Active; 'I' for Inactive)
REMARK    1  A    between atoms: C_2  and  C_3
REMARK    2  A    between atoms: C_7  and  C_8
REMARK    3  A    between atoms: C_8  and  C_9
REMARK    4  A    between atoms: C_12  and  C_13
REMARK    5  A    between atoms: C_13  and  N_14
REMARK    6  A    between atoms: C_15  and  C_17
REMARK                            x       y       z     vdW  Elec       q    Type
REMARK                         _______ _______ _______ _____ _____    ______ ____
ROOT
ATOM      1  C   UNL     1      48.480   7.680  12.344  0.00  0.00    +0.000 C 
ENDROOT
BRANCH   1   5
ATOM      2  C   UNL     1      49.758   6.776  16.317  0.00  0.00    +0.000 A 
ATOM      3  C   UNL     1      50.428   7.762  15.591  0.00  0.00    +0.000 A 
ATOM      4  C   UNL     1      50.017   8.070  14.296  0.00  0.00    +0.000 A 
ATOM      5  C   UNL     1      48.950   7.368  13.744  0.00  0.00    +0.000 A 
ATOM      6  N   UNL     1      48.282   6.404  14.429  0.00  0.00    +0.000 NA
ATOM      7  C   UNL     1      48.693   6.139  15.691  0.00  0.00    +0.000 A 
BRANCH   2   8
ATOM      8  C   UNL     1      50.130   6.458  17.740  0.00  0.00    +0.000 C 
BRANCH   8  13
ATOM      9  C   UNL     1      52.078   3.171  17.792  0.00  0.00    +0.000 A 
ATOM     10  C   UNL     1      53.394   3.631  17.912  0.00  0.00    +0.000 A 
ATOM     11  C   UNL     1      53.649   4.999  18.002  0.00  0.00    +0.000 A 
ATOM     12  C   UNL     1      52.595   5.912  17.966  0.00  0.00    +0.000 A 
ATOM     13  C   UNL     1      51.271   5.468  17.840  0.00  0.00    +0.000 A 
ATOM     14  C   UNL     1      51.022   4.090  17.754  0.00  0.00    +0.000 A 
BRANCH   9  16
ATOM     15  N   UNL     1      51.600   0.626  17.628  0.00  0.00    +0.000 NA
ATOM     16  C   UNL     1      51.812   1.766  17.702  0.00  0.00    +0.000 C 
ENDBRANCH   9  16
ENDBRANCH   8  13
ENDBRANCH   2   8
ENDBRANCH   1   5
BRANCH   1  17
ATOM     17  N   UNL     1      47.654   6.631  11.790  0.00  0.00    +0.000 N 
ATOM     18  C   UNL     1      46.324   6.798  11.524  0.00  0.00    +0.000 C 
ATOM     19  O   UNL     1      45.740   7.855  11.754  0.00  0.00    +0.000 OA
ATOM     20  H   UNL     1      48.051   5.696  11.821  0.00  0.00    +0.000 HD
BRANCH  18  21
ATOM     21  C   UNL     1      45.641   5.674  10.867  0.00  0.00    +0.000 A 
ATOM     22  C   UNL     1      45.732   5.523   9.490  0.00  0.00    +0.000 A 
ATOM     23  S   UNL     1      44.943   4.131   8.900  0.00  0.00    +0.000 S 
ATOM     24  C   UNL     1      44.412   3.705  10.458  0.00  0.00    +0.000 A 
ATOM     25  N   UNL     1      43.654   2.593  10.659  0.00  0.00    +0.000 NA
ATOM     26  C   UNL     1      43.293   2.408  11.884  0.00  0.00    +0.000 A 
ATOM     27  N   UNL     1      43.624   3.231  12.929  0.00  0.00    +0.000 N 
ATOM     28  C   UNL     1      44.427   4.337  12.781  0.00  0.00    +0.000 A 
ATOM     29  O   UNL     1      44.771   5.004  13.749  0.00  0.00    +0.000 OA
ATOM     30  C   UNL     1      44.842   4.604  11.417  0.00  0.00    +0.000 A 
ATOM     31  H   UNL     1      43.324   3.024  13.870  0.00  0.00    +0.000 HD
ENDBRANCH  18  21
ENDBRANCH   1  17
TORSDOF 6
ENDMDL
MODEL 9
REMARK VINA RESULT:    -6.354      3.783      5.450
REMARK INTER + INTRA:          -9.702
REMARK INTER:                  -8.743
REMARK INTRA:                  -0.959
REMARK UNBOUND:                -1.120
REMARK  Name = 
REMARK  6 active torsions:
REMARK  status: ('A' for Active; 'I' for Inactive)
REMARK    1  A    between atoms: C_2  and  C_3
REMARK    2  A    between atoms: C_7  and  C_8
REMARK    3  A    between atoms: C_8  and  C_9
REMARK    4  A    between atoms: C_12  and  C_13
REMARK    5  A    between atoms: C_13  and  N_14
REMARK    6  A    between atoms: C_15  and  C_17
REMARK                            x       y       z     vdW  Elec       q    Type
REMARK                         _______ _______ _______ _____ _____    ______ ____
ROOT
ATOM      1  C   UNL     1      48.758   6.158  16.995  0.00  0.00    +0.000 C 
ENDROOT
BRANCH   1   5
ATOM      2  C   UNL     1      47.395   6.663  12.979  0.00  0.00    +0.000 A 
ATOM      3  C   UNL     1      47.876   7.769  13.682  0.00  0.00    +0.000 A 
ATOM      4  C   UNL     1      48.329   7.616  14.990  0.00  0.00    +0.000 A 
ATOM      5  C   UNL     1      48.273   6.357  15.579  0.00  0.00    +0.000 A 
ATOM      6  N   UNL     1      47.809   5.265  14.917  0.00  0.00    +0.000 NA
ATOM      7  C   UNL     1      47.392   5.441  13.642  0.00  0.00    +0.000 A 
BRANCH   2   8
ATOM      8  C   UNL     1      46.955   6.774  11.545  0.00  0.00    +0.000 C 
BRANCH   8  13
ATOM      9  C   UNL     1      44.447   4.140  10.371  0.00  0.00    +0.000 A 
ATOM     10  C   UNL     1      43.247   4.662  10.864  0.00  0.00    +0.000 A 
ATOM     11  C   UNL     1      43.245   5.875  11.553  0.00  0.00    +0.000 A 
ATOM     12  C   UNL     1      44.438   6.568  11.757  0.00  0.00    +0.000 A 
ATOM     13  C   UNL     1      45.651   6.056  11.273  0.00  0.00    +0.000 A 
ATOM     14  C   UNL     1      45.645   4.837  10.579  0.00  0.00    +0.000 A 
BRANCH   9  16
ATOM     15  N   UNL     1      44.456   1.885   9.088  0.00  0.00    +0.000 NA
ATOM     16  C   UNL     1      44.454   2.896   9.661  0.00  0.00    +0.000 C 
ENDBRANCH   9  16
ENDBRANCH   8  13
ENDBRANCH   2   8
ENDBRANCH   1   5
BRANCH   1  17
ATOM     17  N   UNL     1      50.011   5.442  17.056  0.00  0.00    +0.000 N 
ATOM     18  C   UNL     1      50.752   5.342  18.201  0.00  0.00    +0.000 C 
ATOM     19  O   UNL     1      50.402   5.872  19.253  0.00  0.00    +0.000 OA
ATOM     20  H   UNL     1      50.430   5.210  16.159  0.00  0.00    +0.000 HD
BRANCH  18  21
ATOM     21  C   UNL     1      51.952   4.495  18.132  0.00  0.00    +0.000 A 
ATOM     22  C   UNL     1      53.200   5.047  18.390  0.00  0.00    +0.000 A 
ATOM     23  S   UNL     1      54.474   3.914  18.338  0.00  0.00    +0.000 S 
ATOM     24  C   UNL     1      53.409   2.654  17.923  0.00  0.00    +0.000 A 
ATOM     25  N   UNL     1      53.867   1.390  17.714  0.00  0.00    +0.000 NA
ATOM     26  C   UNL     1      52.957   0.541  17.374  0.00  0.00    +0.000 A 
ATOM     27  N   UNL     1      51.627   0.840  17.228  0.00  0.00    +0.000 N 
ATOM     28  C   UNL     1      51.112   2.089  17.477  0.00  0.00    +0.000 A 
ATOM     29  O   UNL     1      49.906   2.301  17.416  0.00  0.00    +0.000 OA
ATOM     30  C   UNL     1      52.098   3.089  17.840  0.00  0.00    +0.000 A 
ATOM     31  H   UNL     1      50.959   0.127  16.975  0.00  0.00    +0.000 HD
ENDBRANCH  18  21
ENDBRANCH   1  17
TORSDOF 6
ENDMDL
