MODEL 1
REMARK VINA RESULT:    -8.101      0.000      0.000
REMARK INTER + INTRA:         -14.336
REMARK INTER:                 -12.601
REMARK INTRA:                  -1.735
REMARK UNBOUND:                -1.735
REMARK  Name = 
REMARK  10 active torsions:
REMARK  status: ('A' for Active; 'I' for Inactive)
REMARK    1  A    between atoms: N_1  and  C_2
REMARK    2  A    between atoms: C_2  and  C_3
REMARK    3  A    between atoms: C_3  and  N_4
REMARK    4  A    between atoms: N_4  and  C_5
REMARK    5  A    between atoms: N_4  and  C_13
REMARK    6  A    between atoms: C_5  and  C_6
REMARK    7  A    between atoms: C_13  and  C_14
REMARK    8  A    between atoms: C_17  and  C_18
REMARK    9  A    between atoms: C_18  and  N_19
REMARK   10  A    between atoms: C_20  and  C_22
REMARK                            x       y       z     vdW  Elec       q    Type
REMARK                         _______ _______ _______ _____ _____    ______ ____
ROOT
ATOM      1  C   UNL     1      45.066   6.410  11.309  0.00  0.00    +0.000 A 
ATOM      2  C   UNL     1      46.416   6.062  11.275  0.00  0.00    +0.000 A 
ATOM      3  C   UNL     1      47.309   6.749  12.097  0.00  0.00    +0.000 A 
ATOM      4  C   UNL     1      46.845   7.774  12.925  0.00  0.00    +0.000 A 
ATOM      5  C   UNL     1      45.482   8.050  12.890  0.00  0.00    +0.000 A 
ATOM      6  N   UNL     1      44.592   7.401  12.106  0.00  0.00    +0.000 NA
ENDROOT
BRANCH   1   7
ATOM      7  C   UNL     1      44.053   5.666  10.452  0.00  0.00    +0.000 C 
BRANCH   7   8
ATOM      8  N   UNL     1      44.349   4.220  10.219  0.00  0.00    +0.000 NA
BRANCH   8   9
ATOM      9  C   UNL     1      43.401   3.394  11.012  0.00  0.00    +0.000 C 
BRANCH   9  10
ATOM     10  C   UNL     1      43.905   3.005  12.420  0.00  0.00    +0.000 C 
BRANCH  10  11
ATOM     11  N   UNL     1      45.356   2.802  12.448  0.00  0.00    +0.000 NA
ATOM     12  H   UNL     1      45.566   1.994  13.033  0.00  0.00    +0.000 HD
ATOM     13  H   UNL     1      45.800   3.601  12.901  0.00  0.00    +0.000 HD
ENDBRANCH  10  11
ENDBRANCH   9  10
ENDBRANCH   8   9
BRANCH   8  14
ATOM     14  C   UNL     1      44.252   3.901   8.775  0.00  0.00    +0.000 C 
BRANCH  14  15
ATOM     15  C   UNL     1      45.487   3.198   8.243  0.00  0.00    +0.000 A 
ATOM     16  C   UNL     1      46.457   3.915   7.525  0.00  0.00    +0.000 A 
ATOM     17  C   UNL     1      47.486   3.242   6.866  0.00  0.00    +0.000 A 
ATOM     18  C   UNL     1      47.553   1.849   6.918  0.00  0.00    +0.000 A 
ATOM     19  C   UNL     1      46.625   1.139   7.676  0.00  0.00    +0.000 A 
ATOM     20 CL   UNL     1      46.692  -0.580   7.720  0.00  0.00    +0.000 Cl
ATOM     21  C   UNL     1      45.609   1.806   8.358  0.00  0.00    +0.000 A 
ENDBRANCH  14  15
ENDBRANCH   8  14
ENDBRANCH   7   8
ENDBRANCH   1   7
BRANCH   4  22
ATOM     22  C   UNL     1      47.755   8.509  13.861  0.00  0.00    +0.000 C 
BRANCH  22  23
ATOM     23  N   UNL     1      48.058   7.707  15.022  0.00  0.00    +0.000 N 
ATOM     24  C   UNL     1      49.300   7.154  15.207  0.00  0.00    +0.000 C 
ATOM     25  O   UNL     1      50.223   7.358  14.423  0.00  0.00    +0.000 OA
ATOM     26  H   UNL     1      47.270   7.344  15.548  0.00  0.00    +0.000 HD
BRANCH  24  27
ATOM     27  C   UNL     1      49.492   6.358  16.426  0.00  0.00    +0.000 A 
ATOM     28  C   UNL     1      50.486   6.709  17.328  0.00  0.00    +0.000 A 
ATOM     29  S   UNL     1      50.536   5.720  18.715  0.00  0.00    +0.000 S 
ATOM     30  C   UNL     1      49.258   4.753  18.141  0.00  0.00    +0.000 A 
ATOM     31  N   UNL     1      48.804   3.687  18.857  0.00  0.00    +0.000 NA
ATOM     32  C   UNL     1      47.848   3.029  18.293  0.00  0.00    +0.000 A 
ATOM     33  N   UNL     1      47.304   3.340  17.071  0.00  0.00    +0.000 N 
ATOM     34  C   UNL     1      47.723   4.415  16.318  0.00  0.00    +0.000 A 
ATOM     35  O   UNL     1      47.203   4.672  15.235  0.00  0.00    +0.000 OA
ATOM     36  C   UNL     1      48.794   5.191  16.912  0.00  0.00    +0.000 A 
ATOM     37  H   UNL     1      46.555   2.789  16.686  0.00  0.00    +0.000 HD
ENDBRANCH  24  27
ENDBRANCH  22  23
ENDBRANCH   4  22
TORSDOF 10
ENDMDL
MODEL 2
REMARK VINA RESULT:    -7.337      2.016      2.261
REMARK INTER + INTRA:         -13.147
REMARK INTER:                 -12.173
REMARK INTRA:                  -0.973
REMARK UNBOUND:                -1.735
REMARK  Name = 
REMARK  10 active torsions:
REMARK  status: ('A' for Active; 'I' for Inactive)
REMARK    1  A    between atoms: N_1  and  C_2
REMARK    2  A    between atoms: C_2  and  C_3
REMARK    3  A    between atoms: C_3  and  N_4
REMARK    4  A    between atoms: N_4  and  C_5
REMARK    5  A    between atoms: N_4  and  C_13
REMARK    6  A    between atoms: C_5  and  C_6
REMARK    7  A    between atoms: C_13  and  C_14
REMARK    8  A    between atoms: C_17  and  C_18
REMARK    9  A    between atoms: C_18  and  N_19
REMARK   10  A    between atoms: C_20  and  C_22
REMARK                            x       y       z     vdW  Elec       q    Type
REMARK                         _______ _______ _______ _____ _____    ______ ____
ROOT
ATOM      1  C   UNL     1      46.457   5.936  11.926  0.00  0.00    +0.000 A 
ATOM      2  C   UNL     1      46.813   7.283  11.976  0.00  0.00    +0.000 A 
ATOM      3  C   UNL     1      47.430   7.775  13.126  0.00  0.00    +0.000 A 
ATOM      4  C   UNL     1      47.669   6.922  14.206  0.00  0.00    +0.000 A 
ATOM      5  C   UNL     1      47.279   5.595  14.064  0.00  0.00    +0.000 A 
ATOM      6  N   UNL     1      46.681   5.088  12.962  0.00  0.00    +0.000 NA
ENDROOT
BRANCH   1   7
ATOM      7  C   UNL     1      45.811   5.351  10.680  0.00  0.00    +0.000 C 
BRANCH   7   8
ATOM      8  N   UNL     1      44.585   4.532  10.918  0.00  0.00    +0.000 NA
BRANCH   8   9
ATOM      9  C   UNL     1      43.533   5.390  11.522  0.00  0.00    +0.000 C 
BRANCH   9  10
ATOM     10  C   UNL     1      43.061   4.943  12.924  0.00  0.00    +0.000 C 
BRANCH  10  11
ATOM     11  N   UNL     1      43.695   3.690  13.343  0.00  0.00    +0.000 NA
ATOM     12  H   UNL     1      44.356   3.397  12.625  0.00  0.00    +0.000 HD
ATOM     13  H   UNL     1      42.989   2.955  13.393  0.00  0.00    +0.000 HD
ENDBRANCH  10  11
ENDBRANCH   9  10
ENDBRANCH   8   9
BRANCH   8  14
ATOM     14  C   UNL     1      44.114   3.929   9.648  0.00  0.00    +0.000 C 
BRANCH  14  15
ATOM     15  C   UNL     1      45.247   3.393   8.794  0.00  0.00    +0.000 A 
ATOM     16  C   UNL     1      45.933   4.241   7.911  0.00  0.00    +0.000 A 
ATOM     17  C   UNL     1      46.834   3.715   6.985  0.00  0.00    +0.000 A 
ATOM     18  C   UNL     1      47.056   2.338   6.934  0.00  0.00    +0.000 A 
ATOM     19  C   UNL     1      46.420   1.500   7.847  0.00  0.00    +0.000 A 
ATOM     20 CL   UNL     1      46.673  -0.200   7.769  0.00  0.00    +0.000 Cl
ATOM     21  C   UNL     1      45.538   2.020   8.792  0.00  0.00    +0.000 A 
ENDBRANCH  14  15
ENDBRANCH   8  14
ENDBRANCH   7   8
ENDBRANCH   1   7
BRANCH   4  22
ATOM     22  C   UNL     1      48.372   7.390  15.444  0.00  0.00    +0.000 C 
BRANCH  22  23
ATOM     23  N   UNL     1      49.409   6.464  15.830  0.00  0.00    +0.000 N 
ATOM     24  C   UNL     1      49.798   6.327  17.138  0.00  0.00    +0.000 C 
ATOM     25  O   UNL     1      49.247   6.944  18.046  0.00  0.00    +0.000 OA
ATOM     26  H   UNL     1      50.020   6.125  15.092  0.00  0.00    +0.000 HD
BRANCH  24  27
ATOM     27  C   UNL     1      50.863   5.353  17.410  0.00  0.00    +0.000 A 
ATOM     28  C   UNL     1      52.121   5.796  17.792  0.00  0.00    +0.000 A 
ATOM     29  S   UNL     1      53.221   4.539  18.125  0.00  0.00    +0.000 S 
ATOM     30  C   UNL     1      52.070   3.350  17.727  0.00  0.00    +0.000 A 
ATOM     31  N   UNL     1      52.378   2.024  17.782  0.00  0.00    +0.000 NA
ATOM     32  C   UNL     1      51.420   1.235  17.431  0.00  0.00    +0.000 A 
ATOM     33  N   UNL     1      50.176   1.652  17.025  0.00  0.00    +0.000 N 
ATOM     34  C   UNL     1      49.817   2.981  16.965  0.00  0.00    +0.000 A 
ATOM     35  O   UNL     1      48.690   3.318  16.613  0.00  0.00    +0.000 OA
ATOM     36  C   UNL     1      50.860   3.910  17.357  0.00  0.00    +0.000 A 
ATOM     37  H   UNL     1      49.468   0.986  16.768  0.00  0.00    +0.000 HD
ENDBRANCH  24  27
ENDBRANCH  22  23
ENDBRANCH   4  22
TORSDOF 10
ENDMDL
MODEL 3
REMARK VINA RESULT:    -6.694      3.533      8.557
REMARK INTER + INTRA:         -12.147
REMARK INTER:                 -10.323
REMARK INTRA:                  -1.825
REMARK UNBOUND:                -1.735
REMARK  Name = 
REMARK  10 active torsions:
REMARK  status: ('A' for Active; 'I' for Inactive)
REMARK    1  A    between atoms: N_1  and  C_2
REMARK    2  A    between atoms: C_2  and  C_3
REMARK    3  A    between atoms: C_3  and  N_4
REMARK    4  A    between atoms: N_4  and  C_5
REMARK    5  A    between atoms: N_4  and  C_13
REMARK    6  A    between atoms: C_5  and  C_6
REMARK    7  A    between atoms: C_13  and  C_14
REMARK    8  A    between atoms: C_17  and  C_18
REMARK    9  A    between atoms: C_18  and  N_19
REMARK   10  A    between atoms: C_20  and  C_22
REMARK                            x       y       z     vdW  Elec       q    Type
REMARK                         _______ _______ _______ _____ _____    ______ ____
ROOT
ATOM      1  C   UNL     1      49.317   7.980  15.685  0.00  0.00    +0.000 A 
ATOM      2  C   UNL     1      48.318   8.907  15.394  0.00  0.00    +0.000 A 
ATOM      3  C   UNL     1      47.748   8.908  14.121  0.00  0.00    +0.000 A 
ATOM      4  C   UNL     1      48.193   7.996  13.160  0.00  0.00    +0.000 A 
ATOM      5  C   UNL     1      49.193   7.109  13.542  0.00  0.00    +0.000 A 
ATOM      6  N   UNL     1      49.763   7.083  14.769  0.00  0.00    +0.000 NA
ENDROOT
BRANCH   1   7
ATOM      7  C   UNL     1      49.942   7.924  17.070  0.00  0.00    +0.000 C 
BRANCH   7   8
ATOM      8  N   UNL     1      51.022   6.906  17.245  0.00  0.00    +0.000 NA
BRANCH   8   9
ATOM      9  C   UNL     1      52.286   7.594  17.615  0.00  0.00    +0.000 C 
BRANCH   9  10
ATOM     10  C   UNL     1      53.190   7.969  16.419  0.00  0.00    +0.000 C 
BRANCH  10  11
ATOM     11  N   UNL     1      52.974   7.088  15.268  0.00  0.00    +0.000 NA
ATOM     12  H   UNL     1      52.879   6.129  15.599  0.00  0.00    +0.000 HD
ATOM     13  H   UNL     1      53.803   7.100  14.674  0.00  0.00    +0.000 HD
ENDBRANCH  10  11
ENDBRANCH   9  10
ENDBRANCH   8   9
BRANCH   8  14
ATOM     14  C   UNL     1      50.634   5.917  18.279  0.00  0.00    +0.000 C 
BRANCH  14  15
ATOM     15  C   UNL     1      50.244   4.574  17.692  0.00  0.00    +0.000 A 
ATOM     16  C   UNL     1      48.921   4.331  17.295  0.00  0.00    +0.000 A 
ATOM     17  C   UNL     1      48.515   3.043  16.944  0.00  0.00    +0.000 A 
ATOM     18  C   UNL     1      49.428   1.988  16.989  0.00  0.00    +0.000 A 
ATOM     19  C   UNL     1      50.756   2.237  17.329  0.00  0.00    +0.000 A 
ATOM     20 CL   UNL     1      51.876   0.933  17.409  0.00  0.00    +0.000 Cl
ATOM     21  C   UNL     1      51.175   3.524  17.655  0.00  0.00    +0.000 A 
ENDBRANCH  14  15
ENDBRANCH   8  14
ENDBRANCH   7   8
ENDBRANCH   1   7
BRANCH   4  22
ATOM     22  C   UNL     1      47.581   7.924  11.794  0.00  0.00    +0.000 C 
BRANCH  22  23
ATOM     23  N   UNL     1      46.899   6.667  11.600  0.00  0.00    +0.000 N 
ATOM     24  C   UNL     1      45.536   6.564  11.725  0.00  0.00    +0.000 C 
ATOM     25  O   UNL     1      44.831   7.543  11.954  0.00  0.00    +0.000 OA
ATOM     26  H   UNL     1      47.466   5.826  11.638  0.00  0.00    +0.000 HD
BRANCH  24  27
ATOM     27  C   UNL     1      44.953   5.234  11.503  0.00  0.00    +0.000 A 
ATOM     28  C   UNL     1      44.271   4.601  12.532  0.00  0.00    +0.000 A 
ATOM     29  S   UNL     1      43.608   3.094  12.092  0.00  0.00    +0.000 S 
ATOM     30  C   UNL     1      44.248   3.208  10.518  0.00  0.00    +0.000 A 
ATOM     31  N   UNL     1      44.059   2.214   9.608  0.00  0.00    +0.000 NA
ATOM     32  C   UNL     1      44.619   2.420   8.463  0.00  0.00    +0.000 A 
ATOM     33  N   UNL     1      45.356   3.535   8.146  0.00  0.00    +0.000 N 
ATOM     34  C   UNL     1      45.562   4.571   9.032  0.00  0.00    +0.000 A 
ATOM     35  O   UNL     1      46.213   5.561   8.709  0.00  0.00    +0.000 OA
ATOM     36  C   UNL     1      44.947   4.388  10.333  0.00  0.00    +0.000 A 
ATOM     37  H   UNL     1      45.763   3.640   7.233  0.00  0.00    +0.000 HD
ENDBRANCH  24  27
ENDBRANCH  22  23
ENDBRANCH   4  22
TORSDOF 10
ENDMDL
MODEL 4
REMARK VINA RESULT:    -6.509      3.475      8.501
REMARK INTER + INTRA:         -11.859
REMARK INTER:                 -10.084
REMARK INTRA:                  -1.775
REMARK UNBOUND:                -1.735
REMARK  Name = 
REMARK  10 active torsions:
REMARK  status: ('A' for Active; 'I' for Inactive)
REMARK    1  A    between atoms: N_1  and  C_2
REMARK    2  A    between atoms: C_2  and  C_3
REMARK    3  A    between atoms: C_3  and  N_4
REMARK    4  A    between atoms: N_4  and  C_5
REMARK    5  A    between atoms: N_4  and  C_13
REMARK    6  A    between atoms: C_5  and  C_6
REMARK    7  A    between atoms: C_13  and  C_14
REMARK    8  A    between atoms: C_17  and  C_18
REMARK    9  A    between atoms: C_18  and  N_19
REMARK   10  A    between atoms: C_20  and  C_22
REMARK                            x       y       z     vdW  Elec       q    Type
REMARK                         _______ _______ _______ _____ _____    ______ ____
ROOT
ATOM      1  C   UNL     1      49.362   8.266  15.784  0.00  0.00    +0.000 A 
ATOM      2  C   UNL     1      49.959   7.386  14.883  0.00  0.00    +0.000 A 
ATOM      3  C   UNL     1      49.408   7.247  13.610  0.00  0.00    +0.000 A 
ATOM      4  C   UNL     1      48.268   7.976  13.263  0.00  0.00    +0.000 A 
ATOM      5  C   UNL     1      47.743   8.830  14.227  0.00  0.00    +0.000 A 
ATOM      6  N   UNL     1      48.256   8.987  15.468  0.00  0.00    +0.000 NA
ENDROOT
BRANCH   1   7
ATOM      7  C   UNL     1      49.949   8.471  17.172  0.00  0.00    +0.000 C 
BRANCH   7   8
ATOM      8  N   UNL     1      50.288   7.221  17.915  0.00  0.00    +0.000 NA
BRANCH   8   9
ATOM      9  C   UNL     1      51.152   7.561  19.076  0.00  0.00    +0.000 C 
BRANCH   9  10
ATOM     10  C   UNL     1      50.478   7.385  20.455  0.00  0.00    +0.000 C 
BRANCH  10  11
ATOM     11  N   UNL     1      50.051   8.665  21.026  0.00  0.00    +0.000 NA
ATOM     12  H   UNL     1      50.386   9.421  20.431  0.00  0.00    +0.000 HD
ATOM     13  H   UNL     1      50.502   8.797  21.931  0.00  0.00    +0.000 HD
ENDBRANCH  10  11
ENDBRANCH   9  10
ENDBRANCH   8   9
BRANCH   8  14
ATOM     14  C   UNL     1      49.052   6.533  18.358  0.00  0.00    +0.000 C 
BRANCH  14  15
ATOM     15  C   UNL     1      48.878   5.167  17.723  0.00  0.00    +0.000 A 
ATOM     16  C   UNL     1      47.608   4.732  17.312  0.00  0.00    +0.000 A 
ATOM     17  C   UNL     1      47.411   3.409  16.915  0.00  0.00    +0.000 A 
ATOM     18  C   UNL     1      48.479   2.511  16.927  0.00  0.00    +0.000 A 
ATOM     19  C   UNL     1      49.751   2.954  17.280  0.00  0.00    +0.000 A 
ATOM     20 CL   UNL     1      51.064   1.842  17.319  0.00  0.00    +0.000 Cl
ATOM     21  C   UNL     1      49.962   4.280  17.653  0.00  0.00    +0.000 A 
ENDBRANCH  14  15
ENDBRANCH   8  14
ENDBRANCH   7   8
ENDBRANCH   1   7
BRANCH   4  22
ATOM     22  C   UNL     1      47.665   7.900  11.892  0.00  0.00    +0.000 C 
BRANCH  22  23
ATOM     23  N   UNL     1      46.968   6.651  11.705  0.00  0.00    +0.000 N 
ATOM     24  C   UNL     1      45.602   6.569  11.810  0.00  0.00    +0.000 C 
ATOM     25  O   UNL     1      44.908   7.561  12.015  0.00  0.00    +0.000 OA
ATOM     26  H   UNL     1      47.521   5.802  11.763  0.00  0.00    +0.000 HD
BRANCH  24  27
ATOM     27  C   UNL     1      45.003   5.245  11.597  0.00  0.00    +0.000 A 
ATOM     28  C   UNL     1      44.330   4.618  12.636  0.00  0.00    +0.000 A 
ATOM     29  S   UNL     1      43.646   3.118  12.206  0.00  0.00    +0.000 S 
ATOM     30  C   UNL     1      44.263   3.227  10.623  0.00  0.00    +0.000 A 
ATOM     31  N   UNL     1      44.051   2.234   9.715  0.00  0.00    +0.000 NA
ATOM     32  C   UNL     1      44.595   2.435   8.563  0.00  0.00    +0.000 A 
ATOM     33  N   UNL     1      45.338   3.543   8.235  0.00  0.00    +0.000 N 
ATOM     34  C   UNL     1      45.567   4.576   9.117  0.00  0.00    +0.000 A 
ATOM     35  O   UNL     1      46.223   5.560   8.784  0.00  0.00    +0.000 OA
ATOM     36  C   UNL     1      44.971   4.400  10.427  0.00  0.00    +0.000 A 
ATOM     37  H   UNL     1      45.733   3.644   7.315  0.00  0.00    +0.000 HD
ENDBRANCH  24  27
ENDBRANCH  22  23
ENDBRANCH   4  22
TORSDOF 10
ENDMDL
MODEL 5
REMARK VINA RESULT:    -6.328      3.921      8.475
REMARK INTER + INTRA:         -11.577
REMARK INTER:                 -10.093
REMARK INTRA:                  -1.485
REMARK UNBOUND:                -1.735
REMARK  Name = 
REMARK  10 active torsions:
REMARK  status: ('A' for Active; 'I' for Inactive)
REMARK    1  A    between atoms: N_1  and  C_2
REMARK    2  A    between atoms: C_2  and  C_3
REMARK    3  A    between atoms: C_3  and  N_4
REMARK    4  A    between atoms: N_4  and  C_5
REMARK    5  A    between atoms: N_4  and  C_13
REMARK    6  A    between atoms: C_5  and  C_6
REMARK    7  A    between atoms: C_13  and  C_14
REMARK    8  A    between atoms: C_17  and  C_18
REMARK    9  A    between atoms: C_18  and  N_19
REMARK   10  A    between atoms: C_20  and  C_22
REMARK                            x       y       z     vdW  Elec       q    Type
REMARK                         _______ _______ _______ _____ _____    ______ ____
ROOT
ATOM      1  C   UNL     1      50.195   7.030  15.722  0.00  0.00    +0.000 A 
ATOM      2  C   UNL     1      48.870   6.661  15.495  0.00  0.00    +0.000 A 
ATOM      3  C   UNL     1      48.274   7.003  14.282  0.00  0.00    +0.000 A 
ATOM      4  C   UNL     1      49.001   7.715  13.326  0.00  0.00    +0.000 A 
ATOM      5  C   UNL     1      50.316   8.039  13.641  0.00  0.00    +0.000 A 
ATOM      6  N   UNL     1      50.923   7.720  14.807  0.00  0.00    +0.000 NA
ENDROOT
BRANCH   1   7
ATOM      7  C   UNL     1      50.894   6.651  17.019  0.00  0.00    +0.000 C 
BRANCH   7   8
ATOM      8  N   UNL     1      51.882   5.535  16.911  0.00  0.00    +0.000 NA
BRANCH   8   9
ATOM      9  C   UNL     1      53.251   6.072  17.130  0.00  0.00    +0.000 C 
BRANCH   9  10
ATOM     10  C   UNL     1      54.195   5.945  15.913  0.00  0.00    +0.000 C 
BRANCH  10  11
ATOM     11  N   UNL     1      53.822   6.859  14.830  0.00  0.00    +0.000 NA
ATOM     12  H   UNL     1      53.036   7.431  15.136  0.00  0.00    +0.000 HD
ATOM     13  H   UNL     1      53.484   6.318  14.034  0.00  0.00    +0.000 HD
ENDBRANCH  10  11
ENDBRANCH   9  10
ENDBRANCH   8   9
BRANCH   8  14
ATOM     14  C   UNL     1      51.566   4.471  17.895  0.00  0.00    +0.000 C 
BRANCH  14  15
ATOM     15  C   UNL     1      50.111   4.045  17.855  0.00  0.00    +0.000 A 
ATOM     16  C   UNL     1      49.710   2.962  17.058  0.00  0.00    +0.000 A 
ATOM     17  C   UNL     1      48.355   2.694  16.861  0.00  0.00    +0.000 A 
ATOM     18  C   UNL     1      47.390   3.507  17.460  0.00  0.00    +0.000 A 
ATOM     19  C   UNL     1      47.785   4.548  18.297  0.00  0.00    +0.000 A 
ATOM     20 CL   UNL     1      46.598   5.565  19.015  0.00  0.00    +0.000 Cl
ATOM     21  C   UNL     1      49.136   4.806  18.518  0.00  0.00    +0.000 A 
ENDBRANCH  14  15
ENDBRANCH   8  14
ENDBRANCH   7   8
ENDBRANCH   1   7
BRANCH   4  22
ATOM     22  C   UNL     1      48.422   8.064  11.988  0.00  0.00    +0.000 C 
BRANCH  22  23
ATOM     23  N   UNL     1      47.696   6.948  11.433  0.00  0.00    +0.000 N 
ATOM     24  C   UNL     1      46.326   6.953  11.353  0.00  0.00    +0.000 C 
ATOM     25  O   UNL     1      45.660   7.925  11.698  0.00  0.00    +0.000 OA
ATOM     26  H   UNL     1      48.194   6.066  11.359  0.00  0.00    +0.000 HD
BRANCH  24  27
ATOM     27  C   UNL     1      45.696   5.761  10.768  0.00  0.00    +0.000 A 
ATOM     28  C   UNL     1      45.856   5.491   9.416  0.00  0.00    +0.000 A 
ATOM     29  S   UNL     1      45.112   4.044   8.912  0.00  0.00    +0.000 S 
ATOM     30  C   UNL     1      44.507   3.744  10.475  0.00  0.00    +0.000 A 
ATOM     31  N   UNL     1      43.746   2.645  10.737  0.00  0.00    +0.000 NA
ATOM     32  C   UNL     1      43.335   2.555  11.957  0.00  0.00    +0.000 A 
ATOM     33  N   UNL     1      43.614   3.470  12.943  0.00  0.00    +0.000 N 
ATOM     34  C   UNL     1      44.389   4.589  12.726  0.00  0.00    +0.000 A 
ATOM     35  O   UNL     1      44.631   5.378  13.635  0.00  0.00    +0.000 OA
ATOM     36  C   UNL     1      44.881   4.732  11.369  0.00  0.00    +0.000 A 
ATOM     37  H   UNL     1      43.267   3.341  13.877  0.00  0.00    +0.000 HD
ENDBRANCH  24  27
ENDBRANCH  22  23
ENDBRANCH   4  22
TORSDOF 10
ENDMDL
MODEL 6
REMARK VINA RESULT:    -6.322      1.735      2.241
REMARK INTER + INTRA:         -11.568
REMARK INTER:                 -11.324
REMARK INTRA:                  -0.245
REMARK UNBOUND:                -1.735
REMARK  Name = 
REMARK  10 active torsions:
REMARK  status: ('A' for Active; 'I' for Inactive)
REMARK    1  A    between atoms: N_1  and  C_2
REMARK    2  A    between atoms: C_2  and  C_3
REMARK    3  A    between atoms: C_3  and  N_4
REMARK    4  A    between atoms: N_4  and  C_5
REMARK    5  A    between atoms: N_4  and  C_13
REMARK    6  A    between atoms: C_5  and  C_6
REMARK    7  A    between atoms: C_13  and  C_14
REMARK    8  A    between atoms: C_17  and  C_18
REMARK    9  A    between atoms: C_18  and  N_19
REMARK   10  A    between atoms: C_20  and  C_22
REMARK                            x       y       z     vdW  Elec       q    Type
REMARK                         _______ _______ _______ _____ _____    ______ ____
ROOT
ATOM      1  C   UNL     1      45.887   4.911  11.842  0.00  0.00    +0.000 A 
ATOM      2  C   UNL     1      46.312   6.006  11.090  0.00  0.00    +0.000 A 
ATOM      3  C   UNL     1      46.904   7.085  11.746  0.00  0.00    +0.000 A 
ATOM      4  C   UNL     1      47.049   7.059  13.135  0.00  0.00    +0.000 A 
ATOM      5  C   UNL     1      46.596   5.925  13.800  0.00  0.00    +0.000 A 
ATOM      6  N   UNL     1      46.020   4.863  13.192  0.00  0.00    +0.000 NA
ENDROOT
BRANCH   1   7
ATOM      7  C   UNL     1      45.265   3.700  11.163  0.00  0.00    +0.000 C 
BRANCH   7   8
ATOM      8  N   UNL     1      44.100   3.991  10.275  0.00  0.00    +0.000 NA
BRANCH   8   9
ATOM      9  C   UNL     1      43.306   5.104  10.858  0.00  0.00    +0.000 C 
BRANCH   9  10
ATOM     10  C   UNL     1      42.566   4.751  12.168  0.00  0.00    +0.000 C 
BRANCH  10  11
ATOM     11  N   UNL     1      42.886   5.685  13.250  0.00  0.00    +0.000 NA
ATOM     12  H   UNL     1      43.889   5.654  13.428  0.00  0.00    +0.000 HD
ATOM     13  H   UNL     1      42.438   5.370  14.111  0.00  0.00    +0.000 HD
ENDBRANCH  10  11
ENDBRANCH   9  10
ENDBRANCH   8   9
BRANCH   8  14
ATOM     14  C   UNL     1      44.566   4.331   8.909  0.00  0.00    +0.000 C 
BRANCH  14  15
ATOM     15  C   UNL     1      45.268   3.176   8.222  0.00  0.00    +0.000 A 
ATOM     16  C   UNL     1      45.278   1.901   8.808  0.00  0.00    +0.000 A 
ATOM     17  C   UNL     1      46.085   0.890   8.286  0.00  0.00    +0.000 A 
ATOM     18  C   UNL     1      46.889   1.146   7.174  0.00  0.00    +0.000 A 
ATOM     19  C   UNL     1      46.840   2.393   6.556  0.00  0.00    +0.000 A 
ATOM     20 CL   UNL     1      47.850   2.717   5.201  0.00  0.00    +0.000 Cl
ATOM     21  C   UNL     1      46.017   3.399   7.056  0.00  0.00    +0.000 A 
ENDBRANCH  14  15
ENDBRANCH   8  14
ENDBRANCH   7   8
ENDBRANCH   1   7
BRANCH   4  22
ATOM     22  C   UNL     1      47.721   8.171  13.882  0.00  0.00    +0.000 C 
BRANCH  22  23
ATOM     23  N   UNL     1      48.781   7.664  14.720  0.00  0.00    +0.000 N 
ATOM     24  C   UNL     1      48.936   8.088  16.016  0.00  0.00    +0.000 C 
ATOM     25  O   UNL     1      48.152   8.875  16.538  0.00  0.00    +0.000 OA
ATOM     26  H   UNL     1      49.555   7.202  14.253  0.00  0.00    +0.000 HD
BRANCH  24  27
ATOM     27  C   UNL     1      50.050   7.500  16.772  0.00  0.00    +0.000 A 
ATOM     28  C   UNL     1      51.096   8.307  17.196  0.00  0.00    +0.000 A 
ATOM     29  S   UNL     1      52.274   7.481  18.109  0.00  0.00    +0.000 S 
ATOM     30  C   UNL     1      51.454   6.000  17.934  0.00  0.00    +0.000 A 
ATOM     31  N   UNL     1      51.948   4.852  18.474  0.00  0.00    +0.000 NA
ATOM     32  C   UNL     1      51.237   3.800  18.244  0.00  0.00    +0.000 A 
ATOM     33  N   UNL     1      50.073   3.790  17.516  0.00  0.00    +0.000 N 
ATOM     34  C   UNL     1      49.530   4.929  16.961  0.00  0.00    +0.000 A 
ATOM     35  O   UNL     1      48.477   4.886  16.330  0.00  0.00    +0.000 OA
ATOM     36  C   UNL     1      50.290   6.141  17.197  0.00  0.00    +0.000 A 
ATOM     37  H   UNL     1      49.561   2.937  17.376  0.00  0.00    +0.000 HD
ENDBRANCH  24  27
ENDBRANCH  22  23
ENDBRANCH   4  22
TORSDOF 10
ENDMDL
MODEL 7
REMARK VINA RESULT:    -6.119      4.236      9.601
REMARK INTER + INTRA:         -11.252
REMARK INTER:                  -9.580
REMARK INTRA:                  -1.672
REMARK UNBOUND:                -1.735
REMARK  Name = 
REMARK  10 active torsions:
REMARK  status: ('A' for Active; 'I' for Inactive)
REMARK    1  A    between atoms: N_1  and  C_2
REMARK    2  A    between atoms: C_2  and  C_3
REMARK    3  A    between atoms: C_3  and  N_4
REMARK    4  A    between atoms: N_4  and  C_5
REMARK    5  A    between atoms: N_4  and  C_13
REMARK    6  A    between atoms: C_5  and  C_6
REMARK    7  A    between atoms: C_13  and  C_14
REMARK    8  A    between atoms: C_17  and  C_18
REMARK    9  A    between atoms: C_18  and  N_19
REMARK   10  A    between atoms: C_20  and  C_22
REMARK                            x       y       z     vdW  Elec       q    Type
REMARK                         _______ _______ _______ _____ _____    ______ ____
ROOT
ATOM      1  C   UNL     1      51.304   2.801  17.539  0.00  0.00    +0.000 A 
ATOM      2  C   UNL     1      50.697   3.968  17.999  0.00  0.00    +0.000 A 
ATOM      3  C   UNL     1      49.337   4.160  17.759  0.00  0.00    +0.000 A 
ATOM      4  C   UNL     1      48.612   3.195  17.055  0.00  0.00    +0.000 A 
ATOM      5  C   UNL     1      49.303   2.064  16.636  0.00  0.00    +0.000 A 
ATOM      6  N   UNL     1      50.620   1.848  16.856  0.00  0.00    +0.000 NA
ENDROOT
BRANCH   1   7
ATOM      7  C   UNL     1      52.778   2.537  17.807  0.00  0.00    +0.000 C 
BRANCH   7   8
ATOM      8  N   UNL     1      53.499   3.617  18.545  0.00  0.00    +0.000 NA
BRANCH   8   9
ATOM      9  C   UNL     1      54.356   3.004  19.593  0.00  0.00    +0.000 C 
BRANCH   9  10
ATOM     10  C   UNL     1      53.921   3.313  21.044  0.00  0.00    +0.000 C 
BRANCH  10  11
ATOM     11  N   UNL     1      52.667   4.069  21.093  0.00  0.00    +0.000 NA
ATOM     12  H   UNL     1      52.876   5.063  21.000  0.00  0.00    +0.000 HD
ATOM     13  H   UNL     1      52.241   3.956  22.013  0.00  0.00    +0.000 HD
ENDBRANCH  10  11
ENDBRANCH   9  10
ENDBRANCH   8   9
BRANCH   8  14
ATOM     14  C   UNL     1      54.309   4.430  17.607  0.00  0.00    +0.000 C 
BRANCH  14  15
ATOM     15  C   UNL     1      53.807   5.856  17.479  0.00  0.00    +0.000 A 
ATOM     16  C   UNL     1      53.865   6.730  18.576  0.00  0.00    +0.000 A 
ATOM     17  C   UNL     1      53.227   7.969  18.525  0.00  0.00    +0.000 A 
ATOM     18  C   UNL     1      52.525   8.345  17.378  0.00  0.00    +0.000 A 
ATOM     19  C   UNL     1      52.513   7.504  16.267  0.00  0.00    +0.000 A 
ATOM     20 CL   UNL     1      51.628   7.954  14.862  0.00  0.00    +0.000 Cl
ATOM     21  C   UNL     1      53.170   6.276  16.302  0.00  0.00    +0.000 A 
ENDBRANCH  14  15
ENDBRANCH   8  14
ENDBRANCH   7   8
ENDBRANCH   1   7
BRANCH   4  22
ATOM     22  C   UNL     1      47.139   3.332  16.813  0.00  0.00    +0.000 C 
BRANCH  22  23
ATOM     23  N   UNL     1      46.867   4.385  15.865  0.00  0.00    +0.000 N 
ATOM     24  C   UNL     1      46.948   4.172  14.512  0.00  0.00    +0.000 C 
ATOM     25  O   UNL     1      47.202   3.065  14.046  0.00  0.00    +0.000 OA
ATOM     26  H   UNL     1      46.883   5.337  16.219  0.00  0.00    +0.000 HD
BRANCH  24  27
ATOM     27  C   UNL     1      46.648   5.319  13.645  0.00  0.00    +0.000 A 
ATOM     28  C   UNL     1      47.622   6.279  13.412  0.00  0.00    +0.000 A 
ATOM     29  S   UNL     1      47.132   7.509  12.340  0.00  0.00    +0.000 S 
ATOM     30  C   UNL     1      45.580   6.829  12.180  0.00  0.00    +0.000 A 
ATOM     31  N   UNL     1      44.631   7.415  11.399  0.00  0.00    +0.000 NA
ATOM     32  C   UNL     1      43.493   6.808  11.389  0.00  0.00    +0.000 A 
ATOM     33  N   UNL     1      43.214   5.663  12.095  0.00  0.00    +0.000 N 
ATOM     34  C   UNL     1      44.146   5.030  12.889  0.00  0.00    +0.000 A 
ATOM     35  O   UNL     1      43.867   3.999  13.494  0.00  0.00    +0.000 OA
ATOM     36  C   UNL     1      45.446   5.673  12.929  0.00  0.00    +0.000 A 
ATOM     37  H   UNL     1      42.307   5.234  12.042  0.00  0.00    +0.000 HD
ENDBRANCH  24  27
ENDBRANCH  22  23
ENDBRANCH   4  22
TORSDOF 10
ENDMDL
MODEL 8
REMARK VINA RESULT:    -6.020      4.141      8.741
REMARK INTER + INTRA:         -11.098
REMARK INTER:                  -9.868
REMARK INTRA:                  -1.230
REMARK UNBOUND:                -1.735
REMARK  Name = 
REMARK  10 active torsions:
REMARK  status: ('A' for Active; 'I' for Inactive)
REMARK    1  A    between atoms: N_1  and  C_2
REMARK    2  A    between atoms: C_2  and  C_3
REMARK    3  A    between atoms: C_3  and  N_4
REMARK    4  A    between atoms: N_4  and  C_5
REMARK    5  A    between atoms: N_4  and  C_13
REMARK    6  A    between atoms: C_5  and  C_6
REMARK    7  A    between atoms: C_13  and  C_14
REMARK    8  A    between atoms: C_17  and  C_18
REMARK    9  A    between atoms: C_18  and  N_19
REMARK   10  A    between atoms: C_20  and  C_22
REMARK                            x       y       z     vdW  Elec       q    Type
REMARK                         _______ _______ _______ _____ _____    ______ ____
ROOT
ATOM      1  C   UNL     1      50.081   7.194  15.744  0.00  0.00    +0.000 A 
ATOM      2  C   UNL     1      48.812   6.687  15.471  0.00  0.00    +0.000 A 
ATOM      3  C   UNL     1      48.212   6.993  14.250  0.00  0.00    +0.000 A 
ATOM      4  C   UNL     1      48.881   7.806  13.332  0.00  0.00    +0.000 A 
ATOM      5  C   UNL     1      50.143   8.265  13.691  0.00  0.00    +0.000 A 
ATOM      6  N   UNL     1      50.751   7.984  14.866  0.00  0.00    +0.000 NA
ENDROOT
BRANCH   1   7
ATOM      7  C   UNL     1      50.785   6.860  17.050  0.00  0.00    +0.000 C 
BRANCH   7   8
ATOM      8  N   UNL     1      52.007   6.012  16.921  0.00  0.00    +0.000 NA
BRANCH   8   9
ATOM      9  C   UNL     1      53.192   6.888  16.726  0.00  0.00    +0.000 C 
BRANCH   9  10
ATOM     10  C   UNL     1      54.152   6.433  15.604  0.00  0.00    +0.000 C 
BRANCH  10  11
ATOM     11  N   UNL     1      53.822   7.045  14.315  0.00  0.00    +0.000 NA
ATOM     12  H   UNL     1      54.191   6.461  13.566  0.00  0.00    +0.000 HD
ATOM     13  H   UNL     1      54.302   7.942  14.235  0.00  0.00    +0.000 HD
ENDBRANCH  10  11
ENDBRANCH   9  10
ENDBRANCH   8   9
BRANCH   8  14
ATOM     14  C   UNL     1      52.171   5.158  18.123  0.00  0.00    +0.000 C 
BRANCH  14  15
ATOM     15  C   UNL     1      52.103   3.677  17.807  0.00  0.00    +0.000 A 
ATOM     16  C   UNL     1      50.895   3.093  17.396  0.00  0.00    +0.000 A 
ATOM     17  C   UNL     1      50.778   1.707  17.299  0.00  0.00    +0.000 A 
ATOM     18  C   UNL     1      51.868   0.892  17.611  0.00  0.00    +0.000 A 
ATOM     19  C   UNL     1      53.085   1.470  17.964  0.00  0.00    +0.000 A 
ATOM     20 CL   UNL     1      54.422   0.467  18.374  0.00  0.00    +0.000 Cl
ATOM     21  C   UNL     1      53.217   2.855  18.039  0.00  0.00    +0.000 A 
ENDBRANCH  14  15
ENDBRANCH   8  14
ENDBRANCH   7   8
ENDBRANCH   1   7
BRANCH   4  22
ATOM     22  C   UNL     1      48.301   8.125  11.986  0.00  0.00    +0.000 C 
BRANCH  22  23
ATOM     23  N   UNL     1      47.607   6.983  11.440  0.00  0.00    +0.000 N 
ATOM     24  C   UNL     1      46.240   6.963  11.324  0.00  0.00    +0.000 C 
ATOM     25  O   UNL     1      45.550   7.932  11.627  0.00  0.00    +0.000 OA
ATOM     26  H   UNL     1      48.121   6.109  11.401  0.00  0.00    +0.000 HD
BRANCH  24  27
ATOM     27  C   UNL     1      45.645   5.748  10.752  0.00  0.00    +0.000 A 
ATOM     28  C   UNL     1      45.828   5.458   9.408  0.00  0.00    +0.000 A 
ATOM     29  S   UNL     1      45.124   3.985   8.920  0.00  0.00    +0.000 S 
ATOM     30  C   UNL     1      44.507   3.699  10.480  0.00  0.00    +0.000 A 
ATOM     31  N   UNL     1      43.768   2.587  10.752  0.00  0.00    +0.000 NA
ATOM     32  C   UNL     1      43.343   2.509  11.968  0.00  0.00    +0.000 A 
ATOM     33  N   UNL     1      43.588   3.447  12.941  0.00  0.00    +0.000 N 
ATOM     34  C   UNL     1      44.340   4.579  12.714  0.00  0.00    +0.000 A 
ATOM     35  O   UNL     1      44.553   5.389  13.612  0.00  0.00    +0.000 OA
ATOM     36  C   UNL     1      44.846   4.711  11.361  0.00  0.00    +0.000 A 
ATOM     37  H   UNL     1      43.233   3.326  13.874  0.00  0.00    +0.000 HD
ENDBRANCH  24  27
ENDBRANCH  22  23
ENDBRANCH   4  22
TORSDOF 10
ENDMDL
MODEL 9
REMARK VINA RESULT:    -6.017      4.308      9.624
REMARK INTER + INTRA:         -11.093
REMARK INTER:                  -9.056
REMARK INTRA:                  -2.037
REMARK UNBOUND:                -1.735
REMARK  Name = 
REMARK  10 active torsions:
REMARK  status: ('A' for Active; 'I' for Inactive)
REMARK    1  A    between atoms: N_1  and  C_2
REMARK    2  A    between atoms: C_2  and  C_3
REMARK    3  A    between atoms: C_3  and  N_4
REMARK    4  A    between atoms: N_4  and  C_5
REMARK    5  A    between atoms: N_4  and  C_13
REMARK    6  A    between atoms: C_5  and  C_6
REMARK    7  A    between atoms: C_13  and  C_14
REMARK    8  A    between atoms: C_17  and  C_18
REMARK    9  A    between atoms: C_18  and  N_19
REMARK   10  A    between atoms: C_20  and  C_22
REMARK                            x       y       z     vdW  Elec       q    Type
REMARK                         _______ _______ _______ _____ _____    ______ ____
ROOT
ATOM      1  C   UNL     1      51.277   2.672  17.558  0.00  0.00    +0.000 A 
ATOM      2  C   UNL     1      50.785   3.882  18.044  0.00  0.00    +0.000 A 
ATOM      3  C   UNL     1      49.454   4.216  17.797  0.00  0.00    +0.000 A 
ATOM      4  C   UNL     1      48.644   3.347  17.063  0.00  0.00    +0.000 A 
ATOM      5  C   UNL     1      49.222   2.163  16.620  0.00  0.00    +0.000 A 
ATOM      6  N   UNL     1      50.508   1.810  16.845  0.00  0.00    +0.000 NA
ENDROOT
BRANCH   1   7
ATOM      7  C   UNL     1      52.714   2.254  17.831  0.00  0.00    +0.000 C 
BRANCH   7   8
ATOM      8  N   UNL     1      53.521   3.221  18.634  0.00  0.00    +0.000 NA
BRANCH   8   9
ATOM      9  C   UNL     1      54.336   2.472  19.626  0.00  0.00    +0.000 C 
BRANCH   9  10
ATOM     10  C   UNL     1      54.989   1.182  19.082  0.00  0.00    +0.000 C 
BRANCH  10  11
ATOM     11  N   UNL     1      54.938   0.086  20.054  0.00  0.00    +0.000 NA
ATOM     12  H   UNL     1      55.614   0.270  20.794  0.00  0.00    +0.000 HD
ATOM     13  H   UNL     1      55.241  -0.778  19.604  0.00  0.00    +0.000 HD
ENDBRANCH  10  11
ENDBRANCH   9  10
ENDBRANCH   8   9
BRANCH   8  14
ATOM     14  C   UNL     1      54.385   4.035  17.745  0.00  0.00    +0.000 C 
BRANCH  14  15
ATOM     15  C   UNL     1      53.922   5.475  17.632  0.00  0.00    +0.000 A 
ATOM     16  C   UNL     1      53.612   6.213  18.784  0.00  0.00    +0.000 A 
ATOM     17  C   UNL     1      52.999   7.462  18.678  0.00  0.00    +0.000 A 
ATOM     18  C   UNL     1      52.692   7.982  17.420  0.00  0.00    +0.000 A 
ATOM     19  C   UNL     1      53.050   7.277  16.273  0.00  0.00    +0.000 A 
ATOM     20 CL   UNL     1      52.649   7.906  14.723  0.00  0.00    +0.000 Cl
ATOM     21  C   UNL     1      53.685   6.041  16.371  0.00  0.00    +0.000 A 
ENDBRANCH  14  15
ENDBRANCH   8  14
ENDBRANCH   7   8
ENDBRANCH   1   7
BRANCH   4  22
ATOM     22  C   UNL     1      47.195   3.637  16.812  0.00  0.00    +0.000 C 
BRANCH  22  23
ATOM     23  N   UNL     1      47.039   4.639  15.786  0.00  0.00    +0.000 N 
ATOM     24  C   UNL     1      47.065   4.311  14.454  0.00  0.00    +0.000 C 
ATOM     25  O   UNL     1      47.168   3.148  14.075  0.00  0.00    +0.000 OA
ATOM     26  H   UNL     1      47.181   5.606  16.062  0.00  0.00    +0.000 HD
BRANCH  24  27
ATOM     27  C   UNL     1      46.895   5.415  13.500  0.00  0.00    +0.000 A 
ATOM     28  C   UNL     1      45.846   5.385  12.591  0.00  0.00    +0.000 A 
ATOM     29  S   UNL     1      45.757   6.767  11.599  0.00  0.00    +0.000 S 
ATOM     30  C   UNL     1      47.147   7.440  12.315  0.00  0.00    +0.000 A 
ATOM     31  N   UNL     1      47.640   8.641  11.903  0.00  0.00    +0.000 NA
ATOM     32  C   UNL     1      48.711   9.020  12.515  0.00  0.00    +0.000 A 
ATOM     33  N   UNL     1      49.339   8.303  13.504  0.00  0.00    +0.000 N 
ATOM     34  C   UNL     1      48.869   7.091  13.960  0.00  0.00    +0.000 A 
ATOM     35  O   UNL     1      49.447   6.484  14.858  0.00  0.00    +0.000 OA
ATOM     36  C   UNL     1      47.662   6.623  13.306  0.00  0.00    +0.000 A 
ATOM     37  H   UNL     1      50.170   8.656  13.947  0.00  0.00    +0.000 HD
ENDBRANCH  24  27
ENDBRANCH  22  23
ENDBRANCH   4  22
TORSDOF 10
ENDMDL
