MODEL 1
REMARK VINA RESULT:    -5.790      0.000      0.000
REMARK INTER + INTRA:          -7.600
REMARK INTER:                  -7.313
REMARK INTRA:                  -0.287
REMARK UNBOUND:                -0.287
REMARK  Name = 
REMARK  5 active torsions:
REMARK  status: ('A' for Active; 'I' for Inactive)
REMARK    1  A    between atoms: N_1  and  C_2
REMARK    2  A    between atoms: C_2  and  C_3
REMARK    3  A    between atoms: C_6  and  C_7
REMARK    4  A    between atoms: C_8  and  C_9
REMARK    5  A    between atoms: C_12  and  C_13
REMARK                            x       y       z     vdW  Elec       q    Type
REMARK                         _______ _______ _______ _____ _____    ______ ____
ROOT
ATOM      1  C   UNL     1      46.441   4.458  13.986  0.00  0.00    +0.000 C 
ATOM      2  C   UNL     1      46.952   4.469  15.072  0.00  0.00    +0.000 C 
ENDROOT
BRANCH   1   6
ATOM      3  C   UNL     1      44.937   4.296  10.023  0.00  0.00    +0.000 A 
ATOM      4  C   UNL     1      45.518   5.474  10.516  0.00  0.00    +0.000 A 
ATOM      5  C   UNL     1      45.998   5.540  11.828  0.00  0.00    +0.000 A 
ATOM      6  C   UNL     1      45.898   4.427  12.662  0.00  0.00    +0.000 A 
ATOM      7  C   UNL     1      45.296   3.257  12.190  0.00  0.00    +0.000 A 
ATOM      8  C   UNL     1      44.820   3.192  10.878  0.00  0.00    +0.000 A 
BRANCH   3   9
ATOM      9  C   UNL     1      44.478   4.214   8.589  0.00  0.00    +0.000 C 
BRANCH   9  10
ATOM     10  N   UNL     1      45.615   4.049   7.691  0.00  0.00    +0.000 NA
ATOM     11  H   UNL     1      45.293   4.084   6.728  0.00  0.00    +0.000 HD
ATOM     12  H   UNL     1      46.014   3.122   7.832  0.00  0.00    +0.000 HD
ENDBRANCH   9  10
ENDBRANCH   3   9
ENDBRANCH   1   6
BRANCH   2  13
ATOM     13  C   UNL     1      47.602   4.452  16.345  0.00  0.00    +0.000 A 
ATOM     14  C   UNL     1      47.563   3.323  17.159  0.00  0.00    +0.000 A 
ATOM     15  C   UNL     1      48.232   3.340  18.383  0.00  0.00    +0.000 A 
ATOM     16  C   UNL     1      48.918   4.494  18.746  0.00  0.00    +0.000 A 
ATOM     17  N   UNL     1      48.971   5.620  17.980  0.00  0.00    +0.000 NA
ATOM     18  C   UNL     1      48.307   5.564  16.798  0.00  0.00    +0.000 A 
BRANCH  16  19
ATOM     19  C   UNL     1      49.661   4.527  20.046  0.00  0.00    +0.000 C 
ATOM     20  N   UNL     1      51.024   4.429  19.954  0.00  0.00    +0.000 N 
ATOM     21  O   UNL     1      49.097   4.632  21.126  0.00  0.00    +0.000 OA
ATOM     22  H   UNL     1      51.462   4.338  19.045  0.00  0.00    +0.000 HD
ATOM     23  H   UNL     1      51.579   4.435  20.797  0.00  0.00    +0.000 HD
ENDBRANCH  16  19
ENDBRANCH   2  13
TORSDOF 5
ENDMDL
MODEL 2
REMARK VINA RESULT:    -5.063      3.260      8.950
REMARK INTER + INTRA:          -6.682
REMARK INTER:                  -6.387
REMARK INTRA:                  -0.295
REMARK UNBOUND:                -0.287
REMARK  Name = 
REMARK  5 active torsions:
REMARK  status: ('A' for Active; 'I' for Inactive)
REMARK    1  A    between atoms: N_1  and  C_2
REMARK    2  A    between atoms: C_2  and  C_3
REMARK    3  A    between atoms: C_6  and  C_7
REMARK    4  A    between atoms: C_8  and  C_9
REMARK    5  A    between atoms: C_12  and  C_13
REMARK                            x       y       z     vdW  Elec       q    Type
REMARK                         _______ _______ _______ _____ _____    ______ ____
ROOT
ATOM      1  C   UNL     1      47.609   4.721  15.852  0.00  0.00    +0.000 C 
ATOM      2  C   UNL     1      47.102   4.726  14.763  0.00  0.00    +0.000 C 
ENDROOT
BRANCH   1   6
ATOM      3  C   UNL     1      49.234   4.823  19.768  0.00  0.00    +0.000 A 
ATOM      4  C   UNL     1      49.915   4.165  18.732  0.00  0.00    +0.000 A 
ATOM      5  C   UNL     1      49.375   4.111  17.443  0.00  0.00    +0.000 A 
ATOM      6  C   UNL     1      48.145   4.712  17.178  0.00  0.00    +0.000 A 
ATOM      7  C   UNL     1      47.446   5.346  18.209  0.00  0.00    +0.000 A 
ATOM      8  C   UNL     1      47.988   5.402  19.496  0.00  0.00    +0.000 A 
BRANCH   3   9
ATOM      9  C   UNL     1      49.852   4.929  21.139  0.00  0.00    +0.000 C 
BRANCH   9  10
ATOM     10  N   UNL     1      51.259   4.547  21.103  0.00  0.00    +0.000 NA
ATOM     11  H   UNL     1      51.837   5.384  21.119  0.00  0.00    +0.000 HD
ATOM     12  H   UNL     1      51.450   4.077  20.220  0.00  0.00    +0.000 HD
ENDBRANCH   9  10
ENDBRANCH   3   9
ENDBRANCH   1   6
BRANCH   2  13
ATOM     13  C   UNL     1      46.451   4.715  13.490  0.00  0.00    +0.000 A 
ATOM     14  C   UNL     1      46.373   5.867  12.712  0.00  0.00    +0.000 A 
ATOM     15  C   UNL     1      45.751   5.807  11.465  0.00  0.00    +0.000 A 
ATOM     16  C   UNL     1      45.228   4.589  11.044  0.00  0.00    +0.000 A 
ATOM     17  N   UNL     1      45.278   3.445  11.782  0.00  0.00    +0.000 NA
ATOM     18  C   UNL     1      45.890   3.544  12.989  0.00  0.00    +0.000 A 
BRANCH  16  19
ATOM     19  C   UNL     1      44.574   4.496   9.699  0.00  0.00    +0.000 C 
ATOM     20  N   UNL     1      45.406   4.195   8.654  0.00  0.00    +0.000 N 
ATOM     21  O   UNL     1      43.376   4.679   9.535  0.00  0.00    +0.000 OA
ATOM     22  H   UNL     1      46.395   4.054   8.821  0.00  0.00    +0.000 HD
ATOM     23  H   UNL     1      45.025   4.129   7.722  0.00  0.00    +0.000 HD
ENDBRANCH  16  19
ENDBRANCH   2  13
TORSDOF 5
ENDMDL
MODEL 3
REMARK VINA RESULT:    -5.021      3.243      8.885
REMARK INTER + INTRA:          -6.629
REMARK INTER:                  -6.329
REMARK INTRA:                  -0.299
REMARK UNBOUND:                -0.287
REMARK  Name = 
REMARK  5 active torsions:
REMARK  status: ('A' for Active; 'I' for Inactive)
REMARK    1  A    between atoms: N_1  and  C_2
REMARK    2  A    between atoms: C_2  and  C_3
REMARK    3  A    between atoms: C_6  and  C_7
REMARK    4  A    between atoms: C_8  and  C_9
REMARK    5  A    between atoms: C_12  and  C_13
REMARK                            x       y       z     vdW  Elec       q    Type
REMARK                         _______ _______ _______ _____ _____    ______ ____
ROOT
ATOM      1  C   UNL     1      47.812   4.909  16.083  0.00  0.00    +0.000 C 
ATOM      2  C   UNL     1      47.241   4.880  15.026  0.00  0.00    +0.000 C 
ENDROOT
BRANCH   1   6
ATOM      3  C   UNL     1      49.803   4.929  19.827  0.00  0.00    +0.000 A 
ATOM      4  C   UNL     1      50.432   4.400  18.690  0.00  0.00    +0.000 A 
ATOM      5  C   UNL     1      49.773   4.373  17.457  0.00  0.00    +0.000 A 
ATOM      6  C   UNL     1      48.475   4.872  17.350  0.00  0.00    +0.000 A 
ATOM      7  C   UNL     1      47.830   5.376  18.482  0.00  0.00    +0.000 A 
ATOM      8  C   UNL     1      48.490   5.405  19.713  0.00  0.00    +0.000 A 
BRANCH   3   9
ATOM      9  C   UNL     1      50.542   5.011  21.139  0.00  0.00    +0.000 C 
BRANCH   9  10
ATOM     10  N   UNL     1      51.878   4.440  21.016  0.00  0.00    +0.000 NA
ATOM     11  H   UNL     1      52.387   4.580  21.884  0.00  0.00    +0.000 HD
ATOM     12  H   UNL     1      52.387   4.946  20.294  0.00  0.00    +0.000 HD
ENDBRANCH   9  10
ENDBRANCH   3   9
ENDBRANCH   1   6
BRANCH   2  13
ATOM     13  C   UNL     1      46.567   4.790  13.770  0.00  0.00    +0.000 A 
ATOM     14  C   UNL     1      46.068   3.575  13.306  0.00  0.00    +0.000 A 
ATOM     15  C   UNL     1      45.394   3.534  12.085  0.00  0.00    +0.000 A 
ATOM     16  C   UNL     1      45.246   4.719  11.372  0.00  0.00    +0.000 A 
ATOM     17  N   UNL     1      45.728   5.923  11.790  0.00  0.00    +0.000 NA
ATOM     18  C   UNL     1      46.378   5.921  12.981  0.00  0.00    +0.000 A 
BRANCH  16  19
ATOM     19  C   UNL     1      44.507   4.704  10.069  0.00  0.00    +0.000 C 
ATOM     20  N   UNL     1      45.283   4.795   8.945  0.00  0.00    +0.000 N 
ATOM     21  O   UNL     1      43.289   4.620  10.003  0.00  0.00    +0.000 OA
ATOM     22  H   UNL     1      46.289   4.869   9.032  0.00  0.00    +0.000 HD
ATOM     23  H   UNL     1      44.841   4.800   8.037  0.00  0.00    +0.000 HD
ENDBRANCH  16  19
ENDBRANCH   2  13
TORSDOF 5
ENDMDL
MODEL 4
REMARK VINA RESULT:    -4.982      6.081      8.052
REMARK INTER + INTRA:          -6.580
REMARK INTER:                  -6.285
REMARK INTRA:                  -0.295
REMARK UNBOUND:                -0.287
REMARK  Name = 
REMARK  5 active torsions:
REMARK  status: ('A' for Active; 'I' for Inactive)
REMARK    1  A    between atoms: N_1  and  C_2
REMARK    2  A    between atoms: C_2  and  C_3
REMARK    3  A    between atoms: C_6  and  C_7
REMARK    4  A    between atoms: C_8  and  C_9
REMARK    5  A    between atoms: C_12  and  C_13
REMARK                            x       y       z     vdW  Elec       q    Type
REMARK                         _______ _______ _______ _____ _____    ______ ____
ROOT
ATOM      1  C   UNL     1      49.317   7.745  11.599  0.00  0.00    +0.000 C 
ATOM      2  C   UNL     1      48.293   7.160  11.825  0.00  0.00    +0.000 C 
ENDROOT
BRANCH   1   6
ATOM      3  C   UNL     1      53.086   9.548  10.872  0.00  0.00    +0.000 A 
ATOM      4  C   UNL     1      52.060  10.273  11.498  0.00  0.00    +0.000 A 
ATOM      5  C   UNL     1      50.809   9.689  11.723  0.00  0.00    +0.000 A 
ATOM      6  C   UNL     1      50.570   8.376  11.320  0.00  0.00    +0.000 A 
ATOM      7  C   UNL     1      51.577   7.655  10.672  0.00  0.00    +0.000 A 
ATOM      8  C   UNL     1      52.828   8.237  10.450  0.00  0.00    +0.000 A 
BRANCH   3   9
ATOM      9  C   UNL     1      54.451  10.163  10.689  0.00  0.00    +0.000 C 
BRANCH   9  10
ATOM     10  N   UNL     1      55.239   9.397   9.731  0.00  0.00    +0.000 NA
ATOM     11  H   UNL     1      55.808  10.031   9.176  0.00  0.00    +0.000 HD
ATOM     12  H   UNL     1      54.606   8.930   9.083  0.00  0.00    +0.000 HD
ENDBRANCH   9  10
ENDBRANCH   3   9
ENDBRANCH   1   6
BRANCH   2  13
ATOM     13  C   UNL     1      47.096   6.418  12.070  0.00  0.00    +0.000 A 
ATOM     14  C   UNL     1      46.134   6.255  11.075  0.00  0.00    +0.000 A 
ATOM     15  C   UNL     1      44.991   5.503  11.347  0.00  0.00    +0.000 A 
ATOM     16  C   UNL     1      44.854   4.942  12.612  0.00  0.00    +0.000 A 
ATOM     17  N   UNL     1      45.769   5.088  13.611  0.00  0.00    +0.000 NA
ATOM     18  C   UNL     1      46.866   5.826  13.308  0.00  0.00    +0.000 A 
BRANCH  16  19
ATOM     19  C   UNL     1      43.646   4.113  12.920  0.00  0.00    +0.000 C 
ATOM     20  N   UNL     1      43.771   2.769  12.687  0.00  0.00    +0.000 N 
ATOM     21  O   UNL     1      42.607   4.596  13.349  0.00  0.00    +0.000 OA
ATOM     22  H   UNL     1      44.642   2.400  12.326  0.00  0.00    +0.000 HD
ATOM     23  H   UNL     1      42.986   2.161  12.866  0.00  0.00    +0.000 HD
ENDBRANCH  16  19
ENDBRANCH   2  13
TORSDOF 5
ENDMDL
MODEL 5
REMARK VINA RESULT:    -4.794      4.173      8.645
REMARK INTER + INTRA:          -6.343
REMARK INTER:                  -6.058
REMARK INTRA:                  -0.285
REMARK UNBOUND:                -0.287
REMARK  Name = 
REMARK  5 active torsions:
REMARK  status: ('A' for Active; 'I' for Inactive)
REMARK    1  A    between atoms: N_1  and  C_2
REMARK    2  A    between atoms: C_2  and  C_3
REMARK    3  A    between atoms: C_6  and  C_7
REMARK    4  A    between atoms: C_8  and  C_9
REMARK    5  A    between atoms: C_12  and  C_13
REMARK                            x       y       z     vdW  Elec       q    Type
REMARK                         _______ _______ _______ _____ _____    ______ ____
ROOT
ATOM      1  C   UNL     1      48.494   6.761  14.607  0.00  0.00    +0.000 C 
ATOM      2  C   UNL     1      47.691   6.127  13.978  0.00  0.00    +0.000 C 
ENDROOT
BRANCH   1   6
ATOM      3  C   UNL     1      51.550   8.747  16.775  0.00  0.00    +0.000 A 
ATOM      4  C   UNL     1      50.313   8.473  17.378  0.00  0.00    +0.000 A 
ATOM      5  C   UNL     1      49.295   7.836  16.662  0.00  0.00    +0.000 A 
ATOM      6  C   UNL     1      49.502   7.469  15.333  0.00  0.00    +0.000 A 
ATOM      7  C   UNL     1      50.721   7.762  14.715  0.00  0.00    +0.000 A 
ATOM      8  C   UNL     1      51.739   8.396  15.431  0.00  0.00    +0.000 A 
BRANCH   3   9
ATOM      9  C   UNL     1      52.664   9.378  17.571  0.00  0.00    +0.000 C 
BRANCH   9  10
ATOM     10  N   UNL     1      53.489   8.358  18.205  0.00  0.00    +0.000 NA
ATOM     11  H   UNL     1      53.919   8.742  19.043  0.00  0.00    +0.000 HD
ATOM     12  H   UNL     1      54.250   8.111  17.574  0.00  0.00    +0.000 HD
ENDBRANCH   9  10
ENDBRANCH   3   9
ENDBRANCH   1   6
BRANCH   2  13
ATOM     13  C   UNL     1      46.778   5.349  13.201  0.00  0.00    +0.000 A 
ATOM     14  C   UNL     1      46.174   5.875  12.061  0.00  0.00    +0.000 A 
ATOM     15  C   UNL     1      45.308   5.074  11.316  0.00  0.00    +0.000 A 
ATOM     16  C   UNL     1      45.077   3.771  11.745  0.00  0.00    +0.000 A 
ATOM     17  N   UNL     1      45.643   3.227  12.859  0.00  0.00    +0.000 NA
ATOM     18  C   UNL     1      46.478   4.037  13.557  0.00  0.00    +0.000 A 
BRANCH  16  19
ATOM     19  C   UNL     1      44.168   2.887  10.950  0.00  0.00    +0.000 C 
ATOM     20  N   UNL     1      44.724   2.304   9.842  0.00  0.00    +0.000 N 
ATOM     21  O   UNL     1      43.000   2.694  11.259  0.00  0.00    +0.000 OA
ATOM     22  H   UNL     1      45.692   2.488   9.609  0.00  0.00    +0.000 HD
ATOM     23  H   UNL     1      44.157   1.706   9.260  0.00  0.00    +0.000 HD
ENDBRANCH  16  19
ENDBRANCH   2  13
TORSDOF 5
ENDMDL
MODEL 6
REMARK VINA RESULT:    -4.590      4.275      8.854
REMARK INTER + INTRA:          -6.084
REMARK INTER:                  -5.776
REMARK INTRA:                  -0.309
REMARK UNBOUND:                -0.287
REMARK  Name = 
REMARK  5 active torsions:
REMARK  status: ('A' for Active; 'I' for Inactive)
REMARK    1  A    between atoms: N_1  and  C_2
REMARK    2  A    between atoms: C_2  and  C_3
REMARK    3  A    between atoms: C_6  and  C_7
REMARK    4  A    between atoms: C_8  and  C_9
REMARK    5  A    between atoms: C_12  and  C_13
REMARK                            x       y       z     vdW  Elec       q    Type
REMARK                         _______ _______ _______ _____ _____    ______ ____
ROOT
ATOM      1  C   UNL     1      48.765   6.990  14.354  0.00  0.00    +0.000 C 
ATOM      2  C   UNL     1      47.909   6.452  13.708  0.00  0.00    +0.000 C 
ENDROOT
BRANCH   1   6
ATOM      3  C   UNL     1      52.013   8.761  16.428  0.00  0.00    +0.000 A 
ATOM      4  C   UNL     1      51.690   7.411  16.634  0.00  0.00    +0.000 A 
ATOM      5  C   UNL     1      50.608   6.827  15.967  0.00  0.00    +0.000 A 
ATOM      6  C   UNL     1      49.836   7.589  15.091  0.00  0.00    +0.000 A 
ATOM      7  C   UNL     1      50.133   8.941  14.901  0.00  0.00    +0.000 A 
ATOM      8  C   UNL     1      51.216   9.524  15.565  0.00  0.00    +0.000 A 
BRANCH   3   9
ATOM      9  C   UNL     1      53.217   9.368  17.104  0.00  0.00    +0.000 C 
BRANCH   9  10
ATOM     10  N   UNL     1      53.540   8.647  18.329  0.00  0.00    +0.000 NA
ATOM     11  H   UNL     1      52.825   7.947  18.509  0.00  0.00    +0.000 HD
ATOM     12  H   UNL     1      53.514   9.299  19.111  0.00  0.00    +0.000 HD
ENDBRANCH   9  10
ENDBRANCH   3   9
ENDBRANCH   1   6
BRANCH   2  13
ATOM     13  C   UNL     1      46.929   5.791  12.904  0.00  0.00    +0.000 A 
ATOM     14  C   UNL     1      46.370   4.579  13.301  0.00  0.00    +0.000 A 
ATOM     15  C   UNL     1      45.398   3.980  12.499  0.00  0.00    +0.000 A 
ATOM     16  C   UNL     1      45.023   4.621  11.323  0.00  0.00    +0.000 A 
ATOM     17  N   UNL     1      45.554   5.802  10.899  0.00  0.00    +0.000 NA
ATOM     18  C   UNL     1      46.496   6.353  11.706  0.00  0.00    +0.000 A 
BRANCH  16  19
ATOM     19  C   UNL     1      43.966   4.007  10.458  0.00  0.00    +0.000 C 
ATOM     20  N   UNL     1      43.971   4.398   9.146  0.00  0.00    +0.000 N 
ATOM     21  O   UNL     1      43.144   3.210  10.887  0.00  0.00    +0.000 OA
ATOM     22  H   UNL     1      44.662   5.065   8.822  0.00  0.00    +0.000 HD
ATOM     23  H   UNL     1      43.276   4.026   8.515  0.00  0.00    +0.000 HD
ENDBRANCH  16  19
ENDBRANCH   2  13
TORSDOF 5
ENDMDL
MODEL 7
REMARK VINA RESULT:    -4.536      1.701      2.396
REMARK INTER + INTRA:          -6.017
REMARK INTER:                  -5.713
REMARK INTRA:                  -0.304
REMARK UNBOUND:                -0.287
REMARK  Name = 
REMARK  5 active torsions:
REMARK  status: ('A' for Active; 'I' for Inactive)
REMARK    1  A    between atoms: N_1  and  C_2
REMARK    2  A    between atoms: C_2  and  C_3
REMARK    3  A    between atoms: C_6  and  C_7
REMARK    4  A    between atoms: C_8  and  C_9
REMARK    5  A    between atoms: C_12  and  C_13
REMARK                            x       y       z     vdW  Elec       q    Type
REMARK                         _______ _______ _______ _____ _____    ______ ____
ROOT
ATOM      1  C   UNL     1      47.247   5.389  14.250  0.00  0.00    +0.000 C 
ATOM      2  C   UNL     1      47.919   5.652  15.211  0.00  0.00    +0.000 C 
ENDROOT
BRANCH   1   6
ATOM      3  C   UNL     1      44.956   4.549  10.782  0.00  0.00    +0.000 A 
ATOM      4  C   UNL     1      45.100   3.584  11.790  0.00  0.00    +0.000 A 
ATOM      5  C   UNL     1      45.870   3.848  12.927  0.00  0.00    +0.000 A 
ATOM      6  C   UNL     1      46.508   5.080  13.065  0.00  0.00    +0.000 A 
ATOM      7  C   UNL     1      46.393   6.038  12.054  0.00  0.00    +0.000 A 
ATOM      8  C   UNL     1      45.622   5.774  10.919  0.00  0.00    +0.000 A 
BRANCH   3   9
ATOM      9  C   UNL     1      44.075   4.280   9.588  0.00  0.00    +0.000 C 
BRANCH   9  10
ATOM     10  N   UNL     1      44.820   4.449   8.347  0.00  0.00    +0.000 NA
ATOM     11  H   UNL     1      44.461   3.805   7.646  0.00  0.00    +0.000 HD
ATOM     12  H   UNL     1      45.792   4.192   8.508  0.00  0.00    +0.000 HD
ENDBRANCH   9  10
ENDBRANCH   3   9
ENDBRANCH   1   6
BRANCH   2  13
ATOM     13  C   UNL     1      48.764   5.950  16.324  0.00  0.00    +0.000 A 
ATOM     14  C   UNL     1      49.902   6.738  16.173  0.00  0.00    +0.000 A 
ATOM     15  C   UNL     1      50.686   7.027  17.290  0.00  0.00    +0.000 A 
ATOM     16  C   UNL     1      50.298   6.511  18.522  0.00  0.00    +0.000 A 
ATOM     17  N   UNL     1      49.197   5.730  18.706  0.00  0.00    +0.000 NA
ATOM     18  C   UNL     1      48.461   5.471  17.596  0.00  0.00    +0.000 A 
BRANCH  16  19
ATOM     19  C   UNL     1      51.113   6.825  19.739  0.00  0.00    +0.000 C 
ATOM     20  N   UNL     1      52.175   7.667  19.542  0.00  0.00    +0.000 N 
ATOM     21  O   UNL     1      50.857   6.361  20.841  0.00  0.00    +0.000 OA
ATOM     22  H   UNL     1      52.364   8.031  18.616  0.00  0.00    +0.000 HD
ATOM     23  H   UNL     1      52.767   7.907  20.323  0.00  0.00    +0.000 HD
ENDBRANCH  16  19
ENDBRANCH   2  13
TORSDOF 5
ENDMDL
MODEL 8
REMARK VINA RESULT:    -4.403     10.269     12.376
REMARK INTER + INTRA:          -5.848
REMARK INTER:                  -5.538
REMARK INTRA:                  -0.310
REMARK UNBOUND:                -0.287
REMARK  Name = 
REMARK  5 active torsions:
REMARK  status: ('A' for Active; 'I' for Inactive)
REMARK    1  A    between atoms: N_1  and  C_2
REMARK    2  A    between atoms: C_2  and  C_3
REMARK    3  A    between atoms: C_6  and  C_7
REMARK    4  A    between atoms: C_8  and  C_9
REMARK    5  A    between atoms: C_12  and  C_13
REMARK                            x       y       z     vdW  Elec       q    Type
REMARK                         _______ _______ _______ _____ _____    ______ ____
ROOT
ATOM      1  C   UNL     1      42.620  -4.254  17.374  0.00  0.00    +0.000 C 
ATOM      2  C   UNL     1      41.725  -3.494  17.125  0.00  0.00    +0.000 C 
ENDROOT
BRANCH   1   6
ATOM      3  C   UNL     1      45.944  -6.818  17.975  0.00  0.00    +0.000 A 
ATOM      4  C   UNL     1      44.859  -7.234  17.189  0.00  0.00    +0.000 A 
ATOM      5  C   UNL     1      43.751  -6.400  17.003  0.00  0.00    +0.000 A 
ATOM      6  C   UNL     1      43.717  -5.143  17.606  0.00  0.00    +0.000 A 
ATOM      7  C   UNL     1      44.781  -4.731  18.413  0.00  0.00    +0.000 A 
ATOM      8  C   UNL     1      45.888  -5.564  18.596  0.00  0.00    +0.000 A 
BRANCH   3   9
ATOM      9  C   UNL     1      47.161  -7.697  18.121  0.00  0.00    +0.000 C 
BRANCH   9  10
ATOM     10  N   UNL     1      48.301  -6.927  18.601  0.00  0.00    +0.000 NA
ATOM     11  H   UNL     1      47.974  -6.050  18.999  0.00  0.00    +0.000 HD
ATOM     12  H   UNL     1      48.893  -6.685  17.808  0.00  0.00    +0.000 HD
ENDBRANCH   9  10
ENDBRANCH   3   9
ENDBRANCH   1   6
BRANCH   2  13
ATOM     13  C   UNL     1      40.691  -2.565  16.789  0.00  0.00    +0.000 A 
ATOM     14  C   UNL     1      39.984  -1.886  17.778  0.00  0.00    +0.000 A 
ATOM     15  C   UNL     1      39.000  -0.970  17.407  0.00  0.00    +0.000 A 
ATOM     16  C   UNL     1      38.760  -0.769  16.052  0.00  0.00    +0.000 A 
ATOM     17  N   UNL     1      39.426  -1.421  15.058  0.00  0.00    +0.000 NA
ATOM     18  C   UNL     1      40.374  -2.305  15.459  0.00  0.00    +0.000 A 
BRANCH  16  19
ATOM     19  C   UNL     1      37.723   0.225  15.630  0.00  0.00    +0.000 C 
ATOM     20  N   UNL     1      37.085   0.886  16.645  0.00  0.00    +0.000 N 
ATOM     21  O   UNL     1      37.454   0.438  14.456  0.00  0.00    +0.000 OA
ATOM     22  H   UNL     1      37.326   0.684  17.607  0.00  0.00    +0.000 HD
ATOM     23  H   UNL     1      36.368   1.561  16.423  0.00  0.00    +0.000 HD
ENDBRANCH  16  19
ENDBRANCH   2  13
TORSDOF 5
ENDMDL
MODEL 9
REMARK VINA RESULT:    -4.318      3.195      3.855
REMARK INTER + INTRA:          -5.741
REMARK INTER:                  -5.445
REMARK INTRA:                  -0.295
REMARK UNBOUND:                -0.287
REMARK  Name = 
REMARK  5 active torsions:
REMARK  status: ('A' for Active; 'I' for Inactive)
REMARK    1  A    between atoms: N_1  and  C_2
REMARK    2  A    between atoms: C_2  and  C_3
REMARK    3  A    between atoms: C_6  and  C_7
REMARK    4  A    between atoms: C_8  and  C_9
REMARK    5  A    between atoms: C_12  and  C_13
REMARK                            x       y       z     vdW  Elec       q    Type
REMARK                         _______ _______ _______ _____ _____    ______ ____
ROOT
ATOM      1  C   UNL     1      47.695   6.258  13.773  0.00  0.00    +0.000 C 
ATOM      2  C   UNL     1      48.499   6.746  14.520  0.00  0.00    +0.000 C 
ENDROOT
BRANCH   1   6
ATOM      3  C   UNL     1      44.870   4.727  11.005  0.00  0.00    +0.000 A 
ATOM      4  C   UNL     1      45.125   4.051  12.209  0.00  0.00    +0.000 A 
ATOM      5  C   UNL     1      46.069   4.541  13.117  0.00  0.00    +0.000 A 
ATOM      6  C   UNL     1      46.772   5.710  12.827  0.00  0.00    +0.000 A 
ATOM      7  C   UNL     1      46.546   6.375  11.619  0.00  0.00    +0.000 A 
ATOM      8  C   UNL     1      45.600   5.886  10.713  0.00  0.00    +0.000 A 
BRANCH   3   9
ATOM      9  C   UNL     1      43.807   4.226  10.060  0.00  0.00    +0.000 C 
BRANCH   9  10
ATOM     10  N   UNL     1      44.239   4.366   8.675  0.00  0.00    +0.000 NA
ATOM     11  H   UNL     1      44.373   3.444   8.267  0.00  0.00    +0.000 HD
ATOM     12  H   UNL     1      45.147   4.826   8.658  0.00  0.00    +0.000 HD
ENDBRANCH   9  10
ENDBRANCH   3   9
ENDBRANCH   1   6
BRANCH   2  13
ATOM     13  C   UNL     1      49.489   7.336  15.365  0.00  0.00    +0.000 A 
ATOM     14  C   UNL     1      50.715   7.754  14.854  0.00  0.00    +0.000 A 
ATOM     15  C   UNL     1      51.645   8.348  15.708  0.00  0.00    +0.000 A 
ATOM     16  C   UNL     1      51.308   8.501  17.049  0.00  0.00    +0.000 A 
ATOM     17  N   UNL     1      50.122   8.096  17.585  0.00  0.00    +0.000 NA
ATOM     18  C   UNL     1      49.246   7.522  16.723  0.00  0.00    +0.000 A 
BRANCH  16  19
ATOM     19  C   UNL     1      52.281   9.155  17.979  0.00  0.00    +0.000 C 
ATOM     20  N   UNL     1      53.480   8.512  18.136  0.00  0.00    +0.000 N 
ATOM     21  O   UNL     1      52.030  10.196  18.571  0.00  0.00    +0.000 OA
ATOM     22  H   UNL     1      53.656   7.648  17.636  0.00  0.00    +0.000 HD
ATOM     23  H   UNL     1      54.173   8.899  18.759  0.00  0.00    +0.000 HD
ENDBRANCH  16  19
ENDBRANCH   2  13
TORSDOF 5
ENDMDL
