MODEL 1
REMARK VINA RESULT:    -7.236      0.000      0.000
REMARK INTER + INTRA:         -10.164
REMARK INTER:                  -9.563
REMARK INTRA:                  -0.601
REMARK UNBOUND:                -0.601
REMARK  Name = 
REMARK  6 active torsions:
REMARK  status: ('A' for Active; 'I' for Inactive)
REMARK    1  A    between atoms: N_1  and  C_2
REMARK    2  A    between atoms: C_2  and  C_3
REMARK    3  A    between atoms: C_6  and  O_7
REMARK    4  A    between atoms: O_7  and  C_8
REMARK    5  A    between atoms: C_8  and  C_9
REMARK    6  A    between atoms: C_9  and  C_10
REMARK                            x       y       z     vdW  Elec       q    Type
REMARK                         _______ _______ _______ _____ _____    ______ ____
ROOT
ATOM      1  C   UNL     1      46.495   2.372   7.677  0.00  0.00    +0.000 A 
ATOM      2  C   UNL     1      45.712   1.712   8.631  0.00  0.00    +0.000 A 
ATOM      3  C   UNL     1      44.801   2.435   9.405  0.00  0.00    +0.000 A 
ATOM      4  C   UNL     1      44.706   3.802   9.198  0.00  0.00    +0.000 A 
ATOM      5  N   UNL     1      45.454   4.469   8.295  0.00  0.00    +0.000 NA
ATOM      6  C   UNL     1      46.326   3.748   7.562  0.00  0.00    +0.000 A 
ENDROOT
BRANCH   1   7
ATOM      7  C   UNL     1      47.497   1.654   6.820  0.00  0.00    +0.000 C 
BRANCH   7   8
ATOM      8  N   UNL     1      48.568   2.539   6.383  0.00  0.00    +0.000 NA
ATOM      9  H   UNL     1      48.248   3.504   6.443  0.00  0.00    +0.000 HD
ATOM     10  H   UNL     1      48.762   2.366   5.397  0.00  0.00    +0.000 HD
ENDBRANCH   7   8
ENDBRANCH   1   7
BRANCH   4  11
ATOM     11  O   UNL     1      43.791   4.504   9.962  0.00  0.00    +0.000 OA
BRANCH  11  12
ATOM     12  C   UNL     1      43.411   3.768  11.134  0.00  0.00    +0.000 C 
BRANCH  12  13
ATOM     13  C   UNL     1      43.318   4.703  12.339  0.00  0.00    +0.000 C 
BRANCH  13  14
ATOM     14  C   UNL     1      44.675   5.256  12.712  0.00  0.00    +0.000 A 
ATOM     15  C   UNL     1      44.957   6.619  12.541  0.00  0.00    +0.000 A 
ATOM     16  C   UNL     1      46.220   7.127  12.855  0.00  0.00    +0.000 A 
ATOM     17  C   UNL     1      47.211   6.274  13.336  0.00  0.00    +0.000 A 
ATOM     18 CL   UNL     1      48.766   6.900  13.725  0.00  0.00    +0.000 Cl
ATOM     19  C   UNL     1      46.949   4.916  13.500  0.00  0.00    +0.000 A 
ATOM     20  C   UNL     1      45.686   4.407  13.186  0.00  0.00    +0.000 A 
ENDBRANCH  13  14
ENDBRANCH  12  13
ENDBRANCH  11  12
ENDBRANCH   4  11
TORSDOF 6
ENDMDL
MODEL 2
REMARK VINA RESULT:    -7.169      1.254      1.812
REMARK INTER + INTRA:         -10.076
REMARK INTER:                  -9.404
REMARK INTRA:                  -0.671
REMARK UNBOUND:                -0.601
REMARK  Name = 
REMARK  6 active torsions:
REMARK  status: ('A' for Active; 'I' for Inactive)
REMARK    1  A    between atoms: N_1  and  C_2
REMARK    2  A    between atoms: C_2  and  C_3
REMARK    3  A    between atoms: C_6  and  O_7
REMARK    4  A    between atoms: O_7  and  C_8
REMARK    5  A    between atoms: C_8  and  C_9
REMARK    6  A    between atoms: C_9  and  C_10
REMARK                            x       y       z     vdW  Elec       q    Type
REMARK                         _______ _______ _______ _____ _____    ______ ____
ROOT
ATOM      1  C   UNL     1      46.555   2.637   6.904  0.00  0.00    +0.000 A 
ATOM      2  C   UNL     1      45.879   3.779   7.347  0.00  0.00    +0.000 A 
ATOM      3  C   UNL     1      45.118   3.727   8.518  0.00  0.00    +0.000 A 
ATOM      4  C   UNL     1      45.059   2.526   9.208  0.00  0.00    +0.000 A 
ATOM      5  N   UNL     1      45.691   1.406   8.801  0.00  0.00    +0.000 NA
ATOM      6  C   UNL     1      46.417   1.483   7.668  0.00  0.00    +0.000 A 
ENDROOT
BRANCH   1   7
ATOM      7  C   UNL     1      47.382   2.626   5.651  0.00  0.00    +0.000 C 
BRANCH   7   8
ATOM      8  N   UNL     1      48.555   1.773   5.784  0.00  0.00    +0.000 NA
ATOM      9  H   UNL     1      49.342   2.212   5.309  0.00  0.00    +0.000 HD
ATOM     10  H   UNL     1      48.385   0.894   5.296  0.00  0.00    +0.000 HD
ENDBRANCH   7   8
ENDBRANCH   1   7
BRANCH   4  11
ATOM     11  O   UNL     1      44.313   2.492  10.372  0.00  0.00    +0.000 OA
BRANCH  11  12
ATOM     12  C   UNL     1      43.750   3.777  10.673  0.00  0.00    +0.000 C 
BRANCH  12  13
ATOM     13  C   UNL     1      43.976   4.122  12.145  0.00  0.00    +0.000 C 
BRANCH  13  14
ATOM     14  C   UNL     1      45.277   4.869  12.341  0.00  0.00    +0.000 A 
ATOM     15  C   UNL     1      46.075   4.620  13.467  0.00  0.00    +0.000 A 
ATOM     16  C   UNL     1      47.261   5.331  13.667  0.00  0.00    +0.000 A 
ATOM     17  C   UNL     1      47.653   6.299  12.745  0.00  0.00    +0.000 A 
ATOM     18 CL   UNL     1      49.115   7.172  12.989  0.00  0.00    +0.000 Cl
ATOM     19  C   UNL     1      46.865   6.564  11.627  0.00  0.00    +0.000 A 
ATOM     20  C   UNL     1      45.678   5.854  11.427  0.00  0.00    +0.000 A 
ENDBRANCH  13  14
ENDBRANCH  12  13
ENDBRANCH  11  12
ENDBRANCH   4  11
TORSDOF 6
ENDMDL
MODEL 3
REMARK VINA RESULT:    -6.793      3.287      6.043
REMARK INTER + INTRA:          -9.579
REMARK INTER:                  -8.962
REMARK INTRA:                  -0.616
REMARK UNBOUND:                -0.601
REMARK  Name = 
REMARK  6 active torsions:
REMARK  status: ('A' for Active; 'I' for Inactive)
REMARK    1  A    between atoms: N_1  and  C_2
REMARK    2  A    between atoms: C_2  and  C_3
REMARK    3  A    between atoms: C_6  and  O_7
REMARK    4  A    between atoms: O_7  and  C_8
REMARK    5  A    between atoms: C_8  and  C_9
REMARK    6  A    between atoms: C_9  and  C_10
REMARK                            x       y       z     vdW  Elec       q    Type
REMARK                         _______ _______ _______ _____ _____    ______ ____
ROOT
ATOM      1  C   UNL     1      46.997   6.279  13.005  0.00  0.00    +0.000 A 
ATOM      2  C   UNL     1      46.372   6.711  11.831  0.00  0.00    +0.000 A 
ATOM      3  C   UNL     1      45.258   6.024  11.342  0.00  0.00    +0.000 A 
ATOM      4  C   UNL     1      44.808   4.919  12.048  0.00  0.00    +0.000 A 
ATOM      5  N   UNL     1      45.395   4.471  13.176  0.00  0.00    +0.000 NA
ATOM      6  C   UNL     1      46.468   5.152  13.626  0.00  0.00    +0.000 A 
ENDROOT
BRANCH   1   7
ATOM      7  C   UNL     1      48.201   6.969  13.578  0.00  0.00    +0.000 C 
BRANCH   7   8
ATOM      8  N   UNL     1      49.431   6.547  12.920  0.00  0.00    +0.000 NA
ATOM      9  H   UNL     1      50.016   6.055  13.594  0.00  0.00    +0.000 HD
ATOM     10  H   UNL     1      49.958   7.373  12.638  0.00  0.00    +0.000 HD
ENDBRANCH   7   8
ENDBRANCH   1   7
BRANCH   4  11
ATOM     11  O   UNL     1      43.697   4.255  11.559  0.00  0.00    +0.000 OA
BRANCH  11  12
ATOM     12  C   UNL     1      43.841   3.944  10.165  0.00  0.00    +0.000 C 
BRANCH  12  13
ATOM     13  C   UNL     1      44.475   2.564   9.995  0.00  0.00    +0.000 C 
BRANCH  13  14
ATOM     14  C   UNL     1      45.397   2.526   8.797  0.00  0.00    +0.000 A 
ATOM     15  C   UNL     1      45.642   3.689   8.054  0.00  0.00    +0.000 A 
ATOM     16  C   UNL     1      46.469   3.651   6.928  0.00  0.00    +0.000 A 
ATOM     17  C   UNL     1      47.050   2.448   6.535  0.00  0.00    +0.000 A 
ATOM     18 CL   UNL     1      48.070   2.401   5.150  0.00  0.00    +0.000 Cl
ATOM     19  C   UNL     1      46.807   1.281   7.257  0.00  0.00    +0.000 A 
ATOM     20  C   UNL     1      45.979   1.319   8.382  0.00  0.00    +0.000 A 
ENDBRANCH  13  14
ENDBRANCH  12  13
ENDBRANCH  11  12
ENDBRANCH   4  11
TORSDOF 6
ENDMDL
MODEL 4
REMARK VINA RESULT:    -6.367      3.332      6.380
REMARK INTER + INTRA:          -9.015
REMARK INTER:                  -8.585
REMARK INTRA:                  -0.430
REMARK UNBOUND:                -0.601
REMARK  Name = 
REMARK  6 active torsions:
REMARK  status: ('A' for Active; 'I' for Inactive)
REMARK    1  A    between atoms: N_1  and  C_2
REMARK    2  A    between atoms: C_2  and  C_3
REMARK    3  A    between atoms: C_6  and  O_7
REMARK    4  A    between atoms: O_7  and  C_8
REMARK    5  A    between atoms: C_8  and  C_9
REMARK    6  A    between atoms: C_9  and  C_10
REMARK                            x       y       z     vdW  Elec       q    Type
REMARK                         _______ _______ _______ _____ _____    ______ ____
ROOT
ATOM      1  C   UNL     1      46.973   7.448  13.289  0.00  0.00    +0.000 A 
ATOM      2  C   UNL     1      47.259   6.079  13.331  0.00  0.00    +0.000 A 
ATOM      3  C   UNL     1      46.316   5.156  12.871  0.00  0.00    +0.000 A 
ATOM      4  C   UNL     1      45.111   5.638  12.385  0.00  0.00    +0.000 A 
ATOM      5  N   UNL     1      44.801   6.950  12.342  0.00  0.00    +0.000 NA
ATOM      6  C   UNL     1      45.728   7.820  12.792  0.00  0.00    +0.000 A 
ENDROOT
BRANCH   1   7
ATOM      7  C   UNL     1      47.940   8.488  13.775  0.00  0.00    +0.000 C 
BRANCH   7   8
ATOM      8  N   UNL     1      47.518   9.070  15.042  0.00  0.00    +0.000 NA
ATOM      9  H   UNL     1      46.542   9.352  14.970  0.00  0.00    +0.000 HD
ATOM     10  H   UNL     1      48.048   9.925  15.210  0.00  0.00    +0.000 HD
ENDBRANCH   7   8
ENDBRANCH   1   7
BRANCH   4  11
ATOM     11  O   UNL     1      44.191   4.715  11.922  0.00  0.00    +0.000 OA
BRANCH  11  12
ATOM     12  C   UNL     1      44.829   3.495  11.516  0.00  0.00    +0.000 C 
BRANCH  12  13
ATOM     13  C   UNL     1      44.150   2.932  10.268  0.00  0.00    +0.000 C 
BRANCH  13  14
ATOM     14  C   UNL     1      45.125   2.814   9.118  0.00  0.00    +0.000 A 
ATOM     15  C   UNL     1      45.472   3.944   8.364  0.00  0.00    +0.000 A 
ATOM     16  C   UNL     1      46.348   3.832   7.281  0.00  0.00    +0.000 A 
ATOM     17  C   UNL     1      46.877   2.589   6.942  0.00  0.00    +0.000 A 
ATOM     18 CL   UNL     1      47.957   2.452   5.610  0.00  0.00    +0.000 Cl
ATOM     19  C   UNL     1      46.533   1.456   7.676  0.00  0.00    +0.000 A 
ATOM     20  C   UNL     1      45.656   1.567   8.758  0.00  0.00    +0.000 A 
ENDBRANCH  13  14
ENDBRANCH  12  13
ENDBRANCH  11  12
ENDBRANCH   4  11
TORSDOF 6
ENDMDL
MODEL 5
REMARK VINA RESULT:    -5.889      4.512      6.501
REMARK INTER + INTRA:          -8.383
REMARK INTER:                  -8.031
REMARK INTRA:                  -0.352
REMARK UNBOUND:                -0.601
REMARK  Name = 
REMARK  6 active torsions:
REMARK  status: ('A' for Active; 'I' for Inactive)
REMARK    1  A    between atoms: N_1  and  C_2
REMARK    2  A    between atoms: C_2  and  C_3
REMARK    3  A    between atoms: C_6  and  O_7
REMARK    4  A    between atoms: O_7  and  C_8
REMARK    5  A    between atoms: C_8  and  C_9
REMARK    6  A    between atoms: C_9  and  C_10
REMARK                            x       y       z     vdW  Elec       q    Type
REMARK                         _______ _______ _______ _____ _____    ______ ____
ROOT
ATOM      1  C   UNL     1      44.304   4.824  11.940  0.00  0.00    +0.000 A 
ATOM      2  C   UNL     1      44.923   5.739  12.799  0.00  0.00    +0.000 A 
ATOM      3  C   UNL     1      45.928   5.307  13.670  0.00  0.00    +0.000 A 
ATOM      4  C   UNL     1      46.278   3.967  13.652  0.00  0.00    +0.000 A 
ATOM      5  N   UNL     1      45.694   3.059  12.844  0.00  0.00    +0.000 NA
ATOM      6  C   UNL     1      44.728   3.500  12.014  0.00  0.00    +0.000 A 
ENDROOT
BRANCH   1   7
ATOM      7  C   UNL     1      43.215   5.222  10.987  0.00  0.00    +0.000 C 
BRANCH   7   8
ATOM      8  N   UNL     1      42.202   6.044  11.637  0.00  0.00    +0.000 NA
ATOM      9  H   UNL     1      41.346   5.501  11.735  0.00  0.00    +0.000 HD
ATOM     10  H   UNL     1      41.971   6.830  11.030  0.00  0.00    +0.000 HD
ENDBRANCH   7   8
ENDBRANCH   1   7
BRANCH   4  11
ATOM     11  O   UNL     1      47.283   3.556  14.510  0.00  0.00    +0.000 OA
BRANCH  11  12
ATOM     12  C   UNL     1      47.318   4.358  15.700  0.00  0.00    +0.000 C 
BRANCH  12  13
ATOM     13  C   UNL     1      47.522   3.472  16.928  0.00  0.00    +0.000 C 
BRANCH  13  14
ATOM     14  C   UNL     1      48.991   3.266  17.220  0.00  0.00    +0.000 A 
ATOM     15  C   UNL     1      49.617   2.056  16.889  0.00  0.00    +0.000 A 
ATOM     16  C   UNL     1      50.967   1.851  17.186  0.00  0.00    +0.000 A 
ATOM     17  C   UNL     1      51.697   2.853  17.822  0.00  0.00    +0.000 A 
ATOM     18 CL   UNL     1      53.360   2.601  18.186  0.00  0.00    +0.000 Cl
ATOM     19  C   UNL     1      51.086   4.056  18.166  0.00  0.00    +0.000 A 
ATOM     20  C   UNL     1      49.736   4.261  17.870  0.00  0.00    +0.000 A 
ENDBRANCH  13  14
ENDBRANCH  12  13
ENDBRANCH  11  12
ENDBRANCH   4  11
TORSDOF 6
ENDMDL
MODEL 6
REMARK VINA RESULT:    -5.816      3.165      6.440
REMARK INTER + INTRA:          -8.287
REMARK INTER:                  -8.055
REMARK INTRA:                  -0.232
REMARK UNBOUND:                -0.601
REMARK  Name = 
REMARK  6 active torsions:
REMARK  status: ('A' for Active; 'I' for Inactive)
REMARK    1  A    between atoms: N_1  and  C_2
REMARK    2  A    between atoms: C_2  and  C_3
REMARK    3  A    between atoms: C_6  and  O_7
REMARK    4  A    between atoms: O_7  and  C_8
REMARK    5  A    between atoms: C_8  and  C_9
REMARK    6  A    between atoms: C_9  and  C_10
REMARK                            x       y       z     vdW  Elec       q    Type
REMARK                         _______ _______ _______ _____ _____    ______ ____
ROOT
ATOM      1  C   UNL     1      45.407   7.874  12.148  0.00  0.00    +0.000 A 
ATOM      2  C   UNL     1      44.245   7.283  11.641  0.00  0.00    +0.000 A 
ATOM      3  C   UNL     1      44.266   5.947  11.228  0.00  0.00    +0.000 A 
ATOM      4  C   UNL     1      45.457   5.247  11.336  0.00  0.00    +0.000 A 
ATOM      5  N   UNL     1      46.597   5.791  11.811  0.00  0.00    +0.000 NA
ATOM      6  C   UNL     1      46.550   7.081  12.202  0.00  0.00    +0.000 A 
ENDROOT
BRANCH   1   7
ATOM      7  C   UNL     1      45.452   9.304  12.601  0.00  0.00    +0.000 C 
BRANCH   7   8
ATOM      8  N   UNL     1      44.241  10.026  12.234  0.00  0.00    +0.000 NA
ATOM      9  H   UNL     1      43.432   9.444  12.439  0.00  0.00    +0.000 HD
ATOM     10  H   UNL     1      44.235  10.173  11.224  0.00  0.00    +0.000 HD
ENDBRANCH   7   8
ENDBRANCH   1   7
BRANCH   4  11
ATOM     11  O   UNL     1      45.461   3.923  10.935  0.00  0.00    +0.000 OA
BRANCH  11  12
ATOM     12  C   UNL     1      44.127   3.424  10.758  0.00  0.00    +0.000 C 
BRANCH  12  13
ATOM     13  C   UNL     1      44.151   2.129   9.946  0.00  0.00    +0.000 C 
BRANCH  13  14
ATOM     14  C   UNL     1      45.111   2.227   8.782  0.00  0.00    +0.000 A 
ATOM     15  C   UNL     1      45.972   1.162   8.482  0.00  0.00    +0.000 A 
ATOM     16  C   UNL     1      46.882   1.261   7.426  0.00  0.00    +0.000 A 
ATOM     17  C   UNL     1      46.940   2.429   6.668  0.00  0.00    +0.000 A 
ATOM     18 CL   UNL     1      48.059   2.551   5.367  0.00  0.00    +0.000 Cl
ATOM     19  C   UNL     1      46.098   3.499   6.962  0.00  0.00    +0.000 A 
ATOM     20  C   UNL     1      45.188   3.401   8.018  0.00  0.00    +0.000 A 
ENDBRANCH  13  14
ENDBRANCH  12  13
ENDBRANCH  11  12
ENDBRANCH   4  11
TORSDOF 6
ENDMDL
MODEL 7
REMARK VINA RESULT:    -5.784      5.178      7.847
REMARK INTER + INTRA:          -8.245
REMARK INTER:                  -7.897
REMARK INTRA:                  -0.348
REMARK UNBOUND:                -0.601
REMARK  Name = 
REMARK  6 active torsions:
REMARK  status: ('A' for Active; 'I' for Inactive)
REMARK    1  A    between atoms: N_1  and  C_2
REMARK    2  A    between atoms: C_2  and  C_3
REMARK    3  A    between atoms: C_6  and  O_7
REMARK    4  A    between atoms: O_7  and  C_8
REMARK    5  A    between atoms: C_8  and  C_9
REMARK    6  A    between atoms: C_9  and  C_10
REMARK                            x       y       z     vdW  Elec       q    Type
REMARK                         _______ _______ _______ _____ _____    ______ ____
ROOT
ATOM      1  C   UNL     1      48.520   4.407  18.387  0.00  0.00    +0.000 A 
ATOM      2  C   UNL     1      48.735   5.322  17.350  0.00  0.00    +0.000 A 
ATOM      3  C   UNL     1      48.042   5.184  16.144  0.00  0.00    +0.000 A 
ATOM      4  C   UNL     1      47.153   4.128  16.017  0.00  0.00    +0.000 A 
ATOM      5  N   UNL     1      46.931   3.224  16.993  0.00  0.00    +0.000 NA
ATOM      6  C   UNL     1      47.614   3.379  18.146  0.00  0.00    +0.000 A 
ENDROOT
BRANCH   1   7
ATOM      7  C   UNL     1      49.238   4.496  19.702  0.00  0.00    +0.000 C 
BRANCH   7   8
ATOM      8  N   UNL     1      48.470   3.887  20.780  0.00  0.00    +0.000 NA
ATOM      9  H   UNL     1      47.896   3.138  20.397  0.00  0.00    +0.000 HD
ATOM     10  H   UNL     1      47.821   4.576  21.157  0.00  0.00    +0.000 HD
ENDBRANCH   7   8
ENDBRANCH   1   7
BRANCH   4  11
ATOM     11  O   UNL     1      46.464   4.011  14.823  0.00  0.00    +0.000 OA
BRANCH  11  12
ATOM     12  C   UNL     1      46.797   5.073  13.918  0.00  0.00    +0.000 C 
BRANCH  12  13
ATOM     13  C   UNL     1      45.541   5.578  13.210  0.00  0.00    +0.000 C 
BRANCH  13  14
ATOM     14  C   UNL     1      45.434   5.016  11.810  0.00  0.00    +0.000 A 
ATOM     15  C   UNL     1      45.815   5.789  10.705  0.00  0.00    +0.000 A 
ATOM     16  C   UNL     1      45.688   5.284   9.408  0.00  0.00    +0.000 A 
ATOM     17  C   UNL     1      45.174   4.005   9.209  0.00  0.00    +0.000 A 
ATOM     18 CL   UNL     1      45.020   3.382   7.613  0.00  0.00    +0.000 Cl
ATOM     19  C   UNL     1      44.782   3.229  10.298  0.00  0.00    +0.000 A 
ATOM     20  C   UNL     1      44.907   3.734  11.594  0.00  0.00    +0.000 A 
ENDBRANCH  13  14
ENDBRANCH  12  13
ENDBRANCH  11  12
ENDBRANCH   4  11
TORSDOF 6
ENDMDL
MODEL 8
REMARK VINA RESULT:    -5.556      3.920      6.748
REMARK INTER + INTRA:          -7.943
REMARK INTER:                  -7.579
REMARK INTRA:                  -0.364
REMARK UNBOUND:                -0.601
REMARK  Name = 
REMARK  6 active torsions:
REMARK  status: ('A' for Active; 'I' for Inactive)
REMARK    1  A    between atoms: N_1  and  C_2
REMARK    2  A    between atoms: C_2  and  C_3
REMARK    3  A    between atoms: C_6  and  O_7
REMARK    4  A    between atoms: O_7  and  C_8
REMARK    5  A    between atoms: C_8  and  C_9
REMARK    6  A    between atoms: C_9  and  C_10
REMARK                            x       y       z     vdW  Elec       q    Type
REMARK                         _______ _______ _______ _____ _____    ______ ____
ROOT
ATOM      1  C   UNL     1      48.324   5.554  15.872  0.00  0.00    +0.000 A 
ATOM      2  C   UNL     1      47.401   4.520  15.683  0.00  0.00    +0.000 A 
ATOM      3  C   UNL     1      46.642   4.469  14.511  0.00  0.00    +0.000 A 
ATOM      4  C   UNL     1      46.833   5.463  13.564  0.00  0.00    +0.000 A 
ATOM      5  N   UNL     1      47.706   6.479  13.721  0.00  0.00    +0.000 NA
ATOM      6  C   UNL     1      48.425   6.505  14.861  0.00  0.00    +0.000 A 
ENDROOT
BRANCH   1   7
ATOM      7  C   UNL     1      49.164   5.669  17.112  0.00  0.00    +0.000 C 
BRANCH   7   8
ATOM      8  N   UNL     1      50.582   5.508  16.821  0.00  0.00    +0.000 NA
ATOM      9  H   UNL     1      50.717   5.509  15.812  0.00  0.00    +0.000 HD
ATOM     10  H   UNL     1      50.887   4.591  17.146  0.00  0.00    +0.000 HD
ENDBRANCH   7   8
ENDBRANCH   1   7
BRANCH   4  11
ATOM     11  O   UNL     1      46.084   5.394  12.403  0.00  0.00    +0.000 OA
BRANCH  11  12
ATOM     12  C   UNL     1      45.332   4.173  12.334  0.00  0.00    +0.000 C 
BRANCH  12  13
ATOM     13  C   UNL     1      44.373   4.209  11.145  0.00  0.00    +0.000 C 
BRANCH  13  14
ATOM     14  C   UNL     1      45.038   3.699   9.886  0.00  0.00    +0.000 A 
ATOM     15  C   UNL     1      45.537   4.598   8.933  0.00  0.00    +0.000 A 
ATOM     16  C   UNL     1      46.123   4.130   7.754  0.00  0.00    +0.000 A 
ATOM     17  C   UNL     1      46.210   2.760   7.520  0.00  0.00    +0.000 A 
ATOM     18 CL   UNL     1      46.935   2.183   6.070  0.00  0.00    +0.000 Cl
ATOM     19  C   UNL     1      45.709   1.854   8.453  0.00  0.00    +0.000 A 
ATOM     20  C   UNL     1      45.121   2.322   9.632  0.00  0.00    +0.000 A 
ENDBRANCH  13  14
ENDBRANCH  12  13
ENDBRANCH  11  12
ENDBRANCH   4  11
TORSDOF 6
ENDMDL
MODEL 9
REMARK VINA RESULT:    -5.511      1.702      2.581
REMARK INTER + INTRA:          -7.883
REMARK INTER:                  -7.408
REMARK INTRA:                  -0.476
REMARK UNBOUND:                -0.601
REMARK  Name = 
REMARK  6 active torsions:
REMARK  status: ('A' for Active; 'I' for Inactive)
REMARK    1  A    between atoms: N_1  and  C_2
REMARK    2  A    between atoms: C_2  and  C_3
REMARK    3  A    between atoms: C_6  and  O_7
REMARK    4  A    between atoms: O_7  and  C_8
REMARK    5  A    between atoms: C_8  and  C_9
REMARK    6  A    between atoms: C_9  and  C_10
REMARK                            x       y       z     vdW  Elec       q    Type
REMARK                         _______ _______ _______ _____ _____    ______ ____
ROOT
ATOM      1  C   UNL     1      45.584   3.318   8.095  0.00  0.00    +0.000 A 
ATOM      2  C   UNL     1      45.641   4.620   8.604  0.00  0.00    +0.000 A 
ATOM      3  C   UNL     1      45.190   4.881   9.901  0.00  0.00    +0.000 A 
ATOM      4  C   UNL     1      44.693   3.824  10.646  0.00  0.00    +0.000 A 
ATOM      5  N   UNL     1      44.615   2.561  10.181  0.00  0.00    +0.000 NA
ATOM      6  C   UNL     1      45.056   2.336   8.927  0.00  0.00    +0.000 A 
ENDROOT
BRANCH   1   7
ATOM      7  C   UNL     1      46.046   2.973   6.709  0.00  0.00    +0.000 C 
BRANCH   7   8
ATOM      8  N   UNL     1      47.316   3.611   6.387  0.00  0.00    +0.000 NA
ATOM      9  H   UNL     1      47.969   2.902   6.057  0.00  0.00    +0.000 HD
ATOM     10  H   UNL     1      47.722   3.994   7.241  0.00  0.00    +0.000 HD
ENDBRANCH   7   8
ENDBRANCH   1   7
BRANCH   4  11
ATOM     11  O   UNL     1      44.261   4.094  11.933  0.00  0.00    +0.000 OA
BRANCH  11  12
ATOM     12  C   UNL     1      45.364   4.345  12.815  0.00  0.00    +0.000 C 
BRANCH  12  13
ATOM     13  C   UNL     1      45.411   5.825  13.196  0.00  0.00    +0.000 C 
BRANCH  13  14
ATOM     14  C   UNL     1      46.794   6.402  12.993  0.00  0.00    +0.000 A 
ATOM     15  C   UNL     1      47.759   6.304  14.006  0.00  0.00    +0.000 A 
ATOM     16  C   UNL     1      49.028   6.864  13.833  0.00  0.00    +0.000 A 
ATOM     17  C   UNL     1      49.337   7.529  12.649  0.00  0.00    +0.000 A 
ATOM     18 CL   UNL     1      50.900   8.216  12.435  0.00  0.00    +0.000 Cl
ATOM     19  C   UNL     1      48.385   7.643  11.638  0.00  0.00    +0.000 A 
ATOM     20  C   UNL     1      47.116   7.084  11.811  0.00  0.00    +0.000 A 
ENDBRANCH  13  14
ENDBRANCH  12  13
ENDBRANCH  11  12
ENDBRANCH   4  11
TORSDOF 6
ENDMDL
