MODEL 1
REMARK VINA RESULT:    -7.948      0.000      0.000
REMARK INTER + INTRA:         -12.443
REMARK INTER:                 -11.898
REMARK INTRA:                  -0.545
REMARK UNBOUND:                -0.545
REMARK  Name = 
REMARK  9 active torsions:
REMARK  status: ('A' for Active; 'I' for Inactive)
REMARK    1  A    between atoms: C_2  and  C_3
REMARK    2  A    between atoms: C_3  and  N_4
REMARK    3  A    between atoms: C_3  and  C_17
REMARK    4  A    between atoms: C_5  and  C_7
REMARK    5  A    between atoms: C_20  and  C_21
REMARK    6  A    between atoms: C_21  and  N_22
REMARK    7  A    between atoms: C_23  and  C_25
REMARK    8  A    between atoms: N_29  and  C_30
REMARK    9  A    between atoms: C_30  and  O_31
REMARK                            x       y       z     vdW  Elec       q    Type
REMARK                         _______ _______ _______ _____ _____    ______ ____
ROOT
ATOM      1  C   UNL     1      46.017   7.095  12.587  0.00  0.00    +0.000 A 
ATOM      2  C   UNL     1      44.998   6.427  13.289  0.00  0.00    +0.000 A 
ATOM      3  C   UNL     1      44.308   5.351  12.713  0.00  0.00    +0.000 A 
ATOM      4  C   UNL     1      44.628   4.899  11.426  0.00  0.00    +0.000 A 
ATOM      5  C   UNL     1      45.650   5.555  10.728  0.00  0.00    +0.000 A 
ATOM      6  C   UNL     1      46.346   6.627  11.305  0.00  0.00    +0.000 A 
ENDROOT
BRANCH   1   7
ATOM      7  C   UNL     1      46.756   8.258  13.256  0.00  0.00    +0.000 C 
BRANCH   7   8
ATOM      8  N   UNL     1      47.387   7.772  14.470  0.00  0.00    +0.000 N 
ATOM      9  C   UNL     1      48.383   6.831  14.438  0.00  0.00    +0.000 C 
ATOM     10  O   UNL     1      48.848   6.410  13.384  0.00  0.00    +0.000 OA
ATOM     11  H   UNL     1      46.860   7.900  15.326  0.00  0.00    +0.000 HD
BRANCH   9  12
ATOM     12  C   UNL     1      48.924   6.431  15.741  0.00  0.00    +0.000 A 
ATOM     13  C   UNL     1      49.927   7.180  16.339  0.00  0.00    +0.000 A 
ATOM     14  S   UNL     1      50.364   6.614  17.889  0.00  0.00    +0.000 S 
ATOM     15  C   UNL     1      49.275   5.311  17.783  0.00  0.00    +0.000 A 
ATOM     16  N   UNL     1      49.156   4.407  18.792  0.00  0.00    +0.000 NA
ATOM     17  C   UNL     1      48.325   3.448  18.553  0.00  0.00    +0.000 A 
ATOM     18  N   UNL     1      47.596   3.313  17.400  0.00  0.00    +0.000 N 
ATOM     19  C   UNL     1      47.641   4.231  16.379  0.00  0.00    +0.000 A 
ATOM     20  O   UNL     1      46.908   4.143  15.398  0.00  0.00    +0.000 OA
ATOM     21  C   UNL     1      48.578   5.317  16.588  0.00  0.00    +0.000 A 
ATOM     22  H   UNL     1      46.952   2.543  17.281  0.00  0.00    +0.000 HD
ENDBRANCH   9  12
ENDBRANCH   7   8
BRANCH   7  24
ATOM     23  N   UNL     1      48.525   9.452  11.699  0.00  0.00    +0.000 NA
ATOM     24  C   UNL     1      47.731   8.929  12.370  0.00  0.00    +0.000 C 
ENDBRANCH   7  24
ENDBRANCH   1   7
BRANCH   4  25
ATOM     25  C   UNL     1      43.914   3.714  10.821  0.00  0.00    +0.000 C 
BRANCH  25  26
ATOM     26  N   UNL     1      44.786   2.829  10.090  0.00  0.00    +0.000 N 
ATOM     27  C   UNL     1      45.015   2.981   8.739  0.00  0.00    +0.000 C 
ATOM     28  O   UNL     1      44.510   3.881   8.073  0.00  0.00    +0.000 OA
ATOM     29  H   UNL     1      45.306   2.095  10.562  0.00  0.00    +0.000 HD
BRANCH  27  30
ATOM     30  C   UNL     1      45.907   1.979   8.173  0.00  0.00    +0.000 A 
ATOM     31  N   UNL     1      45.766   0.678   8.401  0.00  0.00    +0.000 NA
ATOM     32  C   UNL     1      46.756   0.063   7.678  0.00  0.00    +0.000 A 
ATOM     33  C   UNL     1      47.515   0.982   7.005  0.00  0.00    +0.000 A 
ATOM     34  N   UNL     1      46.996   2.202   7.354  0.00  0.00    +0.000 N 
BRANCH  34  35
ATOM     35  C   UNL     1      47.503   3.482   6.894  0.00  0.00    +0.000 C 
BRANCH  35  36
ATOM     36  O   UNL     1      46.683   3.970   5.840  0.00  0.00    +0.000 OA
ATOM     37  H   UNL     1      45.905   4.381   6.272  0.00  0.00    +0.000 HD
ENDBRANCH  35  36
ENDBRANCH  34  35
ENDBRANCH  27  30
ENDBRANCH  25  26
ENDBRANCH   4  25
TORSDOF 9
ENDMDL
MODEL 2
REMARK VINA RESULT:    -7.831      2.663      3.830
REMARK INTER + INTRA:         -12.267
REMARK INTER:                 -11.178
REMARK INTRA:                  -1.089
REMARK UNBOUND:                -0.545
REMARK  Name = 
REMARK  9 active torsions:
REMARK  status: ('A' for Active; 'I' for Inactive)
REMARK    1  A    between atoms: C_2  and  C_3
REMARK    2  A    between atoms: C_3  and  N_4
REMARK    3  A    between atoms: C_3  and  C_17
REMARK    4  A    between atoms: C_5  and  C_7
REMARK    5  A    between atoms: C_20  and  C_21
REMARK    6  A    between atoms: C_21  and  N_22
REMARK    7  A    between atoms: C_23  and  C_25
REMARK    8  A    between atoms: N_29  and  C_30
REMARK    9  A    between atoms: C_30  and  O_31
REMARK                            x       y       z     vdW  Elec       q    Type
REMARK                         _______ _______ _______ _____ _____    ______ ____
ROOT
ATOM      1  C   UNL     1      46.862   4.844  14.011  0.00  0.00    +0.000 A 
ATOM      2  C   UNL     1      46.347   3.634  13.512  0.00  0.00    +0.000 A 
ATOM      3  C   UNL     1      45.567   3.605  12.347  0.00  0.00    +0.000 A 
ATOM      4  C   UNL     1      45.294   4.782  11.636  0.00  0.00    +0.000 A 
ATOM      5  C   UNL     1      45.816   5.987  12.124  0.00  0.00    +0.000 A 
ATOM      6  C   UNL     1      46.601   6.017  13.285  0.00  0.00    +0.000 A 
ENDROOT
BRANCH   1   7
ATOM      7  C   UNL     1      47.720   4.831  15.279  0.00  0.00    +0.000 C 
BRANCH   7   8
ATOM      8  N   UNL     1      47.900   6.198  15.734  0.00  0.00    +0.000 N 
ATOM      9  C   UNL     1      49.097   6.639  16.234  0.00  0.00    +0.000 C 
ATOM     10  O   UNL     1      50.098   5.930  16.250  0.00  0.00    +0.000 OA
ATOM     11  H   UNL     1      47.054   6.702  15.969  0.00  0.00    +0.000 HD
BRANCH   9  12
ATOM     12  C   UNL     1      49.132   8.042  16.660  0.00  0.00    +0.000 A 
ATOM     13  C   UNL     1      49.874   8.970  15.943  0.00  0.00    +0.000 A 
ATOM     14  S   UNL     1      49.721  10.564  16.534  0.00  0.00    +0.000 S 
ATOM     15  C   UNL     1      48.711  10.056  17.806  0.00  0.00    +0.000 A 
ATOM     16  N   UNL     1      48.223  10.941  18.716  0.00  0.00    +0.000 NA
ATOM     17  C   UNL     1      47.510  10.407  19.650  0.00  0.00    +0.000 A 
ATOM     18  N   UNL     1      47.235   9.067  19.756  0.00  0.00    +0.000 N 
ATOM     19  C   UNL     1      47.659   8.145  18.830  0.00  0.00    +0.000 A 
ATOM     20  O   UNL     1      47.319   6.967  18.890  0.00  0.00    +0.000 OA
ATOM     21  C   UNL     1      48.484   8.692  17.772  0.00  0.00    +0.000 A 
ATOM     22  H   UNL     1      46.658   8.715  20.507  0.00  0.00    +0.000 HD
ENDBRANCH   9  12
ENDBRANCH   7   8
BRANCH   7  24
ATOM     23  N   UNL     1      46.768   3.262  17.181  0.00  0.00    +0.000 NA
ATOM     24  C   UNL     1      47.177   3.970  16.352  0.00  0.00    +0.000 C 
ENDBRANCH   7  24
ENDBRANCH   1   7
BRANCH   4  25
ATOM     25  C   UNL     1      44.490   4.747  10.359  0.00  0.00    +0.000 C 
BRANCH  25  26
ATOM     26  N   UNL     1      45.256   4.341   9.207  0.00  0.00    +0.000 N 
ATOM     27  C   UNL     1      45.198   3.058   8.707  0.00  0.00    +0.000 C 
ATOM     28  O   UNL     1      44.486   2.182   9.192  0.00  0.00    +0.000 OA
ATOM     29  H   UNL     1      45.822   5.008   8.691  0.00  0.00    +0.000 HD
BRANCH  27  30
ATOM     30  C   UNL     1      46.058   2.833   7.553  0.00  0.00    +0.000 A 
ATOM     31  N   UNL     1      46.291   3.766   6.636  0.00  0.00    +0.000 NA
ATOM     32  C   UNL     1      47.163   3.201   5.743  0.00  0.00    +0.000 A 
ATOM     33  C   UNL     1      47.470   1.915   6.101  0.00  0.00    +0.000 A 
ATOM     34  N   UNL     1      46.733   1.673   7.231  0.00  0.00    +0.000 N 
BRANCH  34  35
ATOM     35  C   UNL     1      46.719   0.417   7.959  0.00  0.00    +0.000 C 
BRANCH  35  36
ATOM     36  O   UNL     1      46.720  -0.668   7.041  0.00  0.00    +0.000 OA
ATOM     37  H   UNL     1      46.189  -1.377   7.461  0.00  0.00    +0.000 HD
ENDBRANCH  35  36
ENDBRANCH  34  35
ENDBRANCH  27  30
ENDBRANCH  25  26
ENDBRANCH   4  25
TORSDOF 9
ENDMDL
MODEL 3
REMARK VINA RESULT:    -7.649      2.144      2.515
REMARK INTER + INTRA:         -11.995
REMARK INTER:                 -10.844
REMARK INTRA:                  -1.151
REMARK UNBOUND:                -0.545
REMARK  Name = 
REMARK  9 active torsions:
REMARK  status: ('A' for Active; 'I' for Inactive)
REMARK    1  A    between atoms: C_2  and  C_3
REMARK    2  A    between atoms: C_3  and  N_4
REMARK    3  A    between atoms: C_3  and  C_17
REMARK    4  A    between atoms: C_5  and  C_7
REMARK    5  A    between atoms: C_20  and  C_21
REMARK    6  A    between atoms: C_21  and  N_22
REMARK    7  A    between atoms: C_23  and  C_25
REMARK    8  A    between atoms: N_29  and  C_30
REMARK    9  A    between atoms: C_30  and  O_31
REMARK                            x       y       z     vdW  Elec       q    Type
REMARK                         _______ _______ _______ _____ _____    ______ ____
ROOT
ATOM      1  C   UNL     1      47.273   5.846  14.211  0.00  0.00    +0.000 A 
ATOM      2  C   UNL     1      46.545   6.397  13.141  0.00  0.00    +0.000 A 
ATOM      3  C   UNL     1      45.753   5.589  12.313  0.00  0.00    +0.000 A 
ATOM      4  C   UNL     1      45.650   4.211  12.539  0.00  0.00    +0.000 A 
ATOM      5  C   UNL     1      46.365   3.660  13.611  0.00  0.00    +0.000 A 
ATOM      6  C   UNL     1      47.152   4.466  14.445  0.00  0.00    +0.000 A 
ENDROOT
BRANCH   1   7
ATOM      7  C   UNL     1      48.116   6.763  15.100  0.00  0.00    +0.000 C 
BRANCH   7   8
ATOM      8  N   UNL     1      49.237   6.003  15.624  0.00  0.00    +0.000 N 
ATOM      9  C   UNL     1      49.496   5.935  16.968  0.00  0.00    +0.000 C 
ATOM     10  O   UNL     1      48.754   6.442  17.802  0.00  0.00    +0.000 OA
ATOM     11  H   UNL     1      49.984   5.807  14.969  0.00  0.00    +0.000 HD
BRANCH   9  12
ATOM     12  C   UNL     1      50.664   5.136  17.352  0.00  0.00    +0.000 A 
ATOM     13  C   UNL     1      51.822   5.761  17.795  0.00  0.00    +0.000 A 
ATOM     14  S   UNL     1      53.039   4.668  18.282  0.00  0.00    +0.000 S 
ATOM     15  C   UNL     1      52.084   3.325  17.856  0.00  0.00    +0.000 A 
ATOM     16  N   UNL     1      52.545   2.055  18.008  0.00  0.00    +0.000 NA
ATOM     17  C   UNL     1      51.730   1.140  17.601  0.00  0.00    +0.000 A 
ATOM     18  N   UNL     1      50.493   1.378  17.061  0.00  0.00    +0.000 N 
ATOM     19  C   UNL     1      49.963   2.640  16.940  0.00  0.00    +0.000 A 
ATOM     20  O   UNL     1      48.816   2.823  16.545  0.00  0.00    +0.000 OA
ATOM     21  C   UNL     1      50.849   3.706  17.363  0.00  0.00    +0.000 A 
ATOM     22  H   UNL     1      49.898   0.613  16.773  0.00  0.00    +0.000 HD
ENDBRANCH   9  12
ENDBRANCH   7   8
BRANCH   7  24
ATOM     23  N   UNL     1      48.894   8.985  13.900  0.00  0.00    +0.000 NA
ATOM     24  C   UNL     1      48.568   7.996  14.420  0.00  0.00    +0.000 C 
ENDBRANCH   7  24
ENDBRANCH   1   7
BRANCH   4  25
ATOM     25  C   UNL     1      44.765   3.346  11.674  0.00  0.00    +0.000 C 
BRANCH  25  26
ATOM     26  N   UNL     1      45.479   2.652  10.632  0.00  0.00    +0.000 N 
ATOM     27  C   UNL     1      45.126   2.766   9.304  0.00  0.00    +0.000 C 
ATOM     28  O   UNL     1      44.198   3.472   8.917  0.00  0.00    +0.000 OA
ATOM     29  H   UNL     1      46.304   2.098  10.840  0.00  0.00    +0.000 HD
BRANCH  27  30
ATOM     30  C   UNL     1      45.951   1.975   8.402  0.00  0.00    +0.000 A 
ATOM     31  N   UNL     1      45.972   0.646   8.424  0.00  0.00    +0.000 NA
ATOM     32  C   UNL     1      46.825   0.270   7.419  0.00  0.00    +0.000 A 
ATOM     33  C   UNL     1      47.338   1.364   6.775  0.00  0.00    +0.000 A 
ATOM     34  N   UNL     1      46.809   2.446   7.429  0.00  0.00    +0.000 N 
BRANCH  34  35
ATOM     35  C   UNL     1      47.094   3.832   7.105  0.00  0.00    +0.000 C 
BRANCH  35  36
ATOM     36  O   UNL     1      46.835   4.064   5.727  0.00  0.00    +0.000 OA
ATOM     37  H   UNL     1      46.656   5.024   5.643  0.00  0.00    +0.000 HD
ENDBRANCH  35  36
ENDBRANCH  34  35
ENDBRANCH  27  30
ENDBRANCH  25  26
ENDBRANCH   4  25
TORSDOF 9
ENDMDL
MODEL 4
REMARK VINA RESULT:    -7.119      2.396      3.403
REMARK INTER + INTRA:         -11.202
REMARK INTER:                  -9.828
REMARK INTRA:                  -1.374
REMARK UNBOUND:                -0.545
REMARK  Name = 
REMARK  9 active torsions:
REMARK  status: ('A' for Active; 'I' for Inactive)
REMARK    1  A    between atoms: C_2  and  C_3
REMARK    2  A    between atoms: C_3  and  N_4
REMARK    3  A    between atoms: C_3  and  C_17
REMARK    4  A    between atoms: C_5  and  C_7
REMARK    5  A    between atoms: C_20  and  C_21
REMARK    6  A    between atoms: C_21  and  N_22
REMARK    7  A    between atoms: C_23  and  C_25
REMARK    8  A    between atoms: N_29  and  C_30
REMARK    9  A    between atoms: C_30  and  O_31
REMARK                            x       y       z     vdW  Elec       q    Type
REMARK                         _______ _______ _______ _____ _____    ______ ____
ROOT
ATOM      1  C   UNL     1      48.647   8.362  13.572  0.00  0.00    +0.000 A 
ATOM      2  C   UNL     1      47.498   9.159  13.716  0.00  0.00    +0.000 A 
ATOM      3  C   UNL     1      46.335   8.892  12.978  0.00  0.00    +0.000 A 
ATOM      4  C   UNL     1      46.281   7.811  12.089  0.00  0.00    +0.000 A 
ATOM      5  C   UNL     1      47.422   7.008  11.952  0.00  0.00    +0.000 A 
ATOM      6  C   UNL     1      48.582   7.269  12.693  0.00  0.00    +0.000 A 
ENDROOT
BRANCH   1   7
ATOM      7  C   UNL     1      49.892   8.679  14.405  0.00  0.00    +0.000 C 
BRANCH   7   8
ATOM      8  N   UNL     1      49.925   7.788  15.552  0.00  0.00    +0.000 N 
ATOM      9  C   UNL     1      49.333   8.124  16.741  0.00  0.00    +0.000 C 
ATOM     10  O   UNL     1      48.678   9.152  16.877  0.00  0.00    +0.000 OA
ATOM     11  H   UNL     1      50.655   7.086  15.546  0.00  0.00    +0.000 HD
BRANCH   9  12
ATOM     12  C   UNL     1      49.451   7.130  17.813  0.00  0.00    +0.000 A 
ATOM     13  C   UNL     1      49.996   7.487  19.038  0.00  0.00    +0.000 A 
ATOM     14  S   UNL     1      49.966   6.226  20.188  0.00  0.00    +0.000 S 
ATOM     15  C   UNL     1      49.284   5.142  19.067  0.00  0.00    +0.000 A 
ATOM     16  N   UNL     1      49.010   3.855  19.407  0.00  0.00    +0.000 NA
ATOM     17  C   UNL     1      48.539   3.138  18.443  0.00  0.00    +0.000 A 
ATOM     18  N   UNL     1      48.310   3.592  17.169  0.00  0.00    +0.000 N 
ATOM     19  C   UNL     1      48.518   4.897  16.795  0.00  0.00    +0.000 A 
ATOM     20  O   UNL     1      48.214   5.305  15.678  0.00  0.00    +0.000 OA
ATOM     21  C   UNL     1      49.070   5.739  17.838  0.00  0.00    +0.000 A 
ATOM     22  H   UNL     1      47.926   2.979  16.462  0.00  0.00    +0.000 HD
ENDBRANCH   9  12
ENDBRANCH   7   8
BRANCH   7  24
ATOM     23  N   UNL     1      52.138   8.530  13.020  0.00  0.00    +0.000 NA
ATOM     24  C   UNL     1      51.153   8.617  13.634  0.00  0.00    +0.000 C 
ENDBRANCH   7  24
ENDBRANCH   1   7
BRANCH   4  25
ATOM     25  C   UNL     1      45.017   7.497  11.326  0.00  0.00    +0.000 C 
BRANCH  25  26
ATOM     26  N   UNL     1      45.057   6.229  10.642  0.00  0.00    +0.000 N 
ATOM     27  C   UNL     1      43.931   5.450  10.481  0.00  0.00    +0.000 C 
ATOM     28  O   UNL     1      42.822   5.785  10.890  0.00  0.00    +0.000 OA
ATOM     29  H   UNL     1      45.911   5.894  10.205  0.00  0.00    +0.000 HD
BRANCH  27  30
ATOM     30  C   UNL     1      44.174   4.196   9.782  0.00  0.00    +0.000 A 
ATOM     31  N   UNL     1      44.628   4.142   8.535  0.00  0.00    +0.000 NA
ATOM     32  C   UNL     1      44.763   2.809   8.244  0.00  0.00    +0.000 A 
ATOM     33  C   UNL     1      44.389   2.034   9.309  0.00  0.00    +0.000 A 
ATOM     34  N   UNL     1      43.978   2.919  10.271  0.00  0.00    +0.000 N 
BRANCH  34  35
ATOM     35  C   UNL     1      43.468   2.547  11.578  0.00  0.00    +0.000 C 
BRANCH  35  36
ATOM     36  O   UNL     1      44.518   2.606  12.535  0.00  0.00    +0.000 OA
ATOM     37  H   UNL     1      45.335   2.356  12.056  0.00  0.00    +0.000 HD
ENDBRANCH  35  36
ENDBRANCH  34  35
ENDBRANCH  27  30
ENDBRANCH  25  26
ENDBRANCH   4  25
TORSDOF 9
ENDMDL
MODEL 5
REMARK VINA RESULT:    -7.084      1.807      1.990
REMARK INTER + INTRA:         -11.149
REMARK INTER:                 -10.445
REMARK INTRA:                  -0.704
REMARK UNBOUND:                -0.545
REMARK  Name = 
REMARK  9 active torsions:
REMARK  status: ('A' for Active; 'I' for Inactive)
REMARK    1  A    between atoms: C_2  and  C_3
REMARK    2  A    between atoms: C_3  and  N_4
REMARK    3  A    between atoms: C_3  and  C_17
REMARK    4  A    between atoms: C_5  and  C_7
REMARK    5  A    between atoms: C_20  and  C_21
REMARK    6  A    between atoms: C_21  and  N_22
REMARK    7  A    between atoms: C_23  and  C_25
REMARK    8  A    between atoms: N_29  and  C_30
REMARK    9  A    between atoms: C_30  and  O_31
REMARK                            x       y       z     vdW  Elec       q    Type
REMARK                         _______ _______ _______ _____ _____    ______ ____
ROOT
ATOM      1  C   UNL     1      47.009   7.185  12.933  0.00  0.00    +0.000 A 
ATOM      2  C   UNL     1      46.075   7.733  12.036  0.00  0.00    +0.000 A 
ATOM      3  C   UNL     1      45.195   6.912  11.317  0.00  0.00    +0.000 A 
ATOM      4  C   UNL     1      45.209   5.521  11.487  0.00  0.00    +0.000 A 
ATOM      5  C   UNL     1      46.131   4.972  12.388  0.00  0.00    +0.000 A 
ATOM      6  C   UNL     1      47.007   5.792  13.113  0.00  0.00    +0.000 A 
ENDROOT
BRANCH   1   7
ATOM      7  C   UNL     1      47.944   8.116  13.709  0.00  0.00    +0.000 C 
BRANCH   7   8
ATOM      8  N   UNL     1      47.901   7.756  15.115  0.00  0.00    +0.000 N 
ATOM      9  C   UNL     1      48.384   8.591  16.088  0.00  0.00    +0.000 C 
ATOM     10  O   UNL     1      48.803   9.715  15.834  0.00  0.00    +0.000 OA
ATOM     11  H   UNL     1      47.809   6.767  15.316  0.00  0.00    +0.000 HD
BRANCH   9  12
ATOM     12  C   UNL     1      48.279   8.094  17.464  0.00  0.00    +0.000 A 
ATOM     13  C   UNL     1      47.833   8.933  18.476  0.00  0.00    +0.000 A 
ATOM     14  S   UNL     1      47.690   8.155  19.988  0.00  0.00    +0.000 S 
ATOM     15  C   UNL     1      48.282   6.690  19.355  0.00  0.00    +0.000 A 
ATOM     16  N   UNL     1      48.430   5.591  20.141  0.00  0.00    +0.000 NA
ATOM     17  C   UNL     1      48.933   4.567  19.536  0.00  0.00    +0.000 A 
ATOM     18  N   UNL     1      49.295   4.539  18.214  0.00  0.00    +0.000 N 
ATOM     19  C   UNL     1      49.111   5.606  17.369  0.00  0.00    +0.000 A 
ATOM     20  O   UNL     1      49.352   5.528  16.168  0.00  0.00    +0.000 OA
ATOM     21  C   UNL     1      48.571   6.791  18.006  0.00  0.00    +0.000 A 
ATOM     22  H   UNL     1      49.672   3.698  17.798  0.00  0.00    +0.000 HD
ENDBRANCH   9  12
ENDBRANCH   7   8
BRANCH   7  24
ATOM     23  N   UNL     1      50.430   8.163  12.813  0.00  0.00    +0.000 NA
ATOM     24  C   UNL     1      49.331   8.126  13.195  0.00  0.00    +0.000 C 
ENDBRANCH   7  24
ENDBRANCH   1   7
BRANCH   4  25
ATOM     25  C   UNL     1      44.234   4.639  10.745  0.00  0.00    +0.000 C 
BRANCH  25  26
ATOM     26  N   UNL     1      44.864   3.557  10.030  0.00  0.00    +0.000 N 
ATOM     27  C   UNL     1      45.452   3.741   8.797  0.00  0.00    +0.000 C 
ATOM     28  O   UNL     1      45.494   4.830   8.232  0.00  0.00    +0.000 OA
ATOM     29  H   UNL     1      44.943   2.632  10.442  0.00  0.00    +0.000 HD
BRANCH  27  30
ATOM     30  C   UNL     1      46.017   2.527   8.225  0.00  0.00    +0.000 A 
ATOM     31  N   UNL     1      45.801   1.320   8.738  0.00  0.00    +0.000 NA
ATOM     32  C   UNL     1      46.457   0.442   7.914  0.00  0.00    +0.000 A 
ATOM     33  C   UNL     1      47.084   1.102   6.891  0.00  0.00    +0.000 A 
ATOM     34  N   UNL     1      46.834   2.431   7.115  0.00  0.00    +0.000 N 
BRANCH  34  35
ATOM     35  C   UNL     1      47.325   3.519   6.290  0.00  0.00    +0.000 C 
BRANCH  35  36
ATOM     36  O   UNL     1      48.146   2.999   5.252  0.00  0.00    +0.000 OA
ATOM     37  H   UNL     1      48.649   3.762   4.898  0.00  0.00    +0.000 HD
ENDBRANCH  35  36
ENDBRANCH  34  35
ENDBRANCH  27  30
ENDBRANCH  25  26
ENDBRANCH   4  25
TORSDOF 9
ENDMDL
MODEL 6
REMARK VINA RESULT:    -6.806      2.981      4.321
REMARK INTER + INTRA:         -10.733
REMARK INTER:                  -9.462
REMARK INTRA:                  -1.271
REMARK UNBOUND:                -0.545
REMARK  Name = 
REMARK  9 active torsions:
REMARK  status: ('A' for Active; 'I' for Inactive)
REMARK    1  A    between atoms: C_2  and  C_3
REMARK    2  A    between atoms: C_3  and  N_4
REMARK    3  A    between atoms: C_3  and  C_17
REMARK    4  A    between atoms: C_5  and  C_7
REMARK    5  A    between atoms: C_20  and  C_21
REMARK    6  A    between atoms: C_21  and  N_22
REMARK    7  A    between atoms: C_23  and  C_25
REMARK    8  A    between atoms: N_29  and  C_30
REMARK    9  A    between atoms: C_30  and  O_31
REMARK                            x       y       z     vdW  Elec       q    Type
REMARK                         _______ _______ _______ _____ _____    ______ ____
ROOT
ATOM      1  C   UNL     1      49.055   8.251  13.441  0.00  0.00    +0.000 A 
ATOM      2  C   UNL     1      47.891   8.925  13.850  0.00  0.00    +0.000 A 
ATOM      3  C   UNL     1      46.654   8.668  13.242  0.00  0.00    +0.000 A 
ATOM      4  C   UNL     1      46.540   7.716  12.219  0.00  0.00    +0.000 A 
ATOM      5  C   UNL     1      47.697   7.035  11.817  0.00  0.00    +0.000 A 
ATOM      6  C   UNL     1      48.933   7.286  12.428  0.00  0.00    +0.000 A 
ENDROOT
BRANCH   1   7
ATOM      7  C   UNL     1      50.384   8.552  14.139  0.00  0.00    +0.000 C 
BRANCH   7   8
ATOM      8  N   UNL     1      50.789   7.380  14.895  0.00  0.00    +0.000 N 
ATOM      9  C   UNL     1      50.451   7.222  16.214  0.00  0.00    +0.000 C 
ATOM     10  O   UNL     1      49.726   8.017  16.801  0.00  0.00    +0.000 OA
ATOM     11  H   UNL     1      51.577   6.864  14.524  0.00  0.00    +0.000 HD
BRANCH   9  12
ATOM     12  C   UNL     1      50.933   5.992  16.852  0.00  0.00    +0.000 A 
ATOM     13  C   UNL     1      50.031   5.098  17.412  0.00  0.00    +0.000 A 
ATOM     14  S   UNL     1      50.768   3.685  18.025  0.00  0.00    +0.000 S 
ATOM     15  C   UNL     1      52.321   4.251  17.621  0.00  0.00    +0.000 A 
ATOM     16  N   UNL     1      53.433   3.517  17.893  0.00  0.00    +0.000 NA
ATOM     17  C   UNL     1      54.543   4.092  17.573  0.00  0.00    +0.000 A 
ATOM     18  N   UNL     1      54.645   5.333  16.999  0.00  0.00    +0.000 N 
ATOM     19  C   UNL     1      53.549   6.086  16.655  0.00  0.00    +0.000 A 
ATOM     20  O   UNL     1      53.660   7.150  16.053  0.00  0.00    +0.000 OA
ATOM     21  C   UNL     1      52.276   5.494  17.015  0.00  0.00    +0.000 A 
ATOM     22  H   UNL     1      55.548   5.721  16.761  0.00  0.00    +0.000 HD
ENDBRANCH   9  12
ENDBRANCH   7   8
BRANCH   7  24
ATOM     23  N   UNL     1      52.280   9.318  12.465  0.00  0.00    +0.000 NA
ATOM     24  C   UNL     1      51.451   8.996  13.216  0.00  0.00    +0.000 C 
ENDBRANCH   7  24
ENDBRANCH   1   7
BRANCH   4  25
ATOM     25  C   UNL     1      45.202   7.408  11.592  0.00  0.00    +0.000 C 
BRANCH  25  26
ATOM     26  N   UNL     1      45.190   6.182  10.833  0.00  0.00    +0.000 N 
ATOM     27  C   UNL     1      44.033   5.462  10.627  0.00  0.00    +0.000 C 
ATOM     28  O   UNL     1      42.939   5.818  11.056  0.00  0.00    +0.000 OA
ATOM     29  H   UNL     1      46.031   5.839  10.377  0.00  0.00    +0.000 HD
BRANCH  27  30
ATOM     30  C   UNL     1      44.225   4.243   9.854  0.00  0.00    +0.000 A 
ATOM     31  N   UNL     1      44.668   4.246   8.602  0.00  0.00    +0.000 NA
ATOM     32  C   UNL     1      44.752   2.928   8.233  0.00  0.00    +0.000 A 
ATOM     33  C   UNL     1      44.356   2.106   9.254  0.00  0.00    +0.000 A 
ATOM     34  N   UNL     1      43.985   2.948  10.270  0.00  0.00    +0.000 N 
BRANCH  34  35
ATOM     35  C   UNL     1      43.470   2.519  11.557  0.00  0.00    +0.000 C 
BRANCH  35  36
ATOM     36  O   UNL     1      44.515   2.533  12.520  0.00  0.00    +0.000 OA
ATOM     37  H   UNL     1      44.978   1.674  12.428  0.00  0.00    +0.000 HD
ENDBRANCH  35  36
ENDBRANCH  34  35
ENDBRANCH  27  30
ENDBRANCH  25  26
ENDBRANCH   4  25
TORSDOF 9
ENDMDL
MODEL 7
REMARK VINA RESULT:    -6.762      2.892      9.397
REMARK INTER + INTRA:         -10.667
REMARK INTER:                  -9.523
REMARK INTRA:                  -1.144
REMARK UNBOUND:                -0.545
REMARK  Name = 
REMARK  9 active torsions:
REMARK  status: ('A' for Active; 'I' for Inactive)
REMARK    1  A    between atoms: C_2  and  C_3
REMARK    2  A    between atoms: C_3  and  N_4
REMARK    3  A    between atoms: C_3  and  C_17
REMARK    4  A    between atoms: C_5  and  C_7
REMARK    5  A    between atoms: C_20  and  C_21
REMARK    6  A    between atoms: C_21  and  N_22
REMARK    7  A    between atoms: C_23  and  C_25
REMARK    8  A    between atoms: N_29  and  C_30
REMARK    9  A    between atoms: C_30  and  O_31
REMARK                            x       y       z     vdW  Elec       q    Type
REMARK                         _______ _______ _______ _____ _____    ______ ____
ROOT
ATOM      1  C   UNL     1      46.013   5.891  12.692  0.00  0.00    +0.000 A 
ATOM      2  C   UNL     1      46.698   7.107  12.523  0.00  0.00    +0.000 A 
ATOM      3  C   UNL     1      47.758   7.464  13.369  0.00  0.00    +0.000 A 
ATOM      4  C   UNL     1      48.176   6.608  14.396  0.00  0.00    +0.000 A 
ATOM      5  C   UNL     1      47.502   5.390  14.560  0.00  0.00    +0.000 A 
ATOM      6  C   UNL     1      46.447   5.029  13.711  0.00  0.00    +0.000 A 
ENDROOT
BRANCH   1   7
ATOM      7  C   UNL     1      44.869   5.533  11.739  0.00  0.00    +0.000 C 
BRANCH   7   8
ATOM      8  N   UNL     1      45.283   4.412  10.913  0.00  0.00    +0.000 N 
ATOM      9  C   UNL     1      44.646   4.108   9.739  0.00  0.00    +0.000 C 
ATOM     10  O   UNL     1      43.749   4.809   9.283  0.00  0.00    +0.000 OA
ATOM     11  H   UNL     1      45.823   3.693  11.381  0.00  0.00    +0.000 HD
BRANCH   9  12
ATOM     12  C   UNL     1      45.169   2.946   9.013  0.00  0.00    +0.000 A 
ATOM     13  C   UNL     1      44.679   1.676   9.284  0.00  0.00    +0.000 A 
ATOM     14  S   UNL     1      45.340   0.465   8.279  0.00  0.00    +0.000 S 
ATOM     15  C   UNL     1      46.350   1.588   7.494  0.00  0.00    +0.000 A 
ATOM     16  N   UNL     1      47.207   1.200   6.511  0.00  0.00    +0.000 NA
ATOM     17  C   UNL     1      47.942   2.150   6.039  0.00  0.00    +0.000 A 
ATOM     18  N   UNL     1      47.896   3.455   6.456  0.00  0.00    +0.000 N 
ATOM     19  C   UNL     1      47.009   3.904   7.404  0.00  0.00    +0.000 A 
ATOM     20  O   UNL     1      46.918   5.094   7.691  0.00  0.00    +0.000 OA
ATOM     21  C   UNL     1      46.175   2.869   7.982  0.00  0.00    +0.000 A 
ATOM     22  H   UNL     1      48.492   4.154   6.034  0.00  0.00    +0.000 HD
ENDBRANCH   9  12
ENDBRANCH   7   8
BRANCH   7  24
ATOM     23  N   UNL     1      42.583   5.072  12.982  0.00  0.00    +0.000 NA
ATOM     24  C   UNL     1      43.589   5.255  12.427  0.00  0.00    +0.000 C 
ENDBRANCH   7  24
ENDBRANCH   1   7
BRANCH   4  25
ATOM     25  C   UNL     1      49.344   6.971  15.281  0.00  0.00    +0.000 C 
BRANCH  25  26
ATOM     26  N   UNL     1      49.190   6.536  16.647  0.00  0.00    +0.000 N 
ATOM     27  C   UNL     1      50.081   5.668  17.242  0.00  0.00    +0.000 C 
ATOM     28  O   UNL     1      51.067   5.221  16.662  0.00  0.00    +0.000 OA
ATOM     29  H   UNL     1      48.446   6.902  17.234  0.00  0.00    +0.000 HD
BRANCH  27  30
ATOM     30  C   UNL     1      49.746   5.328  18.618  0.00  0.00    +0.000 A 
ATOM     31  N   UNL     1      50.429   5.790  19.660  0.00  0.00    +0.000 NA
ATOM     32  C   UNL     1      49.800   5.289  20.770  0.00  0.00    +0.000 A 
ATOM     33  C   UNL     1      48.728   4.512  20.418  0.00  0.00    +0.000 A 
ATOM     34  N   UNL     1      48.722   4.508  19.048  0.00  0.00    +0.000 N 
BRANCH  34  35
ATOM     35  C   UNL     1      47.768   3.788  18.224  0.00  0.00    +0.000 C 
BRANCH  35  36
ATOM     36  O   UNL     1      46.680   4.642  17.896  0.00  0.00    +0.000 OA
ATOM     37  H   UNL     1      46.986   5.194  17.146  0.00  0.00    +0.000 HD
ENDBRANCH  35  36
ENDBRANCH  34  35
ENDBRANCH  27  30
ENDBRANCH  25  26
ENDBRANCH   4  25
TORSDOF 9
ENDMDL
MODEL 8
REMARK VINA RESULT:    -6.632      4.172      8.703
REMARK INTER + INTRA:         -10.473
REMARK INTER:                  -9.568
REMARK INTRA:                  -0.905
REMARK UNBOUND:                -0.545
REMARK  Name = 
REMARK  9 active torsions:
REMARK  status: ('A' for Active; 'I' for Inactive)
REMARK    1  A    between atoms: C_2  and  C_3
REMARK    2  A    between atoms: C_3  and  N_4
REMARK    3  A    between atoms: C_3  and  C_17
REMARK    4  A    between atoms: C_5  and  C_7
REMARK    5  A    between atoms: C_20  and  C_21
REMARK    6  A    between atoms: C_21  and  N_22
REMARK    7  A    between atoms: C_23  and  C_25
REMARK    8  A    between atoms: N_29  and  C_30
REMARK    9  A    between atoms: C_30  and  O_31
REMARK                            x       y       z     vdW  Elec       q    Type
REMARK                         _______ _______ _______ _____ _____    ______ ____
ROOT
ATOM      1  C   UNL     1      49.157   6.494  15.987  0.00  0.00    +0.000 A 
ATOM      2  C   UNL     1      50.478   6.416  16.463  0.00  0.00    +0.000 A 
ATOM      3  C   UNL     1      50.885   5.365  17.298  0.00  0.00    +0.000 A 
ATOM      4  C   UNL     1      49.990   4.352  17.667  0.00  0.00    +0.000 A 
ATOM      5  C   UNL     1      48.675   4.422  17.185  0.00  0.00    +0.000 A 
ATOM      6  C   UNL     1      48.268   5.468  16.345  0.00  0.00    +0.000 A 
ENDROOT
BRANCH   1   7
ATOM      7  C   UNL     1      48.755   7.651  15.068  0.00  0.00    +0.000 C 
BRANCH   7   8
ATOM      8  N   UNL     1      47.527   7.294  14.379  0.00  0.00    +0.000 N 
ATOM      9  C   UNL     1      47.535   6.528  13.243  0.00  0.00    +0.000 C 
ATOM     10  O   UNL     1      48.565   6.038  12.794  0.00  0.00    +0.000 OA
ATOM     11  H   UNL     1      46.725   7.883  14.570  0.00  0.00    +0.000 HD
BRANCH   9  12
ATOM     12  C   UNL     1      46.222   6.251  12.652  0.00  0.00    +0.000 A 
ATOM     13  C   UNL     1      45.466   7.285  12.118  0.00  0.00    +0.000 A 
ATOM     14  S   UNL     1      44.011   6.760  11.395  0.00  0.00    +0.000 S 
ATOM     15  C   UNL     1      44.312   5.142  11.831  0.00  0.00    +0.000 A 
ATOM     16  N   UNL     1      43.432   4.153  11.522  0.00  0.00    +0.000 NA
ATOM     17  C   UNL     1      43.770   2.985  11.956  0.00  0.00    +0.000 A 
ATOM     18  N   UNL     1      44.911   2.713  12.666  0.00  0.00    +0.000 N 
ATOM     19  C   UNL     1      45.856   3.669  12.951  0.00  0.00    +0.000 A 
ATOM     20  O   UNL     1      46.916   3.386  13.502  0.00  0.00    +0.000 OA
ATOM     21  C   UNL     1      45.512   5.005  12.505  0.00  0.00    +0.000 A 
ATOM     22  H   UNL     1      45.123   1.771  12.965  0.00  0.00    +0.000 HD
ENDBRANCH   9  12
ENDBRANCH   7   8
BRANCH   7  24
ATOM     23  N   UNL     1      48.490   9.969  16.307  0.00  0.00    +0.000 NA
ATOM     24  C   UNL     1      48.627   8.947  15.768  0.00  0.00    +0.000 C 
ENDBRANCH   7  24
ENDBRANCH   1   7
BRANCH   4  25
ATOM     25  C   UNL     1      50.438   3.198  18.531  0.00  0.00    +0.000 C 
BRANCH  25  26
ATOM     26  N   UNL     1      51.830   2.863  18.367  0.00  0.00    +0.000 N 
ATOM     27  C   UNL     1      52.235   1.758  17.648  0.00  0.00    +0.000 C 
ATOM     28  O   UNL     1      51.449   0.999  17.089  0.00  0.00    +0.000 OA
ATOM     29  H   UNL     1      52.562   3.465  18.732  0.00  0.00    +0.000 HD
BRANCH  27  30
ATOM     30  C   UNL     1      53.679   1.573  17.612  0.00  0.00    +0.000 A 
ATOM     31  N   UNL     1      54.518   2.525  17.218  0.00  0.00    +0.000 NA
ATOM     32  C   UNL     1      55.775   1.996  17.357  0.00  0.00    +0.000 A 
ATOM     33  C   UNL     1      55.718   0.714  17.835  0.00  0.00    +0.000 A 
ATOM     34  N   UNL     1      54.382   0.436  17.958  0.00  0.00    +0.000 N 
BRANCH  34  35
ATOM     35  C   UNL     1      53.836  -0.830  18.413  0.00  0.00    +0.000 C 
BRANCH  35  36
ATOM     36  O   UNL     1      54.353  -1.888  17.617  0.00  0.00    +0.000 OA
ATOM     37  H   UNL     1      55.254  -1.608  17.348  0.00  0.00    +0.000 HD
ENDBRANCH  35  36
ENDBRANCH  34  35
ENDBRANCH  27  30
ENDBRANCH  25  26
ENDBRANCH   4  25
TORSDOF 9
ENDMDL
MODEL 9
REMARK VINA RESULT:    -6.506      2.803      4.171
REMARK INTER + INTRA:         -10.285
REMARK INTER:                  -9.135
REMARK INTRA:                  -1.150
REMARK UNBOUND:                -0.545
REMARK  Name = 
REMARK  9 active torsions:
REMARK  status: ('A' for Active; 'I' for Inactive)
REMARK    1  A    between atoms: C_2  and  C_3
REMARK    2  A    between atoms: C_3  and  N_4
REMARK    3  A    between atoms: C_3  and  C_17
REMARK    4  A    between atoms: C_5  and  C_7
REMARK    5  A    between atoms: C_20  and  C_21
REMARK    6  A    between atoms: C_21  and  N_22
REMARK    7  A    between atoms: C_23  and  C_25
REMARK    8  A    between atoms: N_29  and  C_30
REMARK    9  A    between atoms: C_30  and  O_31
REMARK                            x       y       z     vdW  Elec       q    Type
REMARK                         _______ _______ _______ _____ _____    ______ ____
ROOT
ATOM      1  C   UNL     1      49.742   8.458  12.875  0.00  0.00    +0.000 A 
ATOM      2  C   UNL     1      49.355   7.721  11.742  0.00  0.00    +0.000 A 
ATOM      3  C   UNL     1      48.001   7.529  11.431  0.00  0.00    +0.000 A 
ATOM      4  C   UNL     1      46.995   8.083  12.233  0.00  0.00    +0.000 A 
ATOM      5  C   UNL     1      47.377   8.828  13.357  0.00  0.00    +0.000 A 
ATOM      6  C   UNL     1      48.730   9.027  13.665  0.00  0.00    +0.000 A 
ENDROOT
BRANCH   1   7
ATOM      7  C   UNL     1      51.231   8.655  13.172  0.00  0.00    +0.000 C 
BRANCH   7   8
ATOM      8  N   UNL     1      51.621   7.739  14.229  0.00  0.00    +0.000 N 
ATOM      9  C   UNL     1      51.910   8.180  15.494  0.00  0.00    +0.000 C 
ATOM     10  O   UNL     1      51.779   9.355  15.821  0.00  0.00    +0.000 OA
ATOM     11  H   UNL     1      51.979   6.841  13.927  0.00  0.00    +0.000 HD
BRANCH   9  12
ATOM     12  C   UNL     1      52.294   7.144  16.458  0.00  0.00    +0.000 A 
ATOM     13  C   UNL     1      53.576   7.127  16.990  0.00  0.00    +0.000 A 
ATOM     14  S   UNL     1      53.809   5.906  18.159  0.00  0.00    +0.000 S 
ATOM     15  C   UNL     1      52.227   5.318  17.945  0.00  0.00    +0.000 A 
ATOM     16  N   UNL     1      51.771   4.247  18.647  0.00  0.00    +0.000 NA
ATOM     17  C   UNL     1      50.568   3.886  18.347  0.00  0.00    +0.000 A 
ATOM     18  N   UNL     1      49.776   4.501  17.412  0.00  0.00    +0.000 N 
ATOM     19  C   UNL     1      50.173   5.619  16.720  0.00  0.00    +0.000 A 
ATOM     20  O   UNL     1      49.413   6.212  15.960  0.00  0.00    +0.000 OA
ATOM     21  C   UNL     1      51.527   6.053  17.005  0.00  0.00    +0.000 A 
ATOM     22  H   UNL     1      48.836   4.175  17.234  0.00  0.00    +0.000 HD
ENDBRANCH   9  12
ENDBRANCH   7   8
BRANCH   7  24
ATOM     23  N   UNL     1      52.797   8.427  11.056  0.00  0.00    +0.000 NA
ATOM     24  C   UNL     1      52.097   8.509  11.982  0.00  0.00    +0.000 C 
ENDBRANCH   7  24
ENDBRANCH   1   7
BRANCH   4  25
ATOM     25  C   UNL     1      45.537   7.913  11.877  0.00  0.00    +0.000 C 
BRANCH  25  26
ATOM     26  N   UNL     1      45.284   6.791  11.008  0.00  0.00    +0.000 N 
ATOM     27  C   UNL     1      45.160   5.506  11.492  0.00  0.00    +0.000 C 
ATOM     28  O   UNL     1      45.240   5.231  12.686  0.00  0.00    +0.000 OA
ATOM     29  H   UNL     1      45.132   6.922  10.012  0.00  0.00    +0.000 HD
BRANCH  27  30
ATOM     30  C   UNL     1      44.926   4.506  10.461  0.00  0.00    +0.000 A 
ATOM     31  N   UNL     1      45.443   4.595   9.240  0.00  0.00    +0.000 NA
ATOM     32  C   UNL     1      45.036   3.465   8.579  0.00  0.00    +0.000 A 
ATOM     33  C   UNL     1      44.264   2.674   9.387  0.00  0.00    +0.000 A 
ATOM     34  N   UNL     1      44.164   3.359  10.570  0.00  0.00    +0.000 N 
BRANCH  34  35
ATOM     35  C   UNL     1      43.413   2.910  11.728  0.00  0.00    +0.000 C 
BRANCH  35  36
ATOM     36  O   UNL     1      43.036   1.551  11.557  0.00  0.00    +0.000 OA
ATOM     37  H   UNL     1      43.815   1.019  11.823  0.00  0.00    +0.000 HD
ENDBRANCH  35  36
ENDBRANCH  34  35
ENDBRANCH  27  30
ENDBRANCH  25  26
ENDBRANCH   4  25
TORSDOF 9
ENDMDL
