MODEL 1
REMARK VINA RESULT:    -8.713      0.000      0.000
REMARK INTER + INTRA:         -13.275
REMARK INTER:                 -12.533
REMARK INTRA:                  -0.742
REMARK UNBOUND:                -0.742
REMARK  Name = 
REMARK  8 active torsions:
REMARK  status: ('A' for Active; 'I' for Inactive)
REMARK    1  A    between atoms: C_2  and  C_4
REMARK    2  A    between atoms: C_7  and  N_8
REMARK    3  A    between atoms: N_8  and  C_9
REMARK    4  A    between atoms: C_9  and  C_10
REMARK    5  A    between atoms: C_10  and  C_13
REMARK    6  A    between atoms: C_15  and  N_16
REMARK    7  A    between atoms: N_16  and  C_17
REMARK    8  A    between atoms: C_23  and  O_24
REMARK                            x       y       z     vdW  Elec       q    Type
REMARK                         _______ _______ _______ _____ _____    ______ ____
ROOT
ATOM      1  C   UNL     1      43.438   5.459  12.232  0.00  0.00    +0.000 C 
ATOM      2  F   UNL     1      42.962   6.674  11.800  0.00  0.00    +0.000 F 
ATOM      3  F   UNL     1      42.633   5.144  13.294  0.00  0.00    +0.000 F 
ENDROOT
BRANCH   1   4
ATOM      4  C   UNL     1      44.899   5.538  12.632  0.00  0.00    +0.000 A 
ATOM      5  C   UNL     1      45.387   4.718  13.667  0.00  0.00    +0.000 A 
ATOM      6  C   UNL     1      46.719   4.787  14.103  0.00  0.00    +0.000 A 
ATOM      7  C   UNL     1      47.576   5.687  13.465  0.00  0.00    +0.000 A 
ATOM      8  C   UNL     1      47.121   6.487  12.413  0.00  0.00    +0.000 A 
ATOM      9  C   UNL     1      45.794   6.401  11.999  0.00  0.00    +0.000 A 
BRANCH   6  10
ATOM     10  N   UNL     1      47.158   3.903  15.108  0.00  0.00    +0.000 N 
ATOM     11  H   UNL     1      46.950   2.930  14.887  0.00  0.00    +0.000 HD
BRANCH  10  12
ATOM     12  C   UNL     1      47.171   4.166  16.525  0.00  0.00    +0.000 C 
ATOM     13  C   UNL     1      48.440   4.897  16.987  0.00  0.00    +0.000 C 
ATOM     14  O   UNL     1      48.814   3.802  17.855  0.00  0.00    +0.000 OA
ATOM     15  C   UNL     1      47.711   3.001  17.365  0.00  0.00    +0.000 C 
ENDBRANCH  10  12
ENDBRANCH   6  10
BRANCH   9  16
ATOM     16  O   UNL     1      45.352   7.171  10.963  0.00  0.00    +0.000 OA
ATOM     17  H   UNL     1      44.861   7.933  11.317  0.00  0.00    +0.000 HD
ENDBRANCH   9  16
ENDBRANCH   1   4
BRANCH   1  18
ATOM     18  C   UNL     1      43.164   4.429  11.097  0.00  0.00    +0.000 C 
BRANCH  18  19
ATOM     19  N   UNL     1      43.714   4.823   9.777  0.00  0.00    +0.000 N 
ATOM     20  H   UNL     1      44.103   5.766   9.784  0.00  0.00    +0.000 HD
BRANCH  19  24
ATOM     21  C   UNL     1      46.211   2.042   7.949  0.00  0.00    +0.000 A 
ATOM     22  C   UNL     1      46.350   3.371   7.575  0.00  0.00    +0.000 A 
ATOM     23  C   UNL     1      45.504   4.314   8.159  0.00  0.00    +0.000 A 
ATOM     24  C   UNL     1      44.529   3.925   9.080  0.00  0.00    +0.000 A 
ATOM     25  C   UNL     1      44.508   2.561   9.404  0.00  0.00    +0.000 A 
ATOM     26  N   UNL     1      45.300   1.605   8.856  0.00  0.00    +0.000 NA
BRANCH  21  28
ATOM     27  N   UNL     1      46.800  -0.291   7.658  0.00  0.00    +0.000 N 
ATOM     28  C   UNL     1      47.112   1.007   7.349  0.00  0.00    +0.000 C 
ATOM     29  O   UNL     1      48.062   1.289   6.630  0.00  0.00    +0.000 OA
ATOM     30  H   UNL     1      47.378  -1.040   7.305  0.00  0.00    +0.000 HD
ATOM     31  H   UNL     1      46.014  -0.483   8.267  0.00  0.00    +0.000 HD
ENDBRANCH  21  28
ENDBRANCH  19  24
ENDBRANCH  18  19
ENDBRANCH   1  18
TORSDOF 8
ENDMDL
MODEL 2
REMARK VINA RESULT:    -8.477      2.431      4.025
REMARK INTER + INTRA:         -12.935
REMARK INTER:                 -12.255
REMARK INTRA:                  -0.680
REMARK UNBOUND:                -0.742
REMARK  Name = 
REMARK  8 active torsions:
REMARK  status: ('A' for Active; 'I' for Inactive)
REMARK    1  A    between atoms: C_2  and  C_4
REMARK    2  A    between atoms: C_7  and  N_8
REMARK    3  A    between atoms: N_8  and  C_9
REMARK    4  A    between atoms: C_9  and  C_10
REMARK    5  A    between atoms: C_10  and  C_13
REMARK    6  A    between atoms: C_15  and  N_16
REMARK    7  A    between atoms: N_16  and  C_17
REMARK    8  A    between atoms: C_23  and  O_24
REMARK                            x       y       z     vdW  Elec       q    Type
REMARK                         _______ _______ _______ _____ _____    ______ ____
ROOT
ATOM      1  C   UNL     1      43.354   4.660  12.662  0.00  0.00    +0.000 C 
ATOM      2  F   UNL     1      42.327   5.560  12.816  0.00  0.00    +0.000 F 
ATOM      3  F   UNL     1      43.126   3.724  13.635  0.00  0.00    +0.000 F 
ENDROOT
BRANCH   1   4
ATOM      4  C   UNL     1      44.709   5.322  12.820  0.00  0.00    +0.000 A 
ATOM      5  C   UNL     1      44.813   6.726  12.773  0.00  0.00    +0.000 A 
ATOM      6  C   UNL     1      46.051   7.381  12.868  0.00  0.00    +0.000 A 
ATOM      7  C   UNL     1      47.198   6.604  13.036  0.00  0.00    +0.000 A 
ATOM      8  C   UNL     1      47.114   5.211  13.119  0.00  0.00    +0.000 A 
ATOM      9  C   UNL     1      45.875   4.582  13.019  0.00  0.00    +0.000 A 
BRANCH   6  10
ATOM     10  N   UNL     1      46.081   8.789  12.866  0.00  0.00    +0.000 N 
ATOM     11  H   UNL     1      45.787   9.186  13.758  0.00  0.00    +0.000 HD
BRANCH  10  12
ATOM     12  C   UNL     1      45.780   9.645  11.746  0.00  0.00    +0.000 C 
ATOM     13  C   UNL     1      46.116  11.120  12.011  0.00  0.00    +0.000 C 
ATOM     14  O   UNL     1      44.735  11.516  11.839  0.00  0.00    +0.000 OA
ATOM     15  C   UNL     1      44.325  10.132  11.714  0.00  0.00    +0.000 C 
ENDBRANCH  10  12
ENDBRANCH   6  10
BRANCH   9  16
ATOM     16  O   UNL     1      45.790   3.224  13.115  0.00  0.00    +0.000 OA
ATOM     17  H   UNL     1      45.530   2.983  14.021  0.00  0.00    +0.000 HD
ENDBRANCH   9  16
ENDBRANCH   1   4
BRANCH   1  18
ATOM     18  C   UNL     1      43.160   3.974  11.279  0.00  0.00    +0.000 C 
BRANCH  18  19
ATOM     19  N   UNL     1      43.843   4.667  10.159  0.00  0.00    +0.000 N 
ATOM     20  H   UNL     1      44.278   5.542  10.451  0.00  0.00    +0.000 HD
BRANCH  19  24
ATOM     21  C   UNL     1      46.391   2.346   7.829  0.00  0.00    +0.000 A 
ATOM     22  C   UNL     1      46.424   3.720   7.640  0.00  0.00    +0.000 A 
ATOM     23  C   UNL     1      45.557   4.512   8.394  0.00  0.00    +0.000 A 
ATOM     24  C   UNL     1      44.668   3.932   9.300  0.00  0.00    +0.000 A 
ATOM     25  C   UNL     1      44.752   2.539   9.430  0.00  0.00    +0.000 A 
ATOM     26  N   UNL     1      45.566   1.726   8.712  0.00  0.00    +0.000 NA
BRANCH  21  28
ATOM     27  N   UNL     1      48.413   2.099   6.516  0.00  0.00    +0.000 N 
ATOM     28  C   UNL     1      47.317   1.469   7.043  0.00  0.00    +0.000 C 
ATOM     29  O   UNL     1      47.119   0.271   6.880  0.00  0.00    +0.000 OA
ATOM     30  H   UNL     1      49.068   1.572   5.956  0.00  0.00    +0.000 HD
ATOM     31  H   UNL     1      48.535   3.093   6.662  0.00  0.00    +0.000 HD
ENDBRANCH  21  28
ENDBRANCH  19  24
ENDBRANCH  18  19
ENDBRANCH   1  18
TORSDOF 8
ENDMDL
MODEL 3
REMARK VINA RESULT:    -8.246      1.818      2.087
REMARK INTER + INTRA:         -12.604
REMARK INTER:                 -12.137
REMARK INTRA:                  -0.467
REMARK UNBOUND:                -0.742
REMARK  Name = 
REMARK  8 active torsions:
REMARK  status: ('A' for Active; 'I' for Inactive)
REMARK    1  A    between atoms: C_2  and  C_4
REMARK    2  A    between atoms: C_7  and  N_8
REMARK    3  A    between atoms: N_8  and  C_9
REMARK    4  A    between atoms: C_9  and  C_10
REMARK    5  A    between atoms: C_10  and  C_13
REMARK    6  A    between atoms: C_15  and  N_16
REMARK    7  A    between atoms: N_16  and  C_17
REMARK    8  A    between atoms: C_23  and  O_24
REMARK                            x       y       z     vdW  Elec       q    Type
REMARK                         _______ _______ _______ _____ _____    ______ ____
ROOT
ATOM      1  C   UNL     1      43.194   4.963  12.425  0.00  0.00    +0.000 C 
ATOM      2  F   UNL     1      41.975   5.594  12.378  0.00  0.00    +0.000 F 
ATOM      3  F   UNL     1      43.127   4.191  13.554  0.00  0.00    +0.000 F 
ENDROOT
BRANCH   1   4
ATOM      4  C   UNL     1      44.339   5.955  12.484  0.00  0.00    +0.000 A 
ATOM      5  C   UNL     1      45.450   5.695  13.308  0.00  0.00    +0.000 A 
ATOM      6  C   UNL     1      46.512   6.604  13.431  0.00  0.00    +0.000 A 
ATOM      7  C   UNL     1      46.458   7.785  12.689  0.00  0.00    +0.000 A 
ATOM      8  C   UNL     1      45.380   8.049  11.838  0.00  0.00    +0.000 A 
ATOM      9  C   UNL     1      44.337   7.132  11.735  0.00  0.00    +0.000 A 
BRANCH   6  10
ATOM     10  N   UNL     1      47.618   6.261  14.233  0.00  0.00    +0.000 N 
ATOM     11  H   UNL     1      47.459   5.409  14.770  0.00  0.00    +0.000 HD
BRANCH  10  12
ATOM     12  C   UNL     1      48.508   7.182  14.894  0.00  0.00    +0.000 C 
ATOM     13  C   UNL     1      49.848   7.349  14.164  0.00  0.00    +0.000 C 
ATOM     14  O   UNL     1      50.587   6.847  15.302  0.00  0.00    +0.000 OA
ATOM     15  C   UNL     1      49.355   6.539  15.999  0.00  0.00    +0.000 C 
ENDBRANCH  10  12
ENDBRANCH   6  10
BRANCH   9  16
ATOM     16  O   UNL     1      43.292   7.381  10.894  0.00  0.00    +0.000 OA
ATOM     17  H   UNL     1      43.339   6.772  10.136  0.00  0.00    +0.000 HD
ENDBRANCH   9  16
ENDBRANCH   1   4
BRANCH   1  18
ATOM     18  C   UNL     1      43.265   4.011  11.195  0.00  0.00    +0.000 C 
BRANCH  18  19
ATOM     19  N   UNL     1      43.826   4.641   9.975  0.00  0.00    +0.000 N 
ATOM     20  H   UNL     1      44.196   5.574  10.155  0.00  0.00    +0.000 HD
BRANCH  19  24
ATOM     21  C   UNL     1      46.421   2.286   7.732  0.00  0.00    +0.000 A 
ATOM     22  C   UNL     1      46.458   3.657   7.523  0.00  0.00    +0.000 A 
ATOM     23  C   UNL     1      45.577   4.460   8.248  0.00  0.00    +0.000 A 
ATOM     24  C   UNL     1      44.668   3.894   9.144  0.00  0.00    +0.000 A 
ATOM     25  C   UNL     1      44.748   2.502   9.295  0.00  0.00    +0.000 A 
ATOM     26  N   UNL     1      45.577   1.679   8.606  0.00  0.00    +0.000 NA
BRANCH  21  28
ATOM     27  N   UNL     1      48.472   2.018   6.470  0.00  0.00    +0.000 N 
ATOM     28  C   UNL     1      47.362   1.397   6.978  0.00  0.00    +0.000 C 
ATOM     29  O   UNL     1      47.164   0.198   6.824  0.00  0.00    +0.000 OA
ATOM     30  H   UNL     1      49.139   1.483   5.932  0.00  0.00    +0.000 HD
ATOM     31  H   UNL     1      48.594   3.013   6.608  0.00  0.00    +0.000 HD
ENDBRANCH  21  28
ENDBRANCH  19  24
ENDBRANCH  18  19
ENDBRANCH   1  18
TORSDOF 8
ENDMDL
MODEL 4
REMARK VINA RESULT:    -7.766      1.966      2.406
REMARK INTER + INTRA:         -11.913
REMARK INTER:                 -11.477
REMARK INTRA:                  -0.436
REMARK UNBOUND:                -0.742
REMARK  Name = 
REMARK  8 active torsions:
REMARK  status: ('A' for Active; 'I' for Inactive)
REMARK    1  A    between atoms: C_2  and  C_4
REMARK    2  A    between atoms: C_7  and  N_8
REMARK    3  A    between atoms: N_8  and  C_9
REMARK    4  A    between atoms: C_9  and  C_10
REMARK    5  A    between atoms: C_10  and  C_13
REMARK    6  A    between atoms: C_15  and  N_16
REMARK    7  A    between atoms: N_16  and  C_17
REMARK    8  A    between atoms: C_23  and  O_24
REMARK                            x       y       z     vdW  Elec       q    Type
REMARK                         _______ _______ _______ _____ _____    ______ ____
ROOT
ATOM      1  C   UNL     1      43.892   5.155  12.424  0.00  0.00    +0.000 C 
ATOM      2  F   UNL     1      42.773   5.444  13.166  0.00  0.00    +0.000 F 
ATOM      3  F   UNL     1      44.410   4.038  13.023  0.00  0.00    +0.000 F 
ENDROOT
BRANCH   1   4
ATOM      4  C   UNL     1      44.880   6.306  12.426  0.00  0.00    +0.000 A 
ATOM      5  C   UNL     1      46.135   6.152  13.044  0.00  0.00    +0.000 A 
ATOM      6  C   UNL     1      47.063   7.203  13.111  0.00  0.00    +0.000 A 
ATOM      7  C   UNL     1      46.724   8.422  12.521  0.00  0.00    +0.000 A 
ATOM      8  C   UNL     1      45.496   8.587  11.872  0.00  0.00    +0.000 A 
ATOM      9  C   UNL     1      44.590   7.530  11.821  0.00  0.00    +0.000 A 
BRANCH   6  10
ATOM     10  N   UNL     1      48.322   6.968  13.698  0.00  0.00    +0.000 N 
ATOM     11  H   UNL     1      48.788   6.151  13.306  0.00  0.00    +0.000 HD
BRANCH  10  12
ATOM     12  C   UNL     1      48.675   7.207  15.076  0.00  0.00    +0.000 C 
ATOM     13  C   UNL     1      50.187   7.120  15.330  0.00  0.00    +0.000 C 
ATOM     14  O   UNL     1      50.017   6.019  16.253  0.00  0.00    +0.000 OA
ATOM     15  C   UNL     1      48.600   5.955  15.959  0.00  0.00    +0.000 C 
ENDBRANCH  10  12
ENDBRANCH   6  10
BRANCH   9  16
ATOM     16  O   UNL     1      43.399   7.685  11.175  0.00  0.00    +0.000 OA
ATOM     17  H   UNL     1      43.551   8.139  10.327  0.00  0.00    +0.000 HD
ENDBRANCH   9  16
ENDBRANCH   1   4
BRANCH   1  18
ATOM     18  C   UNL     1      43.410   4.758  10.999  0.00  0.00    +0.000 C 
BRANCH  18  19
ATOM     19  N   UNL     1      43.772   3.376  10.602  0.00  0.00    +0.000 N 
ATOM     20  H   UNL     1      42.955   2.776  10.493  0.00  0.00    +0.000 HD
BRANCH  19  24
ATOM     21  C   UNL     1      46.381   2.937   7.390  0.00  0.00    +0.000 A 
ATOM     22  C   UNL     1      46.047   1.795   8.105  0.00  0.00    +0.000 A 
ATOM     23  C   UNL     1      45.194   1.927   9.201  0.00  0.00    +0.000 A 
ATOM     24  C   UNL     1      44.707   3.180   9.579  0.00  0.00    +0.000 A 
ATOM     25  C   UNL     1      45.085   4.253   8.760  0.00  0.00    +0.000 A 
ATOM     26  N   UNL     1      45.921   4.178   7.694  0.00  0.00    +0.000 NA
BRANCH  21  28
ATOM     27  N   UNL     1      48.609   2.622   6.490  0.00  0.00    +0.000 N 
ATOM     28  C   UNL     1      47.286   2.827   6.202  0.00  0.00    +0.000 C 
ATOM     29  O   UNL     1      46.881   2.910   5.049  0.00  0.00    +0.000 OA
ATOM     30  H   UNL     1      49.279   2.560   5.737  0.00  0.00    +0.000 HD
ATOM     31  H   UNL     1      48.907   2.572   7.456  0.00  0.00    +0.000 HD
ENDBRANCH  21  28
ENDBRANCH  19  24
ENDBRANCH  18  19
ENDBRANCH   1  18
TORSDOF 8
ENDMDL
MODEL 5
REMARK VINA RESULT:    -7.641      2.417      3.946
REMARK INTER + INTRA:         -11.734
REMARK INTER:                 -10.968
REMARK INTRA:                  -0.766
REMARK UNBOUND:                -0.742
REMARK  Name = 
REMARK  8 active torsions:
REMARK  status: ('A' for Active; 'I' for Inactive)
REMARK    1  A    between atoms: C_2  and  C_4
REMARK    2  A    between atoms: C_7  and  N_8
REMARK    3  A    between atoms: N_8  and  C_9
REMARK    4  A    between atoms: C_9  and  C_10
REMARK    5  A    between atoms: C_10  and  C_13
REMARK    6  A    between atoms: C_15  and  N_16
REMARK    7  A    between atoms: N_16  and  C_17
REMARK    8  A    between atoms: C_23  and  O_24
REMARK                            x       y       z     vdW  Elec       q    Type
REMARK                         _______ _______ _______ _____ _____    ______ ____
ROOT
ATOM      1  C   UNL     1      44.737   5.241  12.349  0.00  0.00    +0.000 C 
ATOM      2  F   UNL     1      43.743   5.608  13.222  0.00  0.00    +0.000 F 
ATOM      3  F   UNL     1      44.707   3.872  12.365  0.00  0.00    +0.000 F 
ENDROOT
BRANCH   1   4
ATOM      4  C   UNL     1      46.088   5.783  12.775  0.00  0.00    +0.000 A 
ATOM      5  C   UNL     1      46.743   6.739  11.976  0.00  0.00    +0.000 A 
ATOM      6  C   UNL     1      48.014   7.235  12.305  0.00  0.00    +0.000 A 
ATOM      7  C   UNL     1      48.620   6.773  13.475  0.00  0.00    +0.000 A 
ATOM      8  C   UNL     1      47.973   5.850  14.301  0.00  0.00    +0.000 A 
ATOM      9  C   UNL     1      46.712   5.370  13.952  0.00  0.00    +0.000 A 
BRANCH   6  10
ATOM     10  N   UNL     1      48.593   8.228  11.491  0.00  0.00    +0.000 N 
ATOM     11  H   UNL     1      49.242   7.839  10.806  0.00  0.00    +0.000 HD
BRANCH  10  12
ATOM     12  C   UNL     1      48.944   9.565  11.899  0.00  0.00    +0.000 C 
ATOM     13  C   UNL     1      47.981  10.143  12.946  0.00  0.00    +0.000 C 
ATOM     14  O   UNL     1      47.593  11.223  12.065  0.00  0.00    +0.000 OA
ATOM     15  C   UNL     1      48.377  10.659  10.985  0.00  0.00    +0.000 C 
ENDBRANCH  10  12
ENDBRANCH   6  10
BRANCH   9  16
ATOM     16  O   UNL     1      46.073   4.480  14.765  0.00  0.00    +0.000 OA
ATOM     17  H   UNL     1      46.696   3.777  15.022  0.00  0.00    +0.000 HD
ENDBRANCH   9  16
ENDBRANCH   1   4
BRANCH   1  18
ATOM     18  C   UNL     1      44.302   5.715  10.932  0.00  0.00    +0.000 C 
BRANCH  18  19
ATOM     19  N   UNL     1      43.731   4.639  10.084  0.00  0.00    +0.000 N 
ATOM     20  H   UNL     1      42.886   4.936   9.596  0.00  0.00    +0.000 HD
BRANCH  19  24
ATOM     21  C   UNL     1      46.343   2.291   7.854  0.00  0.00    +0.000 A 
ATOM     22  C   UNL     1      46.390   3.664   7.658  0.00  0.00    +0.000 A 
ATOM     23  C   UNL     1      45.503   4.465   8.378  0.00  0.00    +0.000 A 
ATOM     24  C   UNL     1      44.581   3.895   9.257  0.00  0.00    +0.000 A 
ATOM     25  C   UNL     1      44.652   2.502   9.397  0.00  0.00    +0.000 A 
ATOM     26  N   UNL     1      45.485   1.680   8.712  0.00  0.00    +0.000 NA
BRANCH  21  28
ATOM     27  N   UNL     1      48.376   2.036   6.559  0.00  0.00    +0.000 N 
ATOM     28  C   UNL     1      47.290   1.404   7.105  0.00  0.00    +0.000 C 
ATOM     29  O   UNL     1      47.117   0.198   6.985  0.00  0.00    +0.000 OA
ATOM     30  H   UNL     1      49.044   1.503   6.022  0.00  0.00    +0.000 HD
ATOM     31  H   UNL     1      48.478   3.037   6.670  0.00  0.00    +0.000 HD
ENDBRANCH  21  28
ENDBRANCH  19  24
ENDBRANCH  18  19
ENDBRANCH   1  18
TORSDOF 8
ENDMDL
MODEL 6
REMARK VINA RESULT:    -7.457      3.313      5.588
REMARK INTER + INTRA:         -11.468
REMARK INTER:                 -10.882
REMARK INTRA:                  -0.586
REMARK UNBOUND:                -0.742
REMARK  Name = 
REMARK  8 active torsions:
REMARK  status: ('A' for Active; 'I' for Inactive)
REMARK    1  A    between atoms: C_2  and  C_4
REMARK    2  A    between atoms: C_7  and  N_8
REMARK    3  A    between atoms: N_8  and  C_9
REMARK    4  A    between atoms: C_9  and  C_10
REMARK    5  A    between atoms: C_10  and  C_13
REMARK    6  A    between atoms: C_15  and  N_16
REMARK    7  A    between atoms: N_16  and  C_17
REMARK    8  A    between atoms: C_23  and  O_24
REMARK                            x       y       z     vdW  Elec       q    Type
REMARK                         _______ _______ _______ _____ _____    ______ ____
ROOT
ATOM      1  C   UNL     1      44.606   5.596  12.035  0.00  0.00    +0.000 C 
ATOM      2  F   UNL     1      44.066   5.186  13.230  0.00  0.00    +0.000 F 
ATOM      3  F   UNL     1      45.805   4.937  11.967  0.00  0.00    +0.000 F 
ENDROOT
BRANCH   1   4
ATOM      4  C   UNL     1      44.785   7.101  11.986  0.00  0.00    +0.000 A 
ATOM      5  C   UNL     1      43.998   7.872  11.110  0.00  0.00    +0.000 A 
ATOM      6  C   UNL     1      44.159   9.262  10.996  0.00  0.00    +0.000 A 
ATOM      7  C   UNL     1      45.117   9.883  11.800  0.00  0.00    +0.000 A 
ATOM      8  C   UNL     1      45.886   9.142  12.702  0.00  0.00    +0.000 A 
ATOM      9  C   UNL     1      45.709   7.763  12.795  0.00  0.00    +0.000 A 
BRANCH   6  10
ATOM     10  N   UNL     1      43.305   9.982  10.138  0.00  0.00    +0.000 N 
ATOM     11  H   UNL     1      43.613   9.950   9.167  0.00  0.00    +0.000 HD
BRANCH  10  12
ATOM     12  C   UNL     1      42.601  11.197  10.463  0.00  0.00    +0.000 C 
ATOM     13  C   UNL     1      41.700  11.055  11.698  0.00  0.00    +0.000 C 
ATOM     14  O   UNL     1      40.512  11.353  10.927  0.00  0.00    +0.000 OA
ATOM     15  C   UNL     1      41.281  11.370   9.699  0.00  0.00    +0.000 C 
ENDBRANCH  10  12
ENDBRANCH   6  10
BRANCH   9  16
ATOM     16  O   UNL     1      46.448   7.041  13.685  0.00  0.00    +0.000 OA
ATOM     17  H   UNL     1      47.135   7.613  14.071  0.00  0.00    +0.000 HD
ENDBRANCH   9  16
ENDBRANCH   1   4
BRANCH   1  18
ATOM     18  C   UNL     1      43.690   5.047  10.904  0.00  0.00    +0.000 C 
BRANCH  18  19
ATOM     19  N   UNL     1      43.960   3.634  10.540  0.00  0.00    +0.000 N 
ATOM     20  H   UNL     1      43.105   3.084  10.457  0.00  0.00    +0.000 HD
BRANCH  19  24
ATOM     21  C   UNL     1      46.492   2.948   7.310  0.00  0.00    +0.000 A 
ATOM     22  C   UNL     1      46.098   1.849   8.060  0.00  0.00    +0.000 A 
ATOM     23  C   UNL     1      45.270   2.063   9.163  0.00  0.00    +0.000 A 
ATOM     24  C   UNL     1      44.866   3.353   9.511  0.00  0.00    +0.000 A 
ATOM     25  C   UNL     1      45.299   4.379   8.658  0.00  0.00    +0.000 A 
ATOM     26  N   UNL     1      46.113   4.223   7.585  0.00  0.00    +0.000 NA
BRANCH  21  28
ATOM     27  N   UNL     1      48.667   2.402   6.391  0.00  0.00    +0.000 N 
ATOM     28  C   UNL     1      47.371   2.751   6.114  0.00  0.00    +0.000 C 
ATOM     29  O   UNL     1      46.970   2.884   4.965  0.00  0.00    +0.000 OA
ATOM     30  H   UNL     1      49.321   2.274   5.633  0.00  0.00    +0.000 HD
ATOM     31  H   UNL     1      48.964   2.313   7.355  0.00  0.00    +0.000 HD
ENDBRANCH  21  28
ENDBRANCH  19  24
ENDBRANCH  18  19
ENDBRANCH   1  18
TORSDOF 8
ENDMDL
MODEL 7
REMARK VINA RESULT:    -7.433      1.799      7.241
REMARK INTER + INTRA:         -11.434
REMARK INTER:                 -10.858
REMARK INTRA:                  -0.576
REMARK UNBOUND:                -0.742
REMARK  Name = 
REMARK  8 active torsions:
REMARK  status: ('A' for Active; 'I' for Inactive)
REMARK    1  A    between atoms: C_2  and  C_4
REMARK    2  A    between atoms: C_7  and  N_8
REMARK    3  A    between atoms: N_8  and  C_9
REMARK    4  A    between atoms: C_9  and  C_10
REMARK    5  A    between atoms: C_10  and  C_13
REMARK    6  A    between atoms: C_15  and  N_16
REMARK    7  A    between atoms: N_16  and  C_17
REMARK    8  A    between atoms: C_23  and  O_24
REMARK                            x       y       z     vdW  Elec       q    Type
REMARK                         _______ _______ _______ _____ _____    ______ ____
ROOT
ATOM      1  C   UNL     1      44.520   6.458  11.304  0.00  0.00    +0.000 C 
ATOM      2  F   UNL     1      43.215   6.862  11.447  0.00  0.00    +0.000 F 
ATOM      3  F   UNL     1      45.093   7.444  10.546  0.00  0.00    +0.000 F 
ENDROOT
BRANCH   1   4
ATOM      4  C   UNL     1      44.618   5.100  10.635  0.00  0.00    +0.000 A 
ATOM      5  C   UNL     1      45.406   4.944   9.479  0.00  0.00    +0.000 A 
ATOM      6  C   UNL     1      45.491   3.719   8.799  0.00  0.00    +0.000 A 
ATOM      7  C   UNL     1      44.784   2.630   9.311  0.00  0.00    +0.000 A 
ATOM      8  C   UNL     1      44.022   2.754  10.477  0.00  0.00    +0.000 A 
ATOM      9  C   UNL     1      43.951   3.980  11.134  0.00  0.00    +0.000 A 
BRANCH   6  10
ATOM     10  N   UNL     1      46.337   3.616   7.678  0.00  0.00    +0.000 N 
ATOM     11  H   UNL     1      46.486   4.514   7.219  0.00  0.00    +0.000 HD
BRANCH  10  12
ATOM     12  C   UNL     1      46.407   2.502   6.766  0.00  0.00    +0.000 C 
ATOM     13  C   UNL     1      47.488   1.481   7.149  0.00  0.00    +0.000 C 
ATOM     14  O   UNL     1      48.199   1.693   5.907  0.00  0.00    +0.000 OA
ATOM     15  C   UNL     1      47.293   2.762   5.539  0.00  0.00    +0.000 C 
ENDBRANCH  10  12
ENDBRANCH   6  10
BRANCH   9  16
ATOM     16  O   UNL     1      43.221   4.099  12.279  0.00  0.00    +0.000 OA
ATOM     17  H   UNL     1      43.288   5.013  12.608  0.00  0.00    +0.000 HD
ENDBRANCH   9  16
ENDBRANCH   1   4
BRANCH   1  18
ATOM     18  C   UNL     1      45.171   6.497  12.717  0.00  0.00    +0.000 C 
BRANCH  18  19
ATOM     19  N   UNL     1      46.612   6.147  12.728  0.00  0.00    +0.000 N 
ATOM     20  H   UNL     1      47.209   6.948  12.521  0.00  0.00    +0.000 HD
BRANCH  19  24
ATOM     21  C   UNL     1      47.880   3.706  15.851  0.00  0.00    +0.000 A 
ATOM     22  C   UNL     1      48.049   5.075  15.999  0.00  0.00    +0.000 A 
ATOM     23  C   UNL     1      47.654   5.907  14.951  0.00  0.00    +0.000 A 
ATOM     24  C   UNL     1      47.120   5.372  13.777  0.00  0.00    +0.000 A 
ATOM     25  C   UNL     1      46.966   3.978  13.758  0.00  0.00    +0.000 A 
ATOM     26  N   UNL     1      47.346   3.127  14.744  0.00  0.00    +0.000 NA
BRANCH  21  28
ATOM     27  N   UNL     1      47.465   2.801  18.060  0.00  0.00    +0.000 N 
ATOM     28  C   UNL     1      48.283   2.786  16.962  0.00  0.00    +0.000 C 
ATOM     29  O   UNL     1      49.271   2.065  16.902  0.00  0.00    +0.000 OA
ATOM     30  H   UNL     1      47.689   2.221  18.856  0.00  0.00    +0.000 HD
ATOM     31  H   UNL     1      46.664   3.420  18.077  0.00  0.00    +0.000 HD
ENDBRANCH  21  28
ENDBRANCH  19  24
ENDBRANCH  18  19
ENDBRANCH   1  18
TORSDOF 8
ENDMDL
MODEL 8
REMARK VINA RESULT:    -6.631      2.218      8.263
REMARK INTER + INTRA:         -10.281
REMARK INTER:                  -9.873
REMARK INTRA:                  -0.408
REMARK UNBOUND:                -0.742
REMARK  Name = 
REMARK  8 active torsions:
REMARK  status: ('A' for Active; 'I' for Inactive)
REMARK    1  A    between atoms: C_2  and  C_4
REMARK    2  A    between atoms: C_7  and  N_8
REMARK    3  A    between atoms: N_8  and  C_9
REMARK    4  A    between atoms: C_9  and  C_10
REMARK    5  A    between atoms: C_10  and  C_13
REMARK    6  A    between atoms: C_15  and  N_16
REMARK    7  A    between atoms: N_16  and  C_17
REMARK    8  A    between atoms: C_23  and  O_24
REMARK                            x       y       z     vdW  Elec       q    Type
REMARK                         _______ _______ _______ _____ _____    ______ ____
ROOT
ATOM      1  C   UNL     1      45.820   5.733  12.280  0.00  0.00    +0.000 C 
ATOM      2  F   UNL     1      44.849   6.254  13.100  0.00  0.00    +0.000 F 
ATOM      3  F   UNL     1      46.309   6.821  11.609  0.00  0.00    +0.000 F 
ENDROOT
BRANCH   1   4
ATOM      4  C   UNL     1      45.257   4.690  11.333  0.00  0.00    +0.000 A 
ATOM      5  C   UNL     1      45.617   4.712   9.973  0.00  0.00    +0.000 A 
ATOM      6  C   UNL     1      45.086   3.797   9.050  0.00  0.00    +0.000 A 
ATOM      7  C   UNL     1      44.193   2.831   9.518  0.00  0.00    +0.000 A 
ATOM      8  C   UNL     1      43.848   2.770  10.872  0.00  0.00    +0.000 A 
ATOM      9  C   UNL     1      44.386   3.690  11.768  0.00  0.00    +0.000 A 
BRANCH   6  10
ATOM     10  N   UNL     1      45.526   3.839   7.713  0.00  0.00    +0.000 N 
ATOM     11  H   UNL     1      44.766   3.693   7.049  0.00  0.00    +0.000 HD
BRANCH  10  12
ATOM     12  C   UNL     1      46.798   3.373   7.221  0.00  0.00    +0.000 C 
ATOM     13  C   UNL     1      46.754   2.960   5.743  0.00  0.00    +0.000 C 
ATOM     14  O   UNL     1      47.122   1.597   6.062  0.00  0.00    +0.000 OA
ATOM     15  C   UNL     1      47.052   1.882   7.480  0.00  0.00    +0.000 C 
ENDBRANCH  10  12
ENDBRANCH   6  10
BRANCH   9  16
ATOM     16  O   UNL     1      44.062   3.623  13.091  0.00  0.00    +0.000 OA
ATOM     17  H   UNL     1      43.125   3.371  13.179  0.00  0.00    +0.000 HD
ENDBRANCH   9  16
ENDBRANCH   1   4
BRANCH   1  18
ATOM     18  C   UNL     1      46.952   5.185  13.198  0.00  0.00    +0.000 C 
BRANCH  18  19
ATOM     19  N   UNL     1      47.430   6.156  14.212  0.00  0.00    +0.000 N 
ATOM     20  H   UNL     1      46.831   6.979  14.275  0.00  0.00    +0.000 HD
BRANCH  19  24
ATOM     21  C   UNL     1      48.852   4.833  17.892  0.00  0.00    +0.000 A 
ATOM     22  C   UNL     1      47.973   4.004  17.208  0.00  0.00    +0.000 A 
ATOM     23  C   UNL     1      47.466   4.443  15.985  0.00  0.00    +0.000 A 
ATOM     24  C   UNL     1      47.819   5.693  15.474  0.00  0.00    +0.000 A 
ATOM     25  C   UNL     1      48.740   6.425  16.236  0.00  0.00    +0.000 A 
ATOM     26  N   UNL     1      49.251   6.048  17.435  0.00  0.00    +0.000 NA
BRANCH  21  28
ATOM     27  N   UNL     1      48.553   3.714  20.021  0.00  0.00    +0.000 N 
ATOM     28  C   UNL     1      49.423   4.386  19.202  0.00  0.00    +0.000 C 
ATOM     29  O   UNL     1      50.584   4.597  19.528  0.00  0.00    +0.000 OA
ATOM     30  H   UNL     1      48.865   3.402  20.929  0.00  0.00    +0.000 HD
ATOM     31  H   UNL     1      47.597   3.570  19.721  0.00  0.00    +0.000 HD
ENDBRANCH  21  28
ENDBRANCH  19  24
ENDBRANCH  18  19
ENDBRANCH   1  18
TORSDOF 8
ENDMDL
MODEL 9
REMARK VINA RESULT:    -6.474      2.525      7.832
REMARK INTER + INTRA:         -10.055
REMARK INTER:                  -9.739
REMARK INTRA:                  -0.316
REMARK UNBOUND:                -0.742
REMARK  Name = 
REMARK  8 active torsions:
REMARK  status: ('A' for Active; 'I' for Inactive)
REMARK    1  A    between atoms: C_2  and  C_4
REMARK    2  A    between atoms: C_7  and  N_8
REMARK    3  A    between atoms: N_8  and  C_9
REMARK    4  A    between atoms: C_9  and  C_10
REMARK    5  A    between atoms: C_10  and  C_13
REMARK    6  A    between atoms: C_15  and  N_16
REMARK    7  A    between atoms: N_16  and  C_17
REMARK    8  A    between atoms: C_23  and  O_24
REMARK                            x       y       z     vdW  Elec       q    Type
REMARK                         _______ _______ _______ _____ _____    ______ ____
ROOT
ATOM      1  C   UNL     1      44.742   6.068  11.412  0.00  0.00    +0.000 C 
ATOM      2  F   UNL     1      43.510   6.305  11.971  0.00  0.00    +0.000 F 
ATOM      3  F   UNL     1      44.974   7.172  10.636  0.00  0.00    +0.000 F 
ENDROOT
BRANCH   1   4
ATOM      4  C   UNL     1      44.751   4.790  10.595  0.00  0.00    +0.000 A 
ATOM      5  C   UNL     1      45.448   4.745   9.373  0.00  0.00    +0.000 A 
ATOM      6  C   UNL     1      45.448   3.600   8.561  0.00  0.00    +0.000 A 
ATOM      7  C   UNL     1      44.749   2.476   9.005  0.00  0.00    +0.000 A 
ATOM      8  C   UNL     1      44.078   2.488  10.232  0.00  0.00    +0.000 A 
ATOM      9  C   UNL     1      44.091   3.636  11.020  0.00  0.00    +0.000 A 
BRANCH   6  10
ATOM     10  N   UNL     1      46.207   3.603   7.375  0.00  0.00    +0.000 N 
ATOM     11  H   UNL     1      46.129   4.482   6.865  0.00  0.00    +0.000 HD
BRANCH  10  12
ATOM     12  C   UNL     1      46.438   2.472   6.511  0.00  0.00    +0.000 C 
ATOM     13  C   UNL     1      47.476   1.490   7.073  0.00  0.00    +0.000 C 
ATOM     14  O   UNL     1      48.355   1.695   5.943  0.00  0.00    +0.000 OA
ATOM     15  C   UNL     1      47.487   2.730   5.421  0.00  0.00    +0.000 C 
ENDBRANCH  10  12
ENDBRANCH   6  10
BRANCH   9  16
ATOM     16  O   UNL     1      43.449   3.644  12.223  0.00  0.00    +0.000 OA
ATOM     17  H   UNL     1      42.632   4.169  12.147  0.00  0.00    +0.000 HD
ENDBRANCH   9  16
ENDBRANCH   1   4
BRANCH   1  18
ATOM     18  C   UNL     1      45.780   6.067  12.571  0.00  0.00    +0.000 C 
BRANCH  18  19
ATOM     19  N   UNL     1      47.148   6.466  12.158  0.00  0.00    +0.000 N 
ATOM     20  H   UNL     1      47.142   7.232  11.484  0.00  0.00    +0.000 HD
BRANCH  19  24
ATOM     21  C   UNL     1      49.886   7.019  15.241  0.00  0.00    +0.000 A 
ATOM     22  C   UNL     1      50.122   7.686  14.048  0.00  0.00    +0.000 A 
ATOM     23  C   UNL     1      49.228   7.492  12.994  0.00  0.00    +0.000 A 
ATOM     24  C   UNL     1      48.137   6.633  13.133  0.00  0.00    +0.000 A 
ATOM     25  C   UNL     1      47.984   6.043  14.396  0.00  0.00    +0.000 A 
ATOM     26  N   UNL     1      48.830   6.190  15.445  0.00  0.00    +0.000 NA
BRANCH  21  28
ATOM     27  N   UNL     1      52.007   6.536  16.309  0.00  0.00    +0.000 N 
ATOM     28  C   UNL     1      50.820   7.215  16.395  0.00  0.00    +0.000 C 
ATOM     29  O   UNL     1      50.554   7.932  17.352  0.00  0.00    +0.000 OA
ATOM     30  H   UNL     1      52.676   6.605  17.062  0.00  0.00    +0.000 HD
ATOM     31  H   UNL     1      52.185   5.943  15.508  0.00  0.00    +0.000 HD
ENDBRANCH  21  28
ENDBRANCH  19  24
ENDBRANCH  18  19
ENDBRANCH   1  18
TORSDOF 8
ENDMDL
