MODEL 1
REMARK VINA RESULT:    -7.725      0.000      0.000
REMARK INTER + INTRA:          -9.484
REMARK INTER:                  -9.080
REMARK INTRA:                  -0.404
REMARK UNBOUND:                -0.404
REMARK  Name = 
REMARK  3 active torsions:
REMARK  status: ('A' for Active; 'I' for Inactive)
REMARK    1  A    between atoms: C_2  and  C_4
REMARK    2  A    between atoms: N_8  and  C_9
REMARK    3  A    between atoms: C_9  and  C_10
REMARK                            x       y       z     vdW  Elec       q    Type
REMARK                         _______ _______ _______ _____ _____    ______ ____
ROOT
ATOM      1  C   UNL     1      46.450   5.011  13.360  0.00  0.00    +0.000 A 
ATOM      2  C   UNL     1      46.852   6.038  12.513  0.00  0.00    +0.000 A 
ATOM      3  C   UNL     1      46.304   6.108  11.233  0.00  0.00    +0.000 A 
ATOM      4  C   UNL     1      45.388   5.146  10.813  0.00  0.00    +0.000 A 
ATOM      5  N   UNL     1      44.969   5.197   9.492  0.00  0.00    +0.000 N 
ATOM      6  N   UNL     1      44.996   4.145  11.625  0.00  0.00    +0.000 NA
ATOM      7  C   UNL     1      45.531   4.094  12.873  0.00  0.00    +0.000 A 
ATOM      8  H   UNL     1      44.566   6.092   9.242  0.00  0.00    +0.000 HD
ENDROOT
BRANCH   1  10
ATOM      9  N   UNL     1      47.757   5.843  15.231  0.00  0.00    +0.000 N 
ATOM     10  C   UNL     1      46.985   4.836  14.724  0.00  0.00    +0.000 C 
ATOM     11  O   UNL     1      46.726   3.841  15.390  0.00  0.00    +0.000 OA
ATOM     12  H   UNL     1      48.046   5.748  16.199  0.00  0.00    +0.000 HD
ATOM     13  H   UNL     1      47.809   6.760  14.815  0.00  0.00    +0.000 HD
ENDBRANCH   1  10
BRANCH   5  14
ATOM     14  C   UNL     1      44.270   4.055   8.937  0.00  0.00    +0.000 C 
BRANCH  14  15
ATOM     15  C   UNL     1      45.308   3.196   8.266  0.00  0.00    +0.000 A 
ATOM     16  C   UNL     1      46.184   3.693   7.300  0.00  0.00    +0.000 A 
ATOM     17  C   UNL     1      47.174   2.863   6.779  0.00  0.00    +0.000 A 
ATOM     18  C   UNL     1      47.256   1.561   7.246  0.00  0.00    +0.000 A 
ATOM     19  N   UNL     1      46.428   1.045   8.178  0.00  0.00    +0.000 NA
ATOM     20  C   UNL     1      45.481   1.875   8.672  0.00  0.00    +0.000 A 
ENDBRANCH  14  15
ENDBRANCH   5  14
TORSDOF 3
ENDMDL
MODEL 2
REMARK VINA RESULT:    -7.581      2.661      6.156
REMARK INTER + INTRA:          -9.315
REMARK INTER:                  -9.004
REMARK INTRA:                  -0.311
REMARK UNBOUND:                -0.404
REMARK  Name = 
REMARK  3 active torsions:
REMARK  status: ('A' for Active; 'I' for Inactive)
REMARK    1  A    between atoms: C_2  and  C_4
REMARK    2  A    between atoms: N_8  and  C_9
REMARK    3  A    between atoms: C_9  and  C_10
REMARK                            x       y       z     vdW  Elec       q    Type
REMARK                         _______ _______ _______ _____ _____    ______ ____
ROOT
ATOM      1  C   UNL     1      46.482   2.619   7.445  0.00  0.00    +0.000 A 
ATOM      2  C   UNL     1      45.846   1.643   8.204  0.00  0.00    +0.000 A 
ATOM      3  C   UNL     1      44.925   2.038   9.173  0.00  0.00    +0.000 A 
ATOM      4  C   UNL     1      44.673   3.392   9.384  0.00  0.00    +0.000 A 
ATOM      5  N   UNL     1      43.840   3.729  10.440  0.00  0.00    +0.000 N 
ATOM      6  N   UNL     1      45.287   4.344   8.656  0.00  0.00    +0.000 NA
ATOM      7  C   UNL     1      46.176   3.945   7.709  0.00  0.00    +0.000 A 
ATOM      8  H   UNL     1      42.933   3.283  10.383  0.00  0.00    +0.000 HD
ENDROOT
BRANCH   1  10
ATOM      9  N   UNL     1      47.528   3.113   5.308  0.00  0.00    +0.000 N 
ATOM     10  C   UNL     1      47.488   2.307   6.410  0.00  0.00    +0.000 C 
ATOM     11  O   UNL     1      48.276   1.379   6.544  0.00  0.00    +0.000 OA
ATOM     12  H   UNL     1      48.278   2.940   4.649  0.00  0.00    +0.000 HD
ATOM     13  H   UNL     1      47.060   4.005   5.261  0.00  0.00    +0.000 HD
ENDBRANCH   1  10
BRANCH   5  14
ATOM     14  C   UNL     1      43.796   5.109  10.882  0.00  0.00    +0.000 C 
BRANCH  14  15
ATOM     15  C   UNL     1      44.938   5.292  11.845  0.00  0.00    +0.000 A 
ATOM     16  C   UNL     1      45.889   6.303  11.699  0.00  0.00    +0.000 A 
ATOM     17  C   UNL     1      46.872   6.466  12.672  0.00  0.00    +0.000 A 
ATOM     18  C   UNL     1      46.869   5.611  13.763  0.00  0.00    +0.000 A 
ATOM     19  N   UNL     1      45.967   4.623  13.938  0.00  0.00    +0.000 NA
ATOM     20  C   UNL     1      45.020   4.492  12.983  0.00  0.00    +0.000 A 
ENDBRANCH  14  15
ENDBRANCH   5  14
TORSDOF 3
ENDMDL
MODEL 3
REMARK VINA RESULT:    -6.961      1.845      2.304
REMARK INTER + INTRA:          -8.586
REMARK INTER:                  -8.283
REMARK INTRA:                  -0.303
REMARK UNBOUND:                -0.404
REMARK  Name = 
REMARK  3 active torsions:
REMARK  status: ('A' for Active; 'I' for Inactive)
REMARK    1  A    between atoms: C_2  and  C_4
REMARK    2  A    between atoms: N_8  and  C_9
REMARK    3  A    between atoms: C_9  and  C_10
REMARK                            x       y       z     vdW  Elec       q    Type
REMARK                         _______ _______ _______ _____ _____    ______ ____
ROOT
ATOM      1  C   UNL     1      45.748   6.597  12.508  0.00  0.00    +0.000 A 
ATOM      2  C   UNL     1      45.747   5.441  13.279  0.00  0.00    +0.000 A 
ATOM      3  C   UNL     1      45.503   4.217  12.657  0.00  0.00    +0.000 A 
ATOM      4  C   UNL     1      45.243   4.170  11.289  0.00  0.00    +0.000 A 
ATOM      5  N   UNL     1      44.889   2.943  10.748  0.00  0.00    +0.000 N 
ATOM      6  N   UNL     1      45.238   5.286  10.535  0.00  0.00    +0.000 NA
ATOM      7  C   UNL     1      45.487   6.471  11.153  0.00  0.00    +0.000 A 
ATOM      8  H   UNL     1      45.579   2.223  10.925  0.00  0.00    +0.000 HD
ENDROOT
BRANCH   1  10
ATOM      9  N   UNL     1      46.992   8.083  13.973  0.00  0.00    +0.000 N 
ATOM     10  C   UNL     1      45.974   7.942  13.073  0.00  0.00    +0.000 C 
ATOM     11  O   UNL     1      45.296   8.902  12.730  0.00  0.00    +0.000 OA
ATOM     12  H   UNL     1      47.190   9.027  14.287  0.00  0.00    +0.000 HD
ATOM     13  H   UNL     1      47.706   7.384  14.112  0.00  0.00    +0.000 HD
ENDBRANCH   1  10
BRANCH   5  14
ATOM     14  C   UNL     1      44.319   2.906   9.416  0.00  0.00    +0.000 C 
BRANCH  14  15
ATOM     15  C   UNL     1      45.420   2.476   8.485  0.00  0.00    +0.000 A 
ATOM     16  C   UNL     1      46.111   3.376   7.672  0.00  0.00    +0.000 A 
ATOM     17  C   UNL     1      47.174   2.922   6.895  0.00  0.00    +0.000 A 
ATOM     18  C   UNL     1      47.514   1.580   6.960  0.00  0.00    +0.000 A 
ATOM     19  N   UNL     1      46.871   0.681   7.734  0.00  0.00    +0.000 NA
ATOM     20  C   UNL     1      45.848   1.150   8.484  0.00  0.00    +0.000 A 
ENDBRANCH  14  15
ENDBRANCH   5  14
TORSDOF 3
ENDMDL
MODEL 4
REMARK VINA RESULT:    -6.288      2.929      6.847
REMARK INTER + INTRA:          -7.796
REMARK INTER:                  -7.461
REMARK INTRA:                  -0.335
REMARK UNBOUND:                -0.404
REMARK  Name = 
REMARK  3 active torsions:
REMARK  status: ('A' for Active; 'I' for Inactive)
REMARK    1  A    between atoms: C_2  and  C_4
REMARK    2  A    between atoms: N_8  and  C_9
REMARK    3  A    between atoms: C_9  and  C_10
REMARK                            x       y       z     vdW  Elec       q    Type
REMARK                         _______ _______ _______ _____ _____    ______ ____
ROOT
ATOM      1  C   UNL     1      45.213   4.334  11.440  0.00  0.00    +0.000 A 
ATOM      2  C   UNL     1      45.879   5.545  11.589  0.00  0.00    +0.000 A 
ATOM      3  C   UNL     1      46.572   5.790  12.774  0.00  0.00    +0.000 A 
ATOM      4  C   UNL     1      46.570   4.840  13.792  0.00  0.00    +0.000 A 
ATOM      5  N   UNL     1      47.173   5.188  14.992  0.00  0.00    +0.000 N 
ATOM      6  N   UNL     1      45.924   3.666  13.658  0.00  0.00    +0.000 NA
ATOM      7  C   UNL     1      45.260   3.436  12.495  0.00  0.00    +0.000 A 
ATOM      8  H   UNL     1      48.139   5.470  14.877  0.00  0.00    +0.000 HD
ENDROOT
BRANCH   1  10
ATOM      9  N   UNL     1      44.497   4.846   9.175  0.00  0.00    +0.000 N 
ATOM     10  C   UNL     1      44.434   3.986  10.235  0.00  0.00    +0.000 C 
ATOM     11  O   UNL     1      43.777   2.954  10.174  0.00  0.00    +0.000 OA
ATOM     12  H   UNL     1      44.027   4.552   8.326  0.00  0.00    +0.000 HD
ATOM     13  H   UNL     1      45.188   5.577   9.099  0.00  0.00    +0.000 HD
ENDBRANCH   1  10
BRANCH   5  14
ATOM     14  C   UNL     1      46.929   4.366  16.160  0.00  0.00    +0.000 C 
BRANCH  14  15
ATOM     15  C   UNL     1      48.229   3.683  16.490  0.00  0.00    +0.000 A 
ATOM     16  C   UNL     1      49.172   4.240  17.354  0.00  0.00    +0.000 A 
ATOM     17  C   UNL     1      50.317   3.517  17.679  0.00  0.00    +0.000 A 
ATOM     18  C   UNL     1      50.479   2.255  17.128  0.00  0.00    +0.000 A 
ATOM     19  N   UNL     1      49.590   1.684  16.290  0.00  0.00    +0.000 NA
ATOM     20  C   UNL     1      48.484   2.405  15.998  0.00  0.00    +0.000 A 
ENDBRANCH  14  15
ENDBRANCH   5  14
TORSDOF 3
ENDMDL
MODEL 5
REMARK VINA RESULT:    -5.665      3.753      5.815
REMARK INTER + INTRA:          -7.063
REMARK INTER:                  -6.822
REMARK INTRA:                  -0.241
REMARK UNBOUND:                -0.404
REMARK  Name = 
REMARK  3 active torsions:
REMARK  status: ('A' for Active; 'I' for Inactive)
REMARK    1  A    between atoms: C_2  and  C_4
REMARK    2  A    between atoms: N_8  and  C_9
REMARK    3  A    between atoms: C_9  and  C_10
REMARK                            x       y       z     vdW  Elec       q    Type
REMARK                         _______ _______ _______ _____ _____    ______ ____
ROOT
ATOM      1  C   UNL     1      48.994   4.486  18.171  0.00  0.00    +0.000 A 
ATOM      2  C   UNL     1      48.062   3.454  18.147  0.00  0.00    +0.000 A 
ATOM      3  C   UNL     1      47.299   3.262  16.996  0.00  0.00    +0.000 A 
ATOM      4  C   UNL     1      47.460   4.112  15.904  0.00  0.00    +0.000 A 
ATOM      5  N   UNL     1      46.591   3.950  14.835  0.00  0.00    +0.000 N 
ATOM      6  N   UNL     1      48.356   5.117  15.920  0.00  0.00    +0.000 NA
ATOM      7  C   UNL     1      49.100   5.286  17.045  0.00  0.00    +0.000 A 
ATOM      8  H   UNL     1      46.602   3.009  14.460  0.00  0.00    +0.000 HD
ENDROOT
BRANCH   1  10
ATOM      9  N   UNL     1      49.361   4.406  20.571  0.00  0.00    +0.000 N 
ATOM     10  C   UNL     1      49.834   4.785  19.347  0.00  0.00    +0.000 C 
ATOM     11  O   UNL     1      50.927   5.326  19.231  0.00  0.00    +0.000 OA
ATOM     12  H   UNL     1      49.986   4.540  21.358  0.00  0.00    +0.000 HD
ATOM     13  H   UNL     1      48.588   3.769  20.690  0.00  0.00    +0.000 HD
ENDBRANCH   1  10
BRANCH   5  14
ATOM     14  C   UNL     1      46.520   4.991  13.829  0.00  0.00    +0.000 C 
BRANCH  14  15
ATOM     15  C   UNL     1      45.311   4.694  12.984  0.00  0.00    +0.000 A 
ATOM     16  C   UNL     1      45.135   3.478  12.324  0.00  0.00    +0.000 A 
ATOM     17  C   UNL     1      43.954   3.239  11.625  0.00  0.00    +0.000 A 
ATOM     18  C   UNL     1      42.984   4.229  11.613  0.00  0.00    +0.000 A 
ATOM     19  N   UNL     1      43.117   5.417  12.239  0.00  0.00    +0.000 NA
ATOM     20  C   UNL     1      44.270   5.618  12.916  0.00  0.00    +0.000 A 
ENDBRANCH  14  15
ENDBRANCH   5  14
TORSDOF 3
ENDMDL
MODEL 6
REMARK VINA RESULT:    -5.372      2.253      2.954
REMARK INTER + INTRA:          -6.719
REMARK INTER:                  -6.379
REMARK INTRA:                  -0.340
REMARK UNBOUND:                -0.404
REMARK  Name = 
REMARK  3 active torsions:
REMARK  status: ('A' for Active; 'I' for Inactive)
REMARK    1  A    between atoms: C_2  and  C_4
REMARK    2  A    between atoms: N_8  and  C_9
REMARK    3  A    between atoms: C_9  and  C_10
REMARK                            x       y       z     vdW  Elec       q    Type
REMARK                         _______ _______ _______ _____ _____    ______ ____
ROOT
ATOM      1  C   UNL     1      48.285   6.848  14.009  0.00  0.00    +0.000 A 
ATOM      2  C   UNL     1      47.831   5.733  14.705  0.00  0.00    +0.000 A 
ATOM      3  C   UNL     1      46.835   4.942  14.133  0.00  0.00    +0.000 A 
ATOM      4  C   UNL     1      46.295   5.288  12.896  0.00  0.00    +0.000 A 
ATOM      5  N   UNL     1      45.225   4.536  12.434  0.00  0.00    +0.000 N 
ATOM      6  N   UNL     1      46.725   6.368  12.217  0.00  0.00    +0.000 NA
ATOM      7  C   UNL     1      47.704   7.124  12.782  0.00  0.00    +0.000 A 
ATOM      8  H   UNL     1      45.436   3.547  12.379  0.00  0.00    +0.000 HD
ENDROOT
BRANCH   1  10
ATOM      9  N   UNL     1      50.625   7.390  14.375  0.00  0.00    +0.000 N 
ATOM     10  C   UNL     1      49.320   7.759  14.535  0.00  0.00    +0.000 C 
ATOM     11  O   UNL     1      49.024   8.820  15.071  0.00  0.00    +0.000 OA
ATOM     12  H   UNL     1      51.325   8.065  14.663  0.00  0.00    +0.000 HD
ATOM     13  H   UNL     1      50.916   6.651  13.752  0.00  0.00    +0.000 HD
ENDBRANCH   1  10
BRANCH   5  14
ATOM     14  C   UNL     1      44.447   5.040  11.321  0.00  0.00    +0.000 C 
BRANCH  14  15
ATOM     15  C   UNL     1      44.788   4.186  10.130  0.00  0.00    +0.000 A 
ATOM     16  C   UNL     1      45.473   4.682   9.021  0.00  0.00    +0.000 A 
ATOM     17  C   UNL     1      45.829   3.816   7.989  0.00  0.00    +0.000 A 
ATOM     18  C   UNL     1      45.489   2.478   8.105  0.00  0.00    +0.000 A 
ATOM     19  N   UNL     1      44.828   1.961   9.162  0.00  0.00    +0.000 NA
ATOM     20  C   UNL     1      44.502   2.822  10.152  0.00  0.00    +0.000 A 
ENDBRANCH  14  15
ENDBRANCH   5  14
TORSDOF 3
ENDMDL
MODEL 7
REMARK VINA RESULT:    -5.258      4.303      6.637
REMARK INTER + INTRA:          -6.584
REMARK INTER:                  -6.258
REMARK INTRA:                  -0.327
REMARK UNBOUND:                -0.404
REMARK  Name = 
REMARK  3 active torsions:
REMARK  status: ('A' for Active; 'I' for Inactive)
REMARK    1  A    between atoms: C_2  and  C_4
REMARK    2  A    between atoms: N_8  and  C_9
REMARK    3  A    between atoms: C_9  and  C_10
REMARK                            x       y       z     vdW  Elec       q    Type
REMARK                         _______ _______ _______ _____ _____    ______ ____
ROOT
ATOM      1  C   UNL     1      50.749   2.530  17.372  0.00  0.00    +0.000 A 
ATOM      2  C   UNL     1      50.686   3.876  17.715  0.00  0.00    +0.000 A 
ATOM      3  C   UNL     1      49.580   4.622  17.310  0.00  0.00    +0.000 A 
ATOM      4  C   UNL     1      48.573   4.024  16.555  0.00  0.00    +0.000 A 
ATOM      5  N   UNL     1      47.560   4.842  16.079  0.00  0.00    +0.000 N 
ATOM      6  N   UNL     1      48.629   2.722  16.215  0.00  0.00    +0.000 NA
ATOM      7  C   UNL     1      49.708   2.004  16.624  0.00  0.00    +0.000 A 
ATOM      8  H   UNL     1      47.089   5.352  16.816  0.00  0.00    +0.000 HD
ENDROOT
BRANCH   1  10
ATOM      9  N   UNL     1      51.607   0.357  18.042  0.00  0.00    +0.000 N 
ATOM     10  C   UNL     1      51.885   1.659  17.733  0.00  0.00    +0.000 C 
ATOM     11  O   UNL     1      53.036   2.076  17.731  0.00  0.00    +0.000 OA
ATOM     12  H   UNL     1      52.403  -0.249  18.204  0.00  0.00    +0.000 HD
ATOM     13  H   UNL     1      50.719  -0.078  17.842  0.00  0.00    +0.000 HD
ENDBRANCH   1  10
BRANCH   5  14
ATOM     14  C   UNL     1      46.676   4.331  15.050  0.00  0.00    +0.000 C 
BRANCH  14  15
ATOM     15  C   UNL     1      46.737   5.305  13.904  0.00  0.00    +0.000 A 
ATOM     16  C   UNL     1      47.889   6.028  13.593  0.00  0.00    +0.000 A 
ATOM     17  C   UNL     1      47.901   6.851  12.469  0.00  0.00    +0.000 A 
ATOM     18  C   UNL     1      46.757   6.919  11.690  0.00  0.00    +0.000 A 
ATOM     19  N   UNL     1      45.625   6.235  11.958  0.00  0.00    +0.000 NA
ATOM     20  C   UNL     1      45.644   5.438  13.050  0.00  0.00    +0.000 A 
ENDBRANCH  14  15
ENDBRANCH   5  14
TORSDOF 3
ENDMDL
MODEL 8
REMARK VINA RESULT:    -4.973      3.259      6.543
REMARK INTER + INTRA:          -6.250
REMARK INTER:                  -5.916
REMARK INTRA:                  -0.334
REMARK UNBOUND:                -0.404
REMARK  Name = 
REMARK  3 active torsions:
REMARK  status: ('A' for Active; 'I' for Inactive)
REMARK    1  A    between atoms: C_2  and  C_4
REMARK    2  A    between atoms: N_8  and  C_9
REMARK    3  A    between atoms: C_9  and  C_10
REMARK                            x       y       z     vdW  Elec       q    Type
REMARK                         _______ _______ _______ _____ _____    ______ ____
ROOT
ATOM      1  C   UNL     1      44.903   4.264  11.326  0.00  0.00    +0.000 A 
ATOM      2  C   UNL     1      45.335   5.113  10.313  0.00  0.00    +0.000 A 
ATOM      3  C   UNL     1      46.096   6.232  10.650  0.00  0.00    +0.000 A 
ATOM      4  C   UNL     1      46.391   6.497  11.986  0.00  0.00    +0.000 A 
ATOM      5  N   UNL     1      47.046   7.686  12.271  0.00  0.00    +0.000 N 
ATOM      6  N   UNL     1      45.973   5.683  12.974  0.00  0.00    +0.000 NA
ATOM      7  C   UNL     1      45.240   4.591  12.630  0.00  0.00    +0.000 A 
ATOM      8  H   UNL     1      47.920   7.782  11.768  0.00  0.00    +0.000 HD
ENDROOT
BRANCH   1  10
ATOM      9  N   UNL     1      43.534   2.440  12.162  0.00  0.00    +0.000 N 
ATOM     10  C   UNL     1      44.076   3.067  11.077  0.00  0.00    +0.000 C 
ATOM     11  O   UNL     1      43.860   2.665   9.940  0.00  0.00    +0.000 OA
ATOM     12  H   UNL     1      42.900   1.673  11.971  0.00  0.00    +0.000 HD
ATOM     13  H   UNL     1      43.500   2.858  13.080  0.00  0.00    +0.000 HD
ENDBRANCH   1  10
BRANCH   5  14
ATOM     14  C   UNL     1      47.097   8.142  13.645  0.00  0.00    +0.000 C 
BRANCH  14  15
ATOM     15  C   UNL     1      48.501   7.902  14.130  0.00  0.00    +0.000 A 
ATOM     16  C   UNL     1      49.570   8.723  13.771  0.00  0.00    +0.000 A 
ATOM     17  C   UNL     1      50.829   8.491  14.321  0.00  0.00    +0.000 A 
ATOM     18  C   UNL     1      50.974   7.445  15.218  0.00  0.00    +0.000 A 
ATOM     19  N   UNL     1      49.964   6.631  15.591  0.00  0.00    +0.000 NA
ATOM     20  C   UNL     1      48.752   6.883  15.047  0.00  0.00    +0.000 A 
ENDBRANCH  14  15
ENDBRANCH   5  14
TORSDOF 3
ENDMDL
