MODEL 1
REMARK VINA RESULT:    -7.776      0.000      0.000
REMARK INTER + INTRA:         -11.086
REMARK INTER:                 -10.276
REMARK INTRA:                  -0.810
REMARK UNBOUND:                -0.810
REMARK  Name = 
REMARK  7 active torsions:
REMARK  status: ('A' for Active; 'I' for Inactive)
REMARK    1  A    between atoms: C_1  and  O_2
REMARK    2  A    between atoms: O_2  and  C_3
REMARK    3  A    between atoms: C_5  and  C_6
REMARK    4  A    between atoms: C_6  and  N_7
REMARK    5  A    between atoms: C_12  and  C_13
REMARK    6  A    between atoms: C_21  and  C_22
REMARK    7  A    between atoms: C_22  and  N_23
REMARK                            x       y       z     vdW  Elec       q    Type
REMARK                         _______ _______ _______ _____ _____    ______ ____
ROOT
ATOM      1  N   UNL     1      44.839   3.813  11.602  0.00  0.00    +0.000 N 
ATOM      2  C   UNL     1      45.695   3.257  12.525  0.00  0.00    +0.000 A 
ATOM      3  C   UNL     1      46.277   4.280  13.241  0.00  0.00    +0.000 A 
ATOM      4  C   UNL     1      45.764   5.502  12.740  0.00  0.00    +0.000 A 
ATOM      5  C   UNL     1      46.005   6.852  13.048  0.00  0.00    +0.000 A 
ATOM      6  C   UNL     1      45.303   7.796  12.308  0.00  0.00    +0.000 A 
ATOM      7  N   UNL     1      44.398   7.497  11.334  0.00  0.00    +0.000 NA
ATOM      8  C   UNL     1      44.171   6.197  11.033  0.00  0.00    +0.000 A 
ATOM      9  C   UNL     1      44.853   5.194  11.725  0.00  0.00    +0.000 A 
ENDROOT
BRANCH   6  10
ATOM     10  C   UNL     1      45.561   9.250  12.562  0.00  0.00    +0.000 C 
ATOM     11  N   UNL     1      44.462  10.064  12.595  0.00  0.00    +0.000 N 
ATOM     12  O   UNL     1      46.689   9.704  12.721  0.00  0.00    +0.000 OA
ATOM     13  H   UNL     1      43.540   9.672  12.430  0.00  0.00    +0.000 HD
ATOM     14  H   UNL     1      44.583  11.057  12.735  0.00  0.00    +0.000 HD
ENDBRANCH   6  10
BRANCH   1  15
ATOM     15  C   UNL     1      44.154   3.039  10.566  0.00  0.00    +0.000 C 
BRANCH  15  18
ATOM     16  C   UNL     1      46.410   1.527   7.862  0.00  0.00    +0.000 A 
ATOM     17  C   UNL     1      45.623   1.679   9.012  0.00  0.00    +0.000 A 
ATOM     18  C   UNL     1      44.970   2.884   9.303  0.00  0.00    +0.000 A 
ATOM     19  C   UNL     1      45.070   3.933   8.381  0.00  0.00    +0.000 A 
ATOM     20  C   UNL     1      45.811   3.775   7.206  0.00  0.00    +0.000 A 
ATOM     21  C   UNL     1      46.491   2.574   6.928  0.00  0.00    +0.000 A 
BRANCH  16  23
ATOM     22  C   UNL     1      46.473  -0.814   7.397  0.00  0.00    +0.000 C 
ATOM     23  O   UNL     1      47.169   0.412   7.608  0.00  0.00    +0.000 OA
ENDBRANCH  16  23
BRANCH  21  24
ATOM     24  C   UNL     1      47.283   2.460   5.650  0.00  0.00    +0.000 C 
BRANCH  24  25
ATOM     25  N   UNL     1      48.658   2.006   5.889  0.00  0.00    +0.000 NA
ATOM     26  H   UNL     1      48.663   0.986   5.888  0.00  0.00    +0.000 HD
ATOM     27  H   UNL     1      48.935   2.284   6.826  0.00  0.00    +0.000 HD
ENDBRANCH  24  25
ENDBRANCH  21  24
ENDBRANCH  15  18
ENDBRANCH   1  15
TORSDOF 6
ENDMDL
MODEL 2
REMARK VINA RESULT:    -7.707      1.865      7.037
REMARK INTER + INTRA:         -10.995
REMARK INTER:                 -10.172
REMARK INTRA:                  -0.823
REMARK UNBOUND:                -0.810
REMARK  Name = 
REMARK  7 active torsions:
REMARK  status: ('A' for Active; 'I' for Inactive)
REMARK    1  A    between atoms: C_1  and  O_2
REMARK    2  A    between atoms: O_2  and  C_3
REMARK    3  A    between atoms: C_5  and  C_6
REMARK    4  A    between atoms: C_6  and  N_7
REMARK    5  A    between atoms: C_12  and  C_13
REMARK    6  A    between atoms: C_21  and  C_22
REMARK    7  A    between atoms: C_22  and  N_23
REMARK                            x       y       z     vdW  Elec       q    Type
REMARK                         _______ _______ _______ _____ _____    ______ ____
ROOT
ATOM      1  N   UNL     1      44.041   4.363  10.575  0.00  0.00    +0.000 N 
ATOM      2  C   UNL     1      43.541   3.207  11.128  0.00  0.00    +0.000 A 
ATOM      3  C   UNL     1      44.089   2.138  10.454  0.00  0.00    +0.000 A 
ATOM      4  C   UNL     1      44.950   2.654   9.456  0.00  0.00    +0.000 A 
ATOM      5  C   UNL     1      45.744   2.058   8.460  0.00  0.00    +0.000 A 
ATOM      6  C   UNL     1      46.457   2.918   7.633  0.00  0.00    +0.000 A 
ATOM      7  N   UNL     1      46.449   4.277   7.741  0.00  0.00    +0.000 NA
ATOM      8  C   UNL     1      45.680   4.850   8.696  0.00  0.00    +0.000 A 
ATOM      9  C   UNL     1      44.922   4.048   9.552  0.00  0.00    +0.000 A 
ENDROOT
BRANCH   6  10
ATOM     10  C   UNL     1      47.279   2.337   6.523  0.00  0.00    +0.000 C 
ATOM     11  N   UNL     1      47.215   2.983   5.318  0.00  0.00    +0.000 N 
ATOM     12  O   UNL     1      47.966   1.331   6.665  0.00  0.00    +0.000 OA
ATOM     13  H   UNL     1      46.615   3.794   5.214  0.00  0.00    +0.000 HD
ATOM     14  H   UNL     1      47.727   2.615   4.530  0.00  0.00    +0.000 HD
ENDBRANCH   6  10
BRANCH   1  15
ATOM     15  C   UNL     1      43.571   5.701  10.937  0.00  0.00    +0.000 C 
BRANCH  15  18
ATOM     16  C   UNL     1      46.534   6.643  13.178  0.00  0.00    +0.000 A 
ATOM     17  C   UNL     1      45.581   5.899  12.467  0.00  0.00    +0.000 A 
ATOM     18  C   UNL     1      44.612   6.519  11.666  0.00  0.00    +0.000 A 
ATOM     19  C   UNL     1      44.649   7.912  11.538  0.00  0.00    +0.000 A 
ATOM     20  C   UNL     1      45.627   8.659  12.202  0.00  0.00    +0.000 A 
ATOM     21  C   UNL     1      46.582   8.039  13.029  0.00  0.00    +0.000 A 
BRANCH  16  23
ATOM     22  C   UNL     1      47.078   4.805  14.601  0.00  0.00    +0.000 C 
ATOM     23  O   UNL     1      47.414   6.085  14.072  0.00  0.00    +0.000 OA
ENDBRANCH  16  23
BRANCH  21  24
ATOM     24  C   UNL     1      47.609   8.893  13.729  0.00  0.00    +0.000 C 
BRANCH  24  25
ATOM     25  N   UNL     1      47.392   8.944  15.179  0.00  0.00    +0.000 NA
ATOM     26  H   UNL     1      46.929   8.081  15.465  0.00  0.00    +0.000 HD
ATOM     27  H   UNL     1      46.736   9.692  15.385  0.00  0.00    +0.000 HD
ENDBRANCH  24  25
ENDBRANCH  21  24
ENDBRANCH  15  18
ENDBRANCH   1  15
TORSDOF 6
ENDMDL
MODEL 3
REMARK VINA RESULT:    -7.420      2.343      3.656
REMARK INTER + INTRA:         -10.616
REMARK INTER:                 -10.431
REMARK INTRA:                  -0.185
REMARK UNBOUND:                -0.810
REMARK  Name = 
REMARK  7 active torsions:
REMARK  status: ('A' for Active; 'I' for Inactive)
REMARK    1  A    between atoms: C_1  and  O_2
REMARK    2  A    between atoms: O_2  and  C_3
REMARK    3  A    between atoms: C_5  and  C_6
REMARK    4  A    between atoms: C_6  and  N_7
REMARK    5  A    between atoms: C_12  and  C_13
REMARK    6  A    between atoms: C_21  and  C_22
REMARK    7  A    between atoms: C_22  and  N_23
REMARK                            x       y       z     vdW  Elec       q    Type
REMARK                         _______ _______ _______ _____ _____    ______ ____
ROOT
ATOM      1  N   UNL     1      44.891   5.523  11.029  0.00  0.00    +0.000 N 
ATOM      2  C   UNL     1      45.043   6.889  10.966  0.00  0.00    +0.000 A 
ATOM      3  C   UNL     1      45.775   7.289  12.062  0.00  0.00    +0.000 A 
ATOM      4  C   UNL     1      46.080   6.134  12.822  0.00  0.00    +0.000 A 
ATOM      5  C   UNL     1      46.762   5.923  14.033  0.00  0.00    +0.000 A 
ATOM      6  C   UNL     1      46.845   4.611  14.483  0.00  0.00    +0.000 A 
ATOM      7  N   UNL     1      46.333   3.534  13.823  0.00  0.00    +0.000 NA
ATOM      8  C   UNL     1      45.671   3.737  12.660  0.00  0.00    +0.000 A 
ATOM      9  C   UNL     1      45.534   5.033  12.155  0.00  0.00    +0.000 A 
ENDROOT
BRANCH   6  10
ATOM     10  C   UNL     1      47.517   4.338  15.794  0.00  0.00    +0.000 C 
ATOM     11  N   UNL     1      46.894   3.442  16.620  0.00  0.00    +0.000 N 
ATOM     12  O   UNL     1      48.560   4.888  16.131  0.00  0.00    +0.000 OA
ATOM     13  H   UNL     1      46.015   3.023  16.336  0.00  0.00    +0.000 HD
ATOM     14  H   UNL     1      47.290   3.244  17.528  0.00  0.00    +0.000 HD
ENDBRANCH   6  10
BRANCH   1  15
ATOM     15  C   UNL     1      44.044   4.761  10.111  0.00  0.00    +0.000 C 
BRANCH  15  18
ATOM     16  C   UNL     1      46.486   3.117   7.657  0.00  0.00    +0.000 A 
ATOM     17  C   UNL     1      45.793   4.075   8.410  0.00  0.00    +0.000 A 
ATOM     18  C   UNL     1      44.804   3.710   9.334  0.00  0.00    +0.000 A 
ATOM     19  C   UNL     1      44.556   2.348   9.537  0.00  0.00    +0.000 A 
ATOM     20  C   UNL     1      45.277   1.383   8.828  0.00  0.00    +0.000 A 
ATOM     21  C   UNL     1      46.250   1.750   7.880  0.00  0.00    +0.000 A 
BRANCH  16  23
ATOM     22  C   UNL     1      46.937   3.205   5.314  0.00  0.00    +0.000 C 
ATOM     23  O   UNL     1      47.366   3.437   6.653  0.00  0.00    +0.000 OA
ENDBRANCH  16  23
BRANCH  21  24
ATOM     24  C   UNL     1      46.992   0.668   7.136  0.00  0.00    +0.000 C 
BRANCH  24  25
ATOM     25  N   UNL     1      46.779  -0.658   7.728  0.00  0.00    +0.000 NA
ATOM     26  H   UNL     1      46.080  -0.571   8.467  0.00  0.00    +0.000 HD
ATOM     27  H   UNL     1      47.636  -0.949   8.190  0.00  0.00    +0.000 HD
ENDBRANCH  24  25
ENDBRANCH  21  24
ENDBRANCH  15  18
ENDBRANCH   1  15
TORSDOF 6
ENDMDL
MODEL 4
REMARK VINA RESULT:    -7.389      1.716      7.431
REMARK INTER + INTRA:         -10.574
REMARK INTER:                  -9.966
REMARK INTRA:                  -0.608
REMARK UNBOUND:                -0.810
REMARK  Name = 
REMARK  7 active torsions:
REMARK  status: ('A' for Active; 'I' for Inactive)
REMARK    1  A    between atoms: C_1  and  O_2
REMARK    2  A    between atoms: O_2  and  C_3
REMARK    3  A    between atoms: C_5  and  C_6
REMARK    4  A    between atoms: C_6  and  N_7
REMARK    5  A    between atoms: C_12  and  C_13
REMARK    6  A    between atoms: C_21  and  C_22
REMARK    7  A    between atoms: C_22  and  N_23
REMARK                            x       y       z     vdW  Elec       q    Type
REMARK                         _______ _______ _______ _____ _____    ______ ____
ROOT
ATOM      1  N   UNL     1      44.041   4.383  10.601  0.00  0.00    +0.000 N 
ATOM      2  C   UNL     1      43.541   3.224  11.148  0.00  0.00    +0.000 A 
ATOM      3  C   UNL     1      44.089   2.159  10.467  0.00  0.00    +0.000 A 
ATOM      4  C   UNL     1      44.950   2.681   9.471  0.00  0.00    +0.000 A 
ATOM      5  C   UNL     1      45.743   2.092   8.471  0.00  0.00    +0.000 A 
ATOM      6  C   UNL     1      46.456   2.957   7.650  0.00  0.00    +0.000 A 
ATOM      7  N   UNL     1      46.449   4.315   7.766  0.00  0.00    +0.000 NA
ATOM      8  C   UNL     1      45.680   4.883   8.725  0.00  0.00    +0.000 A 
ATOM      9  C   UNL     1      44.922   4.075   9.577  0.00  0.00    +0.000 A 
ENDROOT
BRANCH   6  10
ATOM     10  C   UNL     1      47.278   2.383   6.536  0.00  0.00    +0.000 C 
ATOM     11  N   UNL     1      47.186   3.016   5.326  0.00  0.00    +0.000 N 
ATOM     12  O   UNL     1      47.989   1.394   6.680  0.00  0.00    +0.000 OA
ATOM     13  H   UNL     1      46.568   3.813   5.221  0.00  0.00    +0.000 HD
ATOM     14  H   UNL     1      47.697   2.651   4.535  0.00  0.00    +0.000 HD
ENDBRANCH   6  10
BRANCH   1  15
ATOM     15  C   UNL     1      43.572   5.719  10.972  0.00  0.00    +0.000 C 
BRANCH  15  18
ATOM     16  C   UNL     1      45.664   8.710  12.140  0.00  0.00    +0.000 A 
ATOM     17  C   UNL     1      44.678   7.933  11.515  0.00  0.00    +0.000 A 
ATOM     18  C   UNL     1      44.621   6.542  11.682  0.00  0.00    +0.000 A 
ATOM     19  C   UNL     1      45.544   5.939  12.544  0.00  0.00    +0.000 A 
ATOM     20  C   UNL     1      46.499   6.711  13.212  0.00  0.00    +0.000 A 
ATOM     21  C   UNL     1      46.575   8.104  13.021  0.00  0.00    +0.000 A 
BRANCH  16  23
ATOM     22  C   UNL     1      44.686  10.788  11.490  0.00  0.00    +0.000 C 
ATOM     23  O   UNL     1      45.834  10.050  11.899  0.00  0.00    +0.000 OA
ENDBRANCH  16  23
BRANCH  21  24
ATOM     24  C   UNL     1      47.631   8.887  13.759  0.00  0.00    +0.000 C 
BRANCH  24  25
ATOM     25  N   UNL     1      47.374   8.940  15.203  0.00  0.00    +0.000 NA
ATOM     26  H   UNL     1      48.126   9.471  15.643  0.00  0.00    +0.000 HD
ATOM     27  H   UNL     1      47.442   7.999  15.581  0.00  0.00    +0.000 HD
ENDBRANCH  24  25
ENDBRANCH  21  24
ENDBRANCH  15  18
ENDBRANCH   1  15
TORSDOF 6
ENDMDL
MODEL 5
REMARK VINA RESULT:    -6.029      4.490      8.587
REMARK INTER + INTRA:          -8.777
REMARK INTER:                  -7.961
REMARK INTRA:                  -0.816
REMARK UNBOUND:                -0.810
REMARK  Name = 
REMARK  7 active torsions:
REMARK  status: ('A' for Active; 'I' for Inactive)
REMARK    1  A    between atoms: C_1  and  O_2
REMARK    2  A    between atoms: O_2  and  C_3
REMARK    3  A    between atoms: C_5  and  C_6
REMARK    4  A    between atoms: C_6  and  N_7
REMARK    5  A    between atoms: C_12  and  C_13
REMARK    6  A    between atoms: C_21  and  C_22
REMARK    7  A    between atoms: C_22  and  N_23
REMARK                            x       y       z     vdW  Elec       q    Type
REMARK                         _______ _______ _______ _____ _____    ______ ____
ROOT
ATOM      1  N   UNL     1      47.521   7.083  13.654  0.00  0.00    +0.000 N 
ATOM      2  C   UNL     1      47.043   8.258  13.121  0.00  0.00    +0.000 A 
ATOM      3  C   UNL     1      45.878   7.978  12.442  0.00  0.00    +0.000 A 
ATOM      4  C   UNL     1      45.634   6.588  12.560  0.00  0.00    +0.000 A 
ATOM      5  C   UNL     1      44.634   5.735  12.061  0.00  0.00    +0.000 A 
ATOM      6  C   UNL     1      44.745   4.388  12.385  0.00  0.00    +0.000 A 
ATOM      7  N   UNL     1      45.733   3.858  13.159  0.00  0.00    +0.000 NA
ATOM      8  C   UNL     1      46.699   4.678  13.634  0.00  0.00    +0.000 A 
ATOM      9  C   UNL     1      46.662   6.042  13.334  0.00  0.00    +0.000 A 
ENDROOT
BRANCH   6  10
ATOM     10  C   UNL     1      43.733   3.428  11.837  0.00  0.00    +0.000 C 
ATOM     11  N   UNL     1      43.697   2.188  12.416  0.00  0.00    +0.000 N 
ATOM     12  O   UNL     1      42.980   3.716  10.913  0.00  0.00    +0.000 OA
ATOM     13  H   UNL     1      44.351   1.960  13.157  0.00  0.00    +0.000 HD
ATOM     14  H   UNL     1      43.053   1.494  12.064  0.00  0.00    +0.000 HD
ENDBRANCH   6  10
BRANCH   1  15
ATOM     15  C   UNL     1      48.819   6.966  14.319  0.00  0.00    +0.000 C 
BRANCH  15  18
ATOM     16  C   UNL     1      48.479   5.338  17.771  0.00  0.00    +0.000 A 
ATOM     17  C   UNL     1      48.617   5.516  16.387  0.00  0.00    +0.000 A 
ATOM     18  C   UNL     1      48.707   6.793  15.816  0.00  0.00    +0.000 A 
ATOM     19  C   UNL     1      48.717   7.903  16.668  0.00  0.00    +0.000 A 
ATOM     20  C   UNL     1      48.632   7.733  18.054  0.00  0.00    +0.000 A 
ATOM     21  C   UNL     1      48.512   6.452  18.625  0.00  0.00    +0.000 A 
BRANCH  16  23
ATOM     22  C   UNL     1      47.515   3.160  17.603  0.00  0.00    +0.000 C 
ATOM     23  O   UNL     1      48.257   4.116  18.356  0.00  0.00    +0.000 OA
ENDBRANCH  16  23
BRANCH  21  24
ATOM     24  C   UNL     1      48.414   6.327  20.125  0.00  0.00    +0.000 C 
BRANCH  24  25
ATOM     25  N   UNL     1      47.143   5.729  20.550  0.00  0.00    +0.000 NA
ATOM     26  H   UNL     1      47.207   4.718  20.424  0.00  0.00    +0.000 HD
ATOM     27  H   UNL     1      46.410   6.041  19.919  0.00  0.00    +0.000 HD
ENDBRANCH  24  25
ENDBRANCH  21  24
ENDBRANCH  15  18
ENDBRANCH   1  15
TORSDOF 6
ENDMDL
MODEL 6
REMARK VINA RESULT:    -5.760      4.617      9.134
REMARK INTER + INTRA:          -8.422
REMARK INTER:                  -7.845
REMARK INTRA:                  -0.577
REMARK UNBOUND:                -0.810
REMARK  Name = 
REMARK  7 active torsions:
REMARK  status: ('A' for Active; 'I' for Inactive)
REMARK    1  A    between atoms: C_1  and  O_2
REMARK    2  A    between atoms: O_2  and  C_3
REMARK    3  A    between atoms: C_5  and  C_6
REMARK    4  A    between atoms: C_6  and  N_7
REMARK    5  A    between atoms: C_12  and  C_13
REMARK    6  A    between atoms: C_21  and  C_22
REMARK    7  A    between atoms: C_22  and  N_23
REMARK                            x       y       z     vdW  Elec       q    Type
REMARK                         _______ _______ _______ _____ _____    ______ ____
ROOT
ATOM      1  N   UNL     1      47.610   6.748  14.026  0.00  0.00    +0.000 N 
ATOM      2  C   UNL     1      47.122   7.964  13.606  0.00  0.00    +0.000 A 
ATOM      3  C   UNL     1      45.995   7.735  12.848  0.00  0.00    +0.000 A 
ATOM      4  C   UNL     1      45.786   6.335  12.799  0.00  0.00    +0.000 A 
ATOM      5  C   UNL     1      44.833   5.520  12.164  0.00  0.00    +0.000 A 
ATOM      6  C   UNL     1      44.967   4.148  12.341  0.00  0.00    +0.000 A 
ATOM      7  N   UNL     1      45.937   3.557  13.095  0.00  0.00    +0.000 NA
ATOM      8  C   UNL     1      46.858   4.342  13.702  0.00  0.00    +0.000 A 
ATOM      9  C   UNL     1      46.795   5.730  13.554  0.00  0.00    +0.000 A 
ENDROOT
BRANCH   6  10
ATOM     10  C   UNL     1      44.007   3.232  11.644  0.00  0.00    +0.000 C 
ATOM     11  N   UNL     1      43.623   2.116  12.337  0.00  0.00    +0.000 N 
ATOM     12  O   UNL     1      43.589   3.449  10.512  0.00  0.00    +0.000 OA
ATOM     13  H   UNL     1      44.006   1.940  13.260  0.00  0.00    +0.000 HD
ATOM     14  H   UNL     1      43.000   1.452  11.901  0.00  0.00    +0.000 HD
ENDBRANCH   6  10
BRANCH   1  15
ATOM     15  C   UNL     1      48.882   6.587  14.732  0.00  0.00    +0.000 C 
BRANCH  15  18
ATOM     16  C   UNL     1      48.470   7.046  18.514  0.00  0.00    +0.000 A 
ATOM     17  C   UNL     1      48.596   7.312  17.143  0.00  0.00    +0.000 A 
ATOM     18  C   UNL     1      48.711   6.279  16.201  0.00  0.00    +0.000 A 
ATOM     19  C   UNL     1      48.638   4.957  16.654  0.00  0.00    +0.000 A 
ATOM     20  C   UNL     1      48.461   4.682  18.013  0.00  0.00    +0.000 A 
ATOM     21  C   UNL     1      48.374   5.718  18.962  0.00  0.00    +0.000 A 
BRANCH  16  23
ATOM     22  C   UNL     1      47.489   9.038  19.390  0.00  0.00    +0.000 C 
ATOM     23  O   UNL     1      48.486   8.024  19.477  0.00  0.00    +0.000 OA
ENDBRANCH  16  23
BRANCH  21  24
ATOM     24  C   UNL     1      48.193   5.365  20.416  0.00  0.00    +0.000 C 
BRANCH  24  25
ATOM     25  N   UNL     1      48.484   3.951  20.685  0.00  0.00    +0.000 NA
ATOM     26  H   UNL     1      48.615   3.836  21.690  0.00  0.00    +0.000 HD
ATOM     27  H   UNL     1      49.378   3.717  20.260  0.00  0.00    +0.000 HD
ENDBRANCH  24  25
ENDBRANCH  21  24
ENDBRANCH  15  18
ENDBRANCH   1  15
TORSDOF 6
ENDMDL
MODEL 7
REMARK VINA RESULT:    -5.585      3.612      5.112
REMARK INTER + INTRA:          -8.191
REMARK INTER:                  -7.438
REMARK INTRA:                  -0.753
REMARK UNBOUND:                -0.810
REMARK  Name = 
REMARK  7 active torsions:
REMARK  status: ('A' for Active; 'I' for Inactive)
REMARK    1  A    between atoms: C_1  and  O_2
REMARK    2  A    between atoms: O_2  and  C_3
REMARK    3  A    between atoms: C_5  and  C_6
REMARK    4  A    between atoms: C_6  and  N_7
REMARK    5  A    between atoms: C_12  and  C_13
REMARK    6  A    between atoms: C_21  and  C_22
REMARK    7  A    between atoms: C_22  and  N_23
REMARK                            x       y       z     vdW  Elec       q    Type
REMARK                         _______ _______ _______ _____ _____    ______ ____
ROOT
ATOM      1  N   UNL     1      46.296   8.020  12.711  0.00  0.00    +0.000 N 
ATOM      2  C   UNL     1      46.338   9.279  12.160  0.00  0.00    +0.000 A 
ATOM      3  C   UNL     1      47.577   9.821  12.421  0.00  0.00    +0.000 A 
ATOM      4  C   UNL     1      48.318   8.865  13.157  0.00  0.00    +0.000 A 
ATOM      5  C   UNL     1      49.606   8.863  13.720  0.00  0.00    +0.000 A 
ATOM      6  C   UNL     1      49.987   7.714  14.404  0.00  0.00    +0.000 A 
ATOM      7  N   UNL     1      49.209   6.604  14.543  0.00  0.00    +0.000 NA
ATOM      8  C   UNL     1      47.966   6.608  14.006  0.00  0.00    +0.000 A 
ATOM      9  C   UNL     1      47.510   7.736  13.319  0.00  0.00    +0.000 A 
ENDROOT
BRANCH   6  10
ATOM     10  C   UNL     1      51.331   7.680  15.066  0.00  0.00    +0.000 C 
ATOM     11  N   UNL     1      52.417   7.688  14.233  0.00  0.00    +0.000 N 
ATOM     12  O   UNL     1      51.468   7.633  16.283  0.00  0.00    +0.000 OA
ATOM     13  H   UNL     1      52.280   7.694  13.227  0.00  0.00    +0.000 HD
ATOM     14  H   UNL     1      53.345   7.637  14.627  0.00  0.00    +0.000 HD
ENDBRANCH   6  10
BRANCH   1  15
ATOM     15  C   UNL     1      45.086   7.198  12.760  0.00  0.00    +0.000 C 
BRANCH  15  18
ATOM     16  C   UNL     1      44.108   4.070  10.774  0.00  0.00    +0.000 A 
ATOM     17  C   UNL     1      44.149   5.067  11.759  0.00  0.00    +0.000 A 
ATOM     18  C   UNL     1      45.033   6.152  11.671  0.00  0.00    +0.000 A 
ATOM     19  C   UNL     1      45.845   6.256  10.537  0.00  0.00    +0.000 A 
ATOM     20  C   UNL     1      45.776   5.294   9.525  0.00  0.00    +0.000 A 
ATOM     21  C   UNL     1      44.909   4.189   9.627  0.00  0.00    +0.000 A 
BRANCH  16  23
ATOM     22  C   UNL     1      43.363   2.266  12.149  0.00  0.00    +0.000 C 
ATOM     23  O   UNL     1      43.354   2.928  10.887  0.00  0.00    +0.000 OA
ENDBRANCH  16  23
BRANCH  21  24
ATOM     24  C   UNL     1      44.881   3.176   8.511  0.00  0.00    +0.000 C 
BRANCH  24  25
ATOM     25  N   UNL     1      45.155   1.816   8.989  0.00  0.00    +0.000 NA
ATOM     26  H   UNL     1      46.157   1.733   9.165  0.00  0.00    +0.000 HD
ATOM     27  H   UNL     1      44.950   1.160   8.240  0.00  0.00    +0.000 HD
ENDBRANCH  24  25
ENDBRANCH  21  24
ENDBRANCH  15  18
ENDBRANCH   1  15
TORSDOF 6
ENDMDL
MODEL 8
REMARK VINA RESULT:    -5.518      4.844      7.132
REMARK INTER + INTRA:          -8.102
REMARK INTER:                  -7.178
REMARK INTRA:                  -0.924
REMARK UNBOUND:                -0.810
REMARK  Name = 
REMARK  7 active torsions:
REMARK  status: ('A' for Active; 'I' for Inactive)
REMARK    1  A    between atoms: C_1  and  O_2
REMARK    2  A    between atoms: O_2  and  C_3
REMARK    3  A    between atoms: C_5  and  C_6
REMARK    4  A    between atoms: C_6  and  N_7
REMARK    5  A    between atoms: C_12  and  C_13
REMARK    6  A    between atoms: C_21  and  C_22
REMARK    7  A    between atoms: C_22  and  N_23
REMARK                            x       y       z     vdW  Elec       q    Type
REMARK                         _______ _______ _______ _____ _____    ______ ____
ROOT
ATOM      1  N   UNL     1      48.760   7.530  15.046  0.00  0.00    +0.000 N 
ATOM      2  C   UNL     1      48.697   8.874  15.334  0.00  0.00    +0.000 A 
ATOM      3  C   UNL     1      48.557   9.014  16.697  0.00  0.00    +0.000 A 
ATOM      4  C   UNL     1      48.531   7.716  17.263  0.00  0.00    +0.000 A 
ATOM      5  C   UNL     1      48.380   7.235  18.575  0.00  0.00    +0.000 A 
ATOM      6  C   UNL     1      48.390   5.855  18.738  0.00  0.00    +0.000 A 
ATOM      7  N   UNL     1      48.553   4.958  17.726  0.00  0.00    +0.000 NA
ATOM      8  C   UNL     1      48.692   5.421  16.461  0.00  0.00    +0.000 A 
ATOM      9  C   UNL     1      48.675   6.797  16.219  0.00  0.00    +0.000 A 
ENDROOT
BRANCH   6  10
ATOM     10  C   UNL     1      48.183   5.289  20.111  0.00  0.00    +0.000 C 
ATOM     11  N   UNL     1      48.573   3.991  20.296  0.00  0.00    +0.000 N 
ATOM     12  O   UNL     1      47.680   5.935  21.024  0.00  0.00    +0.000 OA
ATOM     13  H   UNL     1      48.957   3.464  19.518  0.00  0.00    +0.000 HD
ATOM     14  H   UNL     1      48.429   3.552  21.194  0.00  0.00    +0.000 HD
ENDBRANCH   6  10
BRANCH   1  15
ATOM     15  C   UNL     1      48.762   6.994  13.684  0.00  0.00    +0.000 C 
BRANCH  15  18
ATOM     16  C   UNL     1      45.369   5.429  12.834  0.00  0.00    +0.000 A 
ATOM     17  C   UNL     1      46.645   5.636  13.377  0.00  0.00    +0.000 A 
ATOM     18  C   UNL     1      47.374   6.805  13.117  0.00  0.00    +0.000 A 
ATOM     19  C   UNL     1      46.774   7.804  12.342  0.00  0.00    +0.000 A 
ATOM     20  C   UNL     1      45.482   7.628  11.837  0.00  0.00    +0.000 A 
ATOM     21  C   UNL     1      44.761   6.442  12.074  0.00  0.00    +0.000 A 
BRANCH  16  23
ATOM     22  C   UNL     1      45.201   3.117  12.265  0.00  0.00    +0.000 C 
ATOM     23  O   UNL     1      44.680   4.248  12.956  0.00  0.00    +0.000 OA
ENDBRANCH  16  23
BRANCH  21  24
ATOM     24  C   UNL     1      43.375   6.301  11.499  0.00  0.00    +0.000 C 
BRANCH  24  25
ATOM     25  N   UNL     1      43.352   5.439  10.312  0.00  0.00    +0.000 NA
ATOM     26  H   UNL     1      42.684   4.685  10.476  0.00  0.00    +0.000 HD
ATOM     27  H   UNL     1      44.259   4.990  10.218  0.00  0.00    +0.000 HD
ENDBRANCH  24  25
ENDBRANCH  21  24
ENDBRANCH  15  18
ENDBRANCH   1  15
TORSDOF 6
ENDMDL
MODEL 9
REMARK VINA RESULT:    -5.474      4.445      7.504
REMARK INTER + INTRA:          -8.044
REMARK INTER:                  -7.166
REMARK INTRA:                  -0.878
REMARK UNBOUND:                -0.810
REMARK  Name = 
REMARK  7 active torsions:
REMARK  status: ('A' for Active; 'I' for Inactive)
REMARK    1  A    between atoms: C_1  and  O_2
REMARK    2  A    between atoms: O_2  and  C_3
REMARK    3  A    between atoms: C_5  and  C_6
REMARK    4  A    between atoms: C_6  and  N_7
REMARK    5  A    between atoms: C_12  and  C_13
REMARK    6  A    between atoms: C_21  and  C_22
REMARK    7  A    between atoms: C_22  and  N_23
REMARK                            x       y       z     vdW  Elec       q    Type
REMARK                         _______ _______ _______ _____ _____    ______ ____
ROOT
ATOM      1  N   UNL     1      47.302   6.377  13.560  0.00  0.00    +0.000 N 
ATOM      2  C   UNL     1      47.561   5.609  14.672  0.00  0.00    +0.000 A 
ATOM      3  C   UNL     1      46.922   4.399  14.515  0.00  0.00    +0.000 A 
ATOM      4  C   UNL     1      46.248   4.426  13.269  0.00  0.00    +0.000 A 
ATOM      5  C   UNL     1      45.421   3.510  12.596  0.00  0.00    +0.000 A 
ATOM      6  C   UNL     1      44.917   3.913  11.365  0.00  0.00    +0.000 A 
ATOM      7  N   UNL     1      45.187   5.111  10.773  0.00  0.00    +0.000 NA
ATOM      8  C   UNL     1      45.978   5.995  11.425  0.00  0.00    +0.000 A 
ATOM      9  C   UNL     1      46.507   5.665  12.675  0.00  0.00    +0.000 A 
ENDROOT
BRANCH   6  10
ATOM     10  C   UNL     1      43.990   2.994  10.628  0.00  0.00    +0.000 C 
ATOM     11  N   UNL     1      44.192   2.882   9.279  0.00  0.00    +0.000 N 
ATOM     12  O   UNL     1      43.087   2.379  11.185  0.00  0.00    +0.000 OA
ATOM     13  H   UNL     1      44.925   3.424   8.834  0.00  0.00    +0.000 HD
ATOM     14  H   UNL     1      43.577   2.298   8.732  0.00  0.00    +0.000 HD
ENDBRANCH   6  10
BRANCH   1  15
ATOM     15  C   UNL     1      47.696   7.781  13.438  0.00  0.00    +0.000 C 
BRANCH  15  18
ATOM     16  C   UNL     1      51.460   8.499  13.433  0.00  0.00    +0.000 A 
ATOM     17  C   UNL     1      50.140   8.297  13.862  0.00  0.00    +0.000 A 
ATOM     18  C   UNL     1      49.119   7.960  12.962  0.00  0.00    +0.000 A 
ATOM     19  C   UNL     1      49.455   7.768  11.618  0.00  0.00    +0.000 A 
ATOM     20  C   UNL     1      50.778   7.917  11.189  0.00  0.00    +0.000 A 
ATOM     21  C   UNL     1      51.798   8.284  12.087  0.00  0.00    +0.000 A 
BRANCH  16  23
ATOM     22  C   UNL     1      52.289  10.250  14.828  0.00  0.00    +0.000 C 
ATOM     23  O   UNL     1      52.459   8.956  14.257  0.00  0.00    +0.000 OA
ENDBRANCH  16  23
BRANCH  21  24
ATOM     24  C   UNL     1      53.206   8.440  11.570  0.00  0.00    +0.000 C 
BRANCH  24  25
ATOM     25  N   UNL     1      54.116   7.431  12.126  0.00  0.00    +0.000 NA
ATOM     26  H   UNL     1      53.690   6.512  12.001  0.00  0.00    +0.000 HD
ATOM     27  H   UNL     1      54.183   7.572  13.130  0.00  0.00    +0.000 HD
ENDBRANCH  24  25
ENDBRANCH  21  24
ENDBRANCH  15  18
ENDBRANCH   1  15
TORSDOF 6
ENDMDL
