MODEL 1
REMARK VINA RESULT:    -9.316      0.000      0.000
REMARK INTER + INTRA:         -12.197
REMARK INTER:                 -11.494
REMARK INTRA:                  -0.703
REMARK UNBOUND:                -0.703
REMARK  Name = 
REMARK  6 active torsions:
REMARK  status: ('A' for Active; 'I' for Inactive)
REMARK    1  A    between atoms: C_1  and  C_2
REMARK    2  A    between atoms: C_9  and  C_10
REMARK    3  A    between atoms: C_10  and  N_11
REMARK    4  A    between atoms: N_11  and  C_12
REMARK    5  A    between atoms: C_15  and  C_16
REMARK    6  A    between atoms: C_25  and  C_26
REMARK                            x       y       z     vdW  Elec       q    Type
REMARK                         _______ _______ _______ _____ _____    ______ ____
ROOT
ATOM      1  C   UNL     1      43.919   4.982  11.402  0.00  0.00    +0.000 C 
ATOM      2  C   UNL     1      43.346   6.367  11.204  0.00  0.00    +0.000 C 
ATOM      3  C   UNL     1      42.559   5.387  12.002  0.00  0.00    +0.000 C 
ENDROOT
BRANCH   1  12
ATOM      4  C   UNL     1      49.487   7.171  11.652  0.00  0.00    +0.000 C 
ATOM      5  C   UNL     1      49.318   8.142  12.825  0.00  0.00    +0.000 C 
ATOM      6  C   UNL     1      48.628   7.492  14.057  0.00  0.00    +0.000 C 
ATOM      7  N   UNL     1      47.184   7.354  13.872  0.00  0.00    +0.000 N 
ATOM      8  C   UNL     1      46.709   6.109  13.512  0.00  0.00    +0.000 A 
ATOM      9  N   UNL     1      47.383   4.995  13.831  0.00  0.00    +0.000 NA
ATOM     10  C   UNL     1      46.868   3.817  13.428  0.00  0.00    +0.000 A 
ATOM     11  C   UNL     1      45.723   3.707  12.679  0.00  0.00    +0.000 A 
ATOM     12  C   UNL     1      45.095   4.894  12.372  0.00  0.00    +0.000 A 
ATOM     13  N   UNL     1      45.558   6.067  12.844  0.00  0.00    +0.000 NA
ATOM     14  C   UNL     1      46.487   8.539  13.342  0.00  0.00    +0.000 C 
ATOM     15  C   UNL     1      47.219   9.161  12.121  0.00  0.00    +0.000 C 
ATOM     16  C   UNL     1      46.578  10.500  11.745  0.00  0.00    +0.000 C 
ATOM     17  N   UNL     1      48.660   9.397  12.380  0.00  0.00    +0.000 NA
ATOM     18  H   UNL     1      48.729  10.067  13.148  0.00  0.00    +0.000 HD
ENDBRANCH   1  12
BRANCH   1  19
ATOM     19  N   UNL     1      43.758   3.814  10.529  0.00  0.00    +0.000 N 
ATOM     20  H   UNL     1      43.354   3.020  11.021  0.00  0.00    +0.000 HD
BRANCH  19  21
ATOM     21  C   UNL     1      44.620   3.390   9.511  0.00  0.00    +0.000 A 
ATOM     22  C   UNL     1      45.042   2.073   9.311  0.00  0.00    +0.000 A 
ATOM     23  C   UNL     1      45.984   1.771   8.323  0.00  0.00    +0.000 A 
ATOM     24  C   UNL     1      46.543   2.788   7.525  0.00  0.00    +0.000 A 
ATOM     25  C   UNL     1      46.166   4.110   7.752  0.00  0.00    +0.000 A 
ATOM     26  C   UNL     1      45.220   4.399   8.737  0.00  0.00    +0.000 A 
BRANCH  24  27
ATOM     27  C   UNL     1      47.568   2.445   6.509  0.00  0.00    +0.000 C 
ATOM     28  N   UNL     1      47.531   3.135   5.322  0.00  0.00    +0.000 N 
ATOM     29  O   UNL     1      48.404   1.578   6.704  0.00  0.00    +0.000 OA
ATOM     30  H   UNL     1      46.751   3.706   5.036  0.00  0.00    +0.000 HD
ATOM     31  H   UNL     1      48.198   2.855   4.615  0.00  0.00    +0.000 HD
ENDBRANCH  24  27
ENDBRANCH  19  21
ENDBRANCH   1  19
TORSDOF 4
ENDMDL
MODEL 2
REMARK VINA RESULT:    -7.082      3.413      6.053
REMARK INTER + INTRA:          -9.441
REMARK INTER:                  -8.834
REMARK INTRA:                  -0.607
REMARK UNBOUND:                -0.703
REMARK  Name = 
REMARK  6 active torsions:
REMARK  status: ('A' for Active; 'I' for Inactive)
REMARK    1  A    between atoms: C_1  and  C_2
REMARK    2  A    between atoms: C_9  and  C_10
REMARK    3  A    between atoms: C_10  and  N_11
REMARK    4  A    between atoms: N_11  and  C_12
REMARK    5  A    between atoms: C_15  and  C_16
REMARK    6  A    between atoms: C_25  and  C_26
REMARK                            x       y       z     vdW  Elec       q    Type
REMARK                         _______ _______ _______ _____ _____    ______ ____
ROOT
ATOM      1  C   UNL     1      48.091   7.571  13.480  0.00  0.00    +0.000 C 
ATOM      2  C   UNL     1      49.197   7.006  12.620  0.00  0.00    +0.000 C 
ATOM      3  C   UNL     1      48.704   8.378  12.320  0.00  0.00    +0.000 C 
ENDROOT
BRANCH   1  12
ATOM      4  C   UNL     1      46.803   5.785  19.050  0.00  0.00    +0.000 C 
ATOM      5  C   UNL     1      48.156   5.176  19.432  0.00  0.00    +0.000 C 
ATOM      6  C   UNL     1      49.354   6.117  19.121  0.00  0.00    +0.000 C 
ATOM      7  N   UNL     1      49.686   6.134  17.697  0.00  0.00    +0.000 N 
ATOM      8  C   UNL     1      49.232   7.206  16.955  0.00  0.00    +0.000 A 
ATOM      9  N   UNL     1      48.995   8.393  17.531  0.00  0.00    +0.000 NA
ATOM     10  C   UNL     1      48.533   9.385  16.747  0.00  0.00    +0.000 A 
ATOM     11  C   UNL     1      48.257   9.231  15.411  0.00  0.00    +0.000 A 
ATOM     12  C   UNL     1      48.505   7.980  14.892  0.00  0.00    +0.000 A 
ATOM     13  N   UNL     1      49.046   7.008  15.651  0.00  0.00    +0.000 NA
ATOM     14  C   UNL     1      49.760   4.818  17.037  0.00  0.00    +0.000 C 
ATOM     15  C   UNL     1      48.550   3.910  17.387  0.00  0.00    +0.000 C 
ATOM     16  C   UNL     1      48.778   2.493  16.854  0.00  0.00    +0.000 C 
ATOM     17  N   UNL     1      48.308   3.820  18.847  0.00  0.00    +0.000 NA
ATOM     18  H   UNL     1      49.137   3.397  19.271  0.00  0.00    +0.000 HD
ENDBRANCH   1  12
BRANCH   1  19
ATOM     19  N   UNL     1      46.643   7.427  13.286  0.00  0.00    +0.000 N 
ATOM     20  H   UNL     1      46.110   7.902  14.011  0.00  0.00    +0.000 HD
BRANCH  19  21
ATOM     21  C   UNL     1      45.959   6.302  12.811  0.00  0.00    +0.000 A 
ATOM     22  C   UNL     1      45.871   5.075  13.475  0.00  0.00    +0.000 A 
ATOM     23  C   UNL     1      45.246   3.981  12.868  0.00  0.00    +0.000 A 
ATOM     24  C   UNL     1      44.712   4.087  11.569  0.00  0.00    +0.000 A 
ATOM     25  C   UNL     1      44.840   5.291  10.880  0.00  0.00    +0.000 A 
ATOM     26  C   UNL     1      45.461   6.377  11.499  0.00  0.00    +0.000 A 
BRANCH  24  27
ATOM     27  C   UNL     1      44.087   2.901  10.933  0.00  0.00    +0.000 C 
ATOM     28  N   UNL     1      44.741   2.346   9.861  0.00  0.00    +0.000 N 
ATOM     29  O   UNL     1      43.029   2.440  11.329  0.00  0.00    +0.000 OA
ATOM     30  H   UNL     1      45.497   2.803   9.375  0.00  0.00    +0.000 HD
ATOM     31  H   UNL     1      44.279   1.574   9.399  0.00  0.00    +0.000 HD
ENDBRANCH  24  27
ENDBRANCH  19  21
ENDBRANCH   1  19
TORSDOF 4
ENDMDL
MODEL 3
REMARK VINA RESULT:    -6.342      3.349      5.815
REMARK INTER + INTRA:          -8.528
REMARK INTER:                  -8.181
REMARK INTRA:                  -0.347
REMARK UNBOUND:                -0.703
REMARK  Name = 
REMARK  6 active torsions:
REMARK  status: ('A' for Active; 'I' for Inactive)
REMARK    1  A    between atoms: C_1  and  C_2
REMARK    2  A    between atoms: C_9  and  C_10
REMARK    3  A    between atoms: C_10  and  N_11
REMARK    4  A    between atoms: N_11  and  C_12
REMARK    5  A    between atoms: C_15  and  C_16
REMARK    6  A    between atoms: C_25  and  C_26
REMARK                            x       y       z     vdW  Elec       q    Type
REMARK                         _______ _______ _______ _____ _____    ______ ____
ROOT
ATOM      1  C   UNL     1      48.162   8.016  13.083  0.00  0.00    +0.000 C 
ATOM      2  C   UNL     1      48.238   8.781  11.782  0.00  0.00    +0.000 C 
ATOM      3  C   UNL     1      47.641   9.462  12.964  0.00  0.00    +0.000 C 
ENDROOT
BRANCH   1  12
ATOM      4  C   UNL     1      50.134   8.564  18.711  0.00  0.00    +0.000 C 
ATOM      5  C   UNL     1      50.390   7.088  19.028  0.00  0.00    +0.000 C 
ATOM      6  C   UNL     1      51.218   6.366  17.927  0.00  0.00    +0.000 C 
ATOM      7  N   UNL     1      50.410   6.046  16.751  0.00  0.00    +0.000 N 
ATOM      8  C   UNL     1      50.526   6.882  15.658  0.00  0.00    +0.000 A 
ATOM      9  N   UNL     1      51.646   7.588  15.445  0.00  0.00    +0.000 NA
ATOM     10  C   UNL     1      51.677   8.397  14.370  0.00  0.00    +0.000 A 
ATOM     11  C   UNL     1      50.616   8.566  13.516  0.00  0.00    +0.000 A 
ATOM     12  C   UNL     1      49.492   7.826  13.808  0.00  0.00    +0.000 A 
ATOM     13  N   UNL     1      49.485   6.950  14.832  0.00  0.00    +0.000 NA
ATOM     14  C   UNL     1      49.096   5.436  17.018  0.00  0.00    +0.000 C 
ATOM     15  C   UNL     1      48.312   6.183  18.132  0.00  0.00    +0.000 C 
ATOM     16  C   UNL     1      47.058   5.393  18.519  0.00  0.00    +0.000 C 
ATOM     17  N   UNL     1      49.121   6.391  19.357  0.00  0.00    +0.000 NA
ATOM     18  H   UNL     1      49.365   5.469  19.725  0.00  0.00    +0.000 HD
ENDBRANCH   1  12
BRANCH   1  19
ATOM     19  N   UNL     1      47.086   7.128  13.537  0.00  0.00    +0.000 N 
ATOM     20  H   UNL     1      47.201   6.852  14.510  0.00  0.00    +0.000 HD
BRANCH  19  21
ATOM     21  C   UNL     1      46.447   6.123  12.800  0.00  0.00    +0.000 A 
ATOM     22  C   UNL     1      46.016   6.249  11.477  0.00  0.00    +0.000 A 
ATOM     23  C   UNL     1      45.298   5.219  10.862  0.00  0.00    +0.000 A 
ATOM     24  C   UNL     1      44.977   4.044  11.569  0.00  0.00    +0.000 A 
ATOM     25  C   UNL     1      45.359   3.932  12.904  0.00  0.00    +0.000 A 
ATOM     26  C   UNL     1      46.079   4.964  13.505  0.00  0.00    +0.000 A 
BRANCH  24  27
ATOM     27  C   UNL     1      44.182   2.981  10.905  0.00  0.00    +0.000 C 
ATOM     28  N   UNL     1      44.743   2.369   9.811  0.00  0.00    +0.000 N 
ATOM     29  O   UNL     1      43.070   2.668  11.297  0.00  0.00    +0.000 OA
ATOM     30  H   UNL     1      45.556   2.725   9.332  0.00  0.00    +0.000 HD
ATOM     31  H   UNL     1      44.171   1.686   9.331  0.00  0.00    +0.000 HD
ENDBRANCH  24  27
ENDBRANCH  19  21
ENDBRANCH   1  19
TORSDOF 4
ENDMDL
