MODEL 1
REMARK VINA RESULT:    -7.629      0.000      0.000
REMARK INTER + INTRA:         -11.167
REMARK INTER:                 -10.527
REMARK INTRA:                  -0.639
REMARK UNBOUND:                -0.639
REMARK  Name = 
REMARK  7 active torsions:
REMARK  status: ('A' for Active; 'I' for Inactive)
REMARK    1  A    between atoms: N_1  and  C_2
REMARK    2  A    between atoms: C_2  and  C_3
REMARK    3  A    between atoms: C_7  and  C_8
REMARK    4  A    between atoms: C_8  and  C_9
REMARK    5  A    between atoms: C_9  and  O_10
REMARK    6  A    between atoms: O_10  and  C_11
REMARK    7  A    between atoms: C_14  and  C_15
REMARK                            x       y       z     vdW  Elec       q    Type
REMARK                         _______ _______ _______ _____ _____    ______ ____
ROOT
ATOM      1  C   UNL     1      43.458   4.987  10.370  0.00  0.00    +0.000 C 
ENDROOT
BRANCH   1   2
ATOM      2  C   UNL     1      43.477   5.477  11.820  0.00  0.00    +0.000 C 
BRANCH   2   7
ATOM      3  C   UNL     1      46.720   5.236  13.831  0.00  0.00    +0.000 A 
ATOM      4  C   UNL     1      47.586   5.995  13.034  0.00  0.00    +0.000 A 
ATOM      5  C   UNL     1      47.118   6.616  11.876  0.00  0.00    +0.000 A 
ATOM      6  C   UNL     1      45.781   6.477  11.496  0.00  0.00    +0.000 A 
ATOM      7  C   UNL     1      44.897   5.721  12.277  0.00  0.00    +0.000 A 
ATOM      8  C   UNL     1      45.376   5.107  13.444  0.00  0.00    +0.000 A 
BRANCH   3   9
ATOM      9  C   UNL     1      47.238   4.501  15.040  0.00  0.00    +0.000 C 
BRANCH   9  10
ATOM     10  N   UNL     1      47.595   3.131  14.695  0.00  0.00    +0.000 NA
ATOM     11  H   UNL     1      48.021   3.114  13.772  0.00  0.00    +0.000 HD
ATOM     12  H   UNL     1      46.743   2.574  14.632  0.00  0.00    +0.000 HD
ENDBRANCH   9  10
ENDBRANCH   3   9
ENDBRANCH   2   7
ENDBRANCH   1   2
BRANCH   1  13
ATOM     13  O   UNL     1      43.668   3.567  10.312  0.00  0.00    +0.000 OA
BRANCH  13  14
ATOM     14  C   UNL     1      44.613   3.236   9.359  0.00  0.00    +0.000 A 
ATOM     15  C   UNL     1      45.080   4.227   8.502  0.00  0.00    +0.000 A 
ATOM     16  N   UNL     1      46.016   3.997   7.539  0.00  0.00    +0.000 NA
ATOM     17  C   UNL     1      46.461   2.709   7.479  0.00  0.00    +0.000 A 
ATOM     18  C   UNL     1      45.995   1.720   8.330  0.00  0.00    +0.000 A 
ATOM     19  N   UNL     1      45.065   1.966   9.285  0.00  0.00    +0.000 NA
BRANCH  17  20
ATOM     20  C   UNL     1      47.493   2.352   6.464  0.00  0.00    +0.000 C 
ATOM     21  N   UNL     1      47.528   3.129   5.339  0.00  0.00    +0.000 N 
ATOM     22  O   UNL     1      48.270   1.420   6.623  0.00  0.00    +0.000 OA
ATOM     23  H   UNL     1      46.878   3.898   5.224  0.00  0.00    +0.000 HD
ATOM     24  H   UNL     1      48.214   2.926   4.625  0.00  0.00    +0.000 HD
ENDBRANCH  17  20
ENDBRANCH  13  14
ENDBRANCH   1  13
TORSDOF 7
ENDMDL
MODEL 2
REMARK VINA RESULT:    -7.553      1.937      2.513
REMARK INTER + INTRA:         -11.062
REMARK INTER:                 -10.493
REMARK INTRA:                  -0.569
REMARK UNBOUND:                -0.639
REMARK  Name = 
REMARK  7 active torsions:
REMARK  status: ('A' for Active; 'I' for Inactive)
REMARK    1  A    between atoms: N_1  and  C_2
REMARK    2  A    between atoms: C_2  and  C_3
REMARK    3  A    between atoms: C_7  and  C_8
REMARK    4  A    between atoms: C_8  and  C_9
REMARK    5  A    between atoms: C_9  and  O_10
REMARK    6  A    between atoms: O_10  and  C_11
REMARK    7  A    between atoms: C_14  and  C_15
REMARK                            x       y       z     vdW  Elec       q    Type
REMARK                         _______ _______ _______ _____ _____    ______ ____
ROOT
ATOM      1  C   UNL     1      43.386   3.702  11.284  0.00  0.00    +0.000 C 
ENDROOT
BRANCH   1   2
ATOM      2  C   UNL     1      43.361   4.608  12.517  0.00  0.00    +0.000 C 
BRANCH   2   7
ATOM      3  C   UNL     1      46.126   7.209  12.983  0.00  0.00    +0.000 A 
ATOM      4  C   UNL     1      47.193   6.396  13.386  0.00  0.00    +0.000 A 
ATOM      5  C   UNL     1      47.034   5.012  13.467  0.00  0.00    +0.000 A 
ATOM      6  C   UNL     1      45.805   4.427  13.156  0.00  0.00    +0.000 A 
ATOM      7  C   UNL     1      44.724   5.220  12.752  0.00  0.00    +0.000 A 
ATOM      8  C   UNL     1      44.896   6.610  12.666  0.00  0.00    +0.000 A 
BRANCH   3   9
ATOM      9  C   UNL     1      46.269   8.709  12.967  0.00  0.00    +0.000 C 
BRANCH   9  10
ATOM     10  N   UNL     1      44.966   9.348  12.835  0.00  0.00    +0.000 NA
ATOM     11  H   UNL     1      45.016  10.297  13.199  0.00  0.00    +0.000 HD
ATOM     12  H   UNL     1      44.293   8.850  13.416  0.00  0.00    +0.000 HD
ENDBRANCH   9  10
ENDBRANCH   3   9
ENDBRANCH   2   7
ENDBRANCH   1   2
BRANCH   1  13
ATOM     13  O   UNL     1      43.685   4.462  10.102  0.00  0.00    +0.000 OA
BRANCH  13  14
ATOM     14  C   UNL     1      44.605   3.809   9.302  0.00  0.00    +0.000 A 
ATOM     15  C   UNL     1      44.784   2.438   9.464  0.00  0.00    +0.000 A 
ATOM     16  N   UNL     1      45.660   1.710   8.717  0.00  0.00    +0.000 NA
ATOM     17  C   UNL     1      46.353   2.434   7.791  0.00  0.00    +0.000 A 
ATOM     18  C   UNL     1      46.177   3.800   7.630  0.00  0.00    +0.000 A 
ATOM     19  N   UNL     1      45.300   4.510   8.381  0.00  0.00    +0.000 NA
BRANCH  17  20
ATOM     20  C   UNL     1      47.332   1.731   6.916  0.00  0.00    +0.000 C 
ATOM     21  N   UNL     1      48.397   2.472   6.482  0.00  0.00    +0.000 N 
ATOM     22  O   UNL     1      47.199   0.556   6.599  0.00  0.00    +0.000 OA
ATOM     23  H   UNL     1      48.492   3.443   6.754  0.00  0.00    +0.000 HD
ATOM     24  H   UNL     1      49.088   2.035   5.889  0.00  0.00    +0.000 HD
ENDBRANCH  17  20
ENDBRANCH  13  14
ENDBRANCH   1  13
TORSDOF 7
ENDMDL
MODEL 3
REMARK VINA RESULT:    -7.474      2.507      6.214
REMARK INTER + INTRA:         -10.953
REMARK INTER:                 -10.343
REMARK INTRA:                  -0.609
REMARK UNBOUND:                -0.639
REMARK  Name = 
REMARK  7 active torsions:
REMARK  status: ('A' for Active; 'I' for Inactive)
REMARK    1  A    between atoms: N_1  and  C_2
REMARK    2  A    between atoms: C_2  and  C_3
REMARK    3  A    between atoms: C_7  and  C_8
REMARK    4  A    between atoms: C_8  and  C_9
REMARK    5  A    between atoms: C_9  and  O_10
REMARK    6  A    between atoms: O_10  and  C_11
REMARK    7  A    between atoms: C_14  and  C_15
REMARK                            x       y       z     vdW  Elec       q    Type
REMARK                         _______ _______ _______ _____ _____    ______ ____
ROOT
ATOM      1  C   UNL     1      43.413   3.742  11.102  0.00  0.00    +0.000 C 
ENDROOT
BRANCH   1   2
ATOM      2  C   UNL     1      44.016   2.502  10.437  0.00  0.00    +0.000 C 
BRANCH   2   7
ATOM      3  C   UNL     1      46.576   2.265   7.607  0.00  0.00    +0.000 A 
ATOM      4  C   UNL     1      46.724   3.616   7.266  0.00  0.00    +0.000 A 
ATOM      5  C   UNL     1      46.034   4.601   7.972  0.00  0.00    +0.000 A 
ATOM      6  C   UNL     1      45.182   4.247   9.020  0.00  0.00    +0.000 A 
ATOM      7  C   UNL     1      45.017   2.903   9.377  0.00  0.00    +0.000 A 
ATOM      8  C   UNL     1      45.721   1.920   8.666  0.00  0.00    +0.000 A 
BRANCH   3   9
ATOM      9  C   UNL     1      47.259   1.191   6.798  0.00  0.00    +0.000 C 
BRANCH   9  10
ATOM     10  N   UNL     1      48.373   1.747   6.042  0.00  0.00    +0.000 NA
ATOM     11  H   UNL     1      48.017   2.379   5.329  0.00  0.00    +0.000 HD
ATOM     12  H   UNL     1      48.847   0.991   5.549  0.00  0.00    +0.000 HD
ENDBRANCH   9  10
ENDBRANCH   3   9
ENDBRANCH   2   7
ENDBRANCH   1   2
BRANCH   1  13
ATOM     13  O   UNL     1      43.638   3.716  12.520  0.00  0.00    +0.000 OA
BRANCH  13  14
ATOM     14  C   UNL     1      44.792   4.399  12.861  0.00  0.00    +0.000 A 
ATOM     15  C   UNL     1      44.854   5.770  12.631  0.00  0.00    +0.000 A 
ATOM     16  N   UNL     1      45.943   6.527  12.941  0.00  0.00    +0.000 NA
ATOM     17  C   UNL     1      46.977   5.831  13.497  0.00  0.00    +0.000 A 
ATOM     18  C   UNL     1      46.917   4.465  13.724  0.00  0.00    +0.000 A 
ATOM     19  N   UNL     1      45.824   3.726  13.412  0.00  0.00    +0.000 NA
BRANCH  17  20
ATOM     20  C   UNL     1      48.214   6.567  13.881  0.00  0.00    +0.000 C 
ATOM     21  N   UNL     1      48.213   7.144  15.121  0.00  0.00    +0.000 N 
ATOM     22  O   UNL     1      49.181   6.652  13.136  0.00  0.00    +0.000 OA
ATOM     23  H   UNL     1      47.405   7.063  15.726  0.00  0.00    +0.000 HD
ATOM     24  H   UNL     1      49.033   7.651  15.426  0.00  0.00    +0.000 HD
ENDBRANCH  17  20
ENDBRANCH  13  14
ENDBRANCH   1  13
TORSDOF 7
ENDMDL
MODEL 4
REMARK VINA RESULT:    -7.076      2.473      7.091
REMARK INTER + INTRA:         -10.404
REMARK INTER:                  -9.999
REMARK INTRA:                  -0.405
REMARK UNBOUND:                -0.639
REMARK  Name = 
REMARK  7 active torsions:
REMARK  status: ('A' for Active; 'I' for Inactive)
REMARK    1  A    between atoms: N_1  and  C_2
REMARK    2  A    between atoms: C_2  and  C_3
REMARK    3  A    between atoms: C_7  and  C_8
REMARK    4  A    between atoms: C_8  and  C_9
REMARK    5  A    between atoms: C_9  and  O_10
REMARK    6  A    between atoms: O_10  and  C_11
REMARK    7  A    between atoms: C_14  and  C_15
REMARK                            x       y       z     vdW  Elec       q    Type
REMARK                         _______ _______ _______ _____ _____    ______ ____
ROOT
ATOM      1  C   UNL     1      44.643   4.422  10.627  0.00  0.00    +0.000 C 
ENDROOT
BRANCH   1   2
ATOM      2  C   UNL     1      44.475   4.520   9.110  0.00  0.00    +0.000 C 
BRANCH   2   7
ATOM      3  C   UNL     1      46.677   2.579   6.659  0.00  0.00    +0.000 A 
ATOM      4  C   UNL     1      46.676   1.308   7.248  0.00  0.00    +0.000 A 
ATOM      5  C   UNL     1      45.936   1.067   8.405  0.00  0.00    +0.000 A 
ATOM      6  C   UNL     1      45.197   2.095   8.993  0.00  0.00    +0.000 A 
ATOM      7  C   UNL     1      45.184   3.374   8.423  0.00  0.00    +0.000 A 
ATOM      8  C   UNL     1      45.925   3.605   7.255  0.00  0.00    +0.000 A 
BRANCH   3   9
ATOM      9  C   UNL     1      47.535   2.865   5.454  0.00  0.00    +0.000 C 
BRANCH   9  10
ATOM     10  N   UNL     1      48.552   1.835   5.290  0.00  0.00    +0.000 NA
ATOM     11  H   UNL     1      48.504   1.185   6.071  0.00  0.00    +0.000 HD
ATOM     12  H   UNL     1      49.473   2.270   5.332  0.00  0.00    +0.000 HD
ENDBRANCH   9  10
ENDBRANCH   3   9
ENDBRANCH   2   7
ENDBRANCH   1   2
BRANCH   1  13
ATOM     13  O   UNL     1      45.356   5.562  11.133  0.00  0.00    +0.000 OA
BRANCH  13  14
ATOM     14  C   UNL     1      45.950   5.286  12.351  0.00  0.00    +0.000 A 
ATOM     15  C   UNL     1      45.839   4.003  12.878  0.00  0.00    +0.000 A 
ATOM     16  N   UNL     1      46.398   3.636  14.065  0.00  0.00    +0.000 NA
ATOM     17  C   UNL     1      47.078   4.633  14.703  0.00  0.00    +0.000 A 
ATOM     18  C   UNL     1      47.186   5.912  14.180  0.00  0.00    +0.000 A 
ATOM     19  N   UNL     1      46.626   6.260  12.996  0.00  0.00    +0.000 NA
BRANCH  17  20
ATOM     20  C   UNL     1      47.734   4.335  16.006  0.00  0.00    +0.000 C 
ATOM     21  N   UNL     1      47.004   3.594  16.895  0.00  0.00    +0.000 N 
ATOM     22  O   UNL     1      48.863   4.725  16.274  0.00  0.00    +0.000 OA
ATOM     23  H   UNL     1      46.071   3.278  16.657  0.00  0.00    +0.000 HD
ATOM     24  H   UNL     1      47.410   3.364  17.791  0.00  0.00    +0.000 HD
ENDBRANCH  17  20
ENDBRANCH  13  14
ENDBRANCH   1  13
TORSDOF 7
ENDMDL
MODEL 5
REMARK VINA RESULT:    -6.906      1.795      2.600
REMARK INTER + INTRA:         -10.170
REMARK INTER:                  -9.669
REMARK INTRA:                  -0.501
REMARK UNBOUND:                -0.639
REMARK  Name = 
REMARK  7 active torsions:
REMARK  status: ('A' for Active; 'I' for Inactive)
REMARK    1  A    between atoms: N_1  and  C_2
REMARK    2  A    between atoms: C_2  and  C_3
REMARK    3  A    between atoms: C_7  and  C_8
REMARK    4  A    between atoms: C_8  and  C_9
REMARK    5  A    between atoms: C_9  and  O_10
REMARK    6  A    between atoms: O_10  and  C_11
REMARK    7  A    between atoms: C_14  and  C_15
REMARK                            x       y       z     vdW  Elec       q    Type
REMARK                         _______ _______ _______ _____ _____    ______ ____
ROOT
ATOM      1  C   UNL     1      43.989   5.037  11.027  0.00  0.00    +0.000 C 
ENDROOT
BRANCH   1   2
ATOM      2  C   UNL     1      44.696   6.389  11.139  0.00  0.00    +0.000 C 
BRANCH   2   7
ATOM      3  C   UNL     1      48.167   7.094  12.581  0.00  0.00    +0.000 A 
ATOM      4  C   UNL     1      48.202   6.188  13.649  0.00  0.00    +0.000 A 
ATOM      5  C   UNL     1      47.130   5.326  13.878  0.00  0.00    +0.000 A 
ATOM      6  C   UNL     1      46.007   5.366  13.049  0.00  0.00    +0.000 A 
ATOM      7  C   UNL     1      45.949   6.264  11.976  0.00  0.00    +0.000 A 
ATOM      8  C   UNL     1      47.035   7.122  11.749  0.00  0.00    +0.000 A 
BRANCH   3   9
ATOM      9  C   UNL     1      49.288   8.080  12.376  0.00  0.00    +0.000 C 
BRANCH   9  10
ATOM     10  N   UNL     1      50.555   7.386  12.184  0.00  0.00    +0.000 NA
ATOM     11  H   UNL     1      50.433   6.643  11.500  0.00  0.00    +0.000 HD
ATOM     12  H   UNL     1      50.820   6.936  13.058  0.00  0.00    +0.000 HD
ENDBRANCH   9  10
ENDBRANCH   3   9
ENDBRANCH   2   7
ENDBRANCH   1   2
BRANCH   1  13
ATOM     13  O   UNL     1      43.635   4.761   9.663  0.00  0.00    +0.000 OA
BRANCH  13  14
ATOM     14  C   UNL     1      44.512   3.860   9.086  0.00  0.00    +0.000 A 
ATOM     15  C   UNL     1      44.496   2.537   9.517  0.00  0.00    +0.000 A 
ATOM     16  N   UNL     1      45.315   1.578   9.002  0.00  0.00    +0.000 NA
ATOM     17  C   UNL     1      46.160   2.019   8.026  0.00  0.00    +0.000 A 
ATOM     18  C   UNL     1      46.179   3.337   7.598  0.00  0.00    +0.000 A 
ATOM     19  N   UNL     1      45.355   4.279   8.119  0.00  0.00    +0.000 NA
BRANCH  17  20
ATOM     20  C   UNL     1      47.094   1.047   7.391  0.00  0.00    +0.000 C 
ATOM     21  N   UNL     1      46.843  -0.276   7.630  0.00  0.00    +0.000 N 
ATOM     22  O   UNL     1      48.033   1.405   6.692  0.00  0.00    +0.000 OA
ATOM     23  H   UNL     1      46.061  -0.555   8.210  0.00  0.00    +0.000 HD
ATOM     24  H   UNL     1      47.449  -0.971   7.216  0.00  0.00    +0.000 HD
ENDBRANCH  17  20
ENDBRANCH  13  14
ENDBRANCH   1  13
TORSDOF 7
ENDMDL
MODEL 6
REMARK VINA RESULT:    -6.386      3.729      6.201
REMARK INTER + INTRA:          -9.452
REMARK INTER:                  -9.087
REMARK INTRA:                  -0.364
REMARK UNBOUND:                -0.639
REMARK  Name = 
REMARK  7 active torsions:
REMARK  status: ('A' for Active; 'I' for Inactive)
REMARK    1  A    between atoms: N_1  and  C_2
REMARK    2  A    between atoms: C_2  and  C_3
REMARK    3  A    between atoms: C_7  and  C_8
REMARK    4  A    between atoms: C_8  and  C_9
REMARK    5  A    between atoms: C_9  and  O_10
REMARK    6  A    between atoms: O_10  and  C_11
REMARK    7  A    between atoms: C_14  and  C_15
REMARK                            x       y       z     vdW  Elec       q    Type
REMARK                         _______ _______ _______ _____ _____    ______ ____
ROOT
ATOM      1  C   UNL     1      47.395   4.385  15.641  0.00  0.00    +0.000 C 
ENDROOT
BRANCH   1   2
ATOM      2  C   UNL     1      47.594   3.666  16.977  0.00  0.00    +0.000 C 
BRANCH   2   7
ATOM      3  C   UNL     1      51.190   2.480  17.510  0.00  0.00    +0.000 A 
ATOM      4  C   UNL     1      51.815   3.678  17.878  0.00  0.00    +0.000 A 
ATOM      5  C   UNL     1      51.073   4.854  17.995  0.00  0.00    +0.000 A 
ATOM      6  C   UNL     1      49.701   4.848  17.735  0.00  0.00    +0.000 A 
ATOM      7  C   UNL     1      49.055   3.662  17.364  0.00  0.00    +0.000 A 
ATOM      8  C   UNL     1      49.808   2.483  17.256  0.00  0.00    +0.000 A 
BRANCH   3   9
ATOM      9  C   UNL     1      51.998   1.225  17.308  0.00  0.00    +0.000 C 
BRANCH   9  10
ATOM     10  N   UNL     1      51.543   0.170  18.205  0.00  0.00    +0.000 NA
ATOM     11  H   UNL     1      50.653   0.438  18.617  0.00  0.00    +0.000 HD
ATOM     12  H   UNL     1      52.205   0.083  18.975  0.00  0.00    +0.000 HD
ENDBRANCH   9  10
ENDBRANCH   3   9
ENDBRANCH   2   7
ENDBRANCH   1   2
BRANCH   1  13
ATOM     13  O   UNL     1      47.287   3.438  14.566  0.00  0.00    +0.000 OA
BRANCH  13  14
ATOM     14  C   UNL     1      46.366   3.850  13.621  0.00  0.00    +0.000 A 
ATOM     15  C   UNL     1      46.004   5.193  13.576  0.00  0.00    +0.000 A 
ATOM     16  N   UNL     1      45.112   5.692  12.674  0.00  0.00    +0.000 NA
ATOM     17  C   UNL     1      44.597   4.766  11.815  0.00  0.00    +0.000 A 
ATOM     18  C   UNL     1      44.955   3.428  11.860  0.00  0.00    +0.000 A 
ATOM     19  N   UNL     1      45.846   2.947  12.762  0.00  0.00    +0.000 NA
BRANCH  17  20
ATOM     20  C   UNL     1      43.618   5.210  10.784  0.00  0.00    +0.000 C 
ATOM     21  N   UNL     1      43.871   4.812   9.499  0.00  0.00    +0.000 N 
ATOM     22  O   UNL     1      42.639   5.890  11.062  0.00  0.00    +0.000 OA
ATOM     23  H   UNL     1      44.685   4.249   9.286  0.00  0.00    +0.000 HD
ATOM     24  H   UNL     1      43.231   5.087   8.767  0.00  0.00    +0.000 HD
ENDBRANCH  17  20
ENDBRANCH  13  14
ENDBRANCH   1  13
TORSDOF 7
ENDMDL
MODEL 7
REMARK VINA RESULT:    -6.359      2.655      7.007
REMARK INTER + INTRA:          -9.414
REMARK INTER:                  -9.083
REMARK INTRA:                  -0.331
REMARK UNBOUND:                -0.639
REMARK  Name = 
REMARK  7 active torsions:
REMARK  status: ('A' for Active; 'I' for Inactive)
REMARK    1  A    between atoms: N_1  and  C_2
REMARK    2  A    between atoms: C_2  and  C_3
REMARK    3  A    between atoms: C_7  and  C_8
REMARK    4  A    between atoms: C_8  and  C_9
REMARK    5  A    between atoms: C_9  and  O_10
REMARK    6  A    between atoms: O_10  and  C_11
REMARK    7  A    between atoms: C_14  and  C_15
REMARK                            x       y       z     vdW  Elec       q    Type
REMARK                         _______ _______ _______ _____ _____    ______ ____
ROOT
ATOM      1  C   UNL     1      46.833   6.313  11.586  0.00  0.00    +0.000 C 
ENDROOT
BRANCH   1   2
ATOM      2  C   UNL     1      45.412   6.371  11.020  0.00  0.00    +0.000 C 
BRANCH   2   7
ATOM      3  C   UNL     1      45.343   3.591   8.396  0.00  0.00    +0.000 A 
ATOM      4  C   UNL     1      44.617   2.602   9.073  0.00  0.00    +0.000 A 
ATOM      5  C   UNL     1      44.116   2.846  10.352  0.00  0.00    +0.000 A 
ATOM      6  C   UNL     1      44.344   4.076  10.973  0.00  0.00    +0.000 A 
ATOM      7  C   UNL     1      45.069   5.078  10.316  0.00  0.00    +0.000 A 
ATOM      8  C   UNL     1      45.562   4.826   9.027  0.00  0.00    +0.000 A 
BRANCH   3   9
ATOM      9  C   UNL     1      45.951   3.306   7.047  0.00  0.00    +0.000 C 
BRANCH   9  10
ATOM     10  N   UNL     1      47.154   4.104   6.847  0.00  0.00    +0.000 NA
ATOM     11  H   UNL     1      46.892   5.056   6.603  0.00  0.00    +0.000 HD
ATOM     12  H   UNL     1      47.668   3.731   6.049  0.00  0.00    +0.000 HD
ENDBRANCH   9  10
ENDBRANCH   3   9
ENDBRANCH   2   7
ENDBRANCH   1   2
BRANCH   1  13
ATOM     13  O   UNL     1      46.879   6.892  12.899  0.00  0.00    +0.000 OA
BRANCH  13  14
ATOM     14  C   UNL     1      47.154   5.938  13.862  0.00  0.00    +0.000 A 
ATOM     15  C   UNL     1      46.532   4.696  13.775  0.00  0.00    +0.000 A 
ATOM     16  N   UNL     1      46.747   3.693  14.671  0.00  0.00    +0.000 NA
ATOM     17  C   UNL     1      47.625   4.003  15.668  0.00  0.00    +0.000 A 
ATOM     18  C   UNL     1      48.243   5.240  15.758  0.00  0.00    +0.000 A 
ATOM     19  N   UNL     1      48.020   6.228  14.856  0.00  0.00    +0.000 NA
BRANCH  17  20
ATOM     20  C   UNL     1      47.936   2.972  16.697  0.00  0.00    +0.000 C 
ATOM     21  N   UNL     1      47.014   2.815  17.695  0.00  0.00    +0.000 N 
ATOM     22  O   UNL     1      48.957   2.297  16.658  0.00  0.00    +0.000 OA
ATOM     23  H   UNL     1      46.173   3.381  17.712  0.00  0.00    +0.000 HD
ATOM     24  H   UNL     1      47.181   2.124  18.413  0.00  0.00    +0.000 HD
ENDBRANCH  17  20
ENDBRANCH  13  14
ENDBRANCH   1  13
TORSDOF 7
ENDMDL
MODEL 8
REMARK VINA RESULT:    -6.263      3.011      6.869
REMARK INTER + INTRA:          -9.282
REMARK INTER:                  -9.119
REMARK INTRA:                  -0.162
REMARK UNBOUND:                -0.639
REMARK  Name = 
REMARK  7 active torsions:
REMARK  status: ('A' for Active; 'I' for Inactive)
REMARK    1  A    between atoms: N_1  and  C_2
REMARK    2  A    between atoms: C_2  and  C_3
REMARK    3  A    between atoms: C_7  and  C_8
REMARK    4  A    between atoms: C_8  and  C_9
REMARK    5  A    between atoms: C_9  and  O_10
REMARK    6  A    between atoms: O_10  and  C_11
REMARK    7  A    between atoms: C_14  and  C_15
REMARK                            x       y       z     vdW  Elec       q    Type
REMARK                         _______ _______ _______ _____ _____    ______ ____
ROOT
ATOM      1  C   UNL     1      43.888   3.802  10.512  0.00  0.00    +0.000 C 
ENDROOT
BRANCH   1   2
ATOM      2  C   UNL     1      44.438   4.328   9.185  0.00  0.00    +0.000 C 
BRANCH   2   7
ATOM      3  C   UNL     1      46.606   2.541   6.591  0.00  0.00    +0.000 A 
ATOM      4  C   UNL     1      46.697   1.262   7.154  0.00  0.00    +0.000 A 
ATOM      5  C   UNL     1      46.030   0.965   8.342  0.00  0.00    +0.000 A 
ATOM      6  C   UNL     1      45.272   1.945   8.986  0.00  0.00    +0.000 A 
ATOM      7  C   UNL     1      45.167   3.232   8.442  0.00  0.00    +0.000 A 
ATOM      8  C   UNL     1      45.836   3.519   7.243  0.00  0.00    +0.000 A 
BRANCH   3   9
ATOM      9  C   UNL     1      47.386   2.890   5.350  0.00  0.00    +0.000 C 
BRANCH   9  10
ATOM     10  N   UNL     1      48.499   1.967   5.165  0.00  0.00    +0.000 NA
ATOM     11  H   UNL     1      49.368   2.492   5.111  0.00  0.00    +0.000 HD
ATOM     12  H   UNL     1      48.390   1.494   4.269  0.00  0.00    +0.000 HD
ENDBRANCH   9  10
ENDBRANCH   3   9
ENDBRANCH   2   7
ENDBRANCH   1   2
BRANCH   1  13
ATOM     13  O   UNL     1      44.803   4.077  11.585  0.00  0.00    +0.000 OA
BRANCH  13  14
ATOM     14  C   UNL     1      45.023   5.435  11.726  0.00  0.00    +0.000 A 
ATOM     15  C   UNL     1      46.300   5.879  12.054  0.00  0.00    +0.000 A 
ATOM     16  N   UNL     1      46.613   7.197  12.206  0.00  0.00    +0.000 NA
ATOM     17  C   UNL     1      45.568   8.053  12.011  0.00  0.00    +0.000 A 
ATOM     18  C   UNL     1      44.295   7.611  11.687  0.00  0.00    +0.000 A 
ATOM     19  N   UNL     1      44.000   6.297  11.537  0.00  0.00    +0.000 NA
BRANCH  17  20
ATOM     20  C   UNL     1      45.805   9.517  12.145  0.00  0.00    +0.000 C 
ATOM     21  N   UNL     1      46.902   9.888  12.874  0.00  0.00    +0.000 N 
ATOM     22  O   UNL     1      45.066  10.348  11.634  0.00  0.00    +0.000 OA
ATOM     23  H   UNL     1      47.504   9.187  13.289  0.00  0.00    +0.000 HD
ATOM     24  H   UNL     1      47.104  10.871  12.988  0.00  0.00    +0.000 HD
ENDBRANCH  17  20
ENDBRANCH  13  14
ENDBRANCH   1  13
TORSDOF 7
ENDMDL
MODEL 9
REMARK VINA RESULT:    -6.232      3.425      6.899
REMARK INTER + INTRA:          -9.239
REMARK INTER:                  -8.671
REMARK INTRA:                  -0.568
REMARK UNBOUND:                -0.639
REMARK  Name = 
REMARK  7 active torsions:
REMARK  status: ('A' for Active; 'I' for Inactive)
REMARK    1  A    between atoms: N_1  and  C_2
REMARK    2  A    between atoms: C_2  and  C_3
REMARK    3  A    between atoms: C_7  and  C_8
REMARK    4  A    between atoms: C_8  and  C_9
REMARK    5  A    between atoms: C_9  and  O_10
REMARK    6  A    between atoms: O_10  and  C_11
REMARK    7  A    between atoms: C_14  and  C_15
REMARK                            x       y       z     vdW  Elec       q    Type
REMARK                         _______ _______ _______ _____ _____    ______ ____
ROOT
ATOM      1  C   UNL     1      46.301   6.706  12.072  0.00  0.00    +0.000 C 
ENDROOT
BRANCH   1   2
ATOM      2  C   UNL     1      46.137   6.700  10.551  0.00  0.00    +0.000 C 
BRANCH   2   7
ATOM      3  C   UNL     1      44.304   3.345  10.456  0.00  0.00    +0.000 A 
ATOM      4  C   UNL     1      44.564   2.935   9.142  0.00  0.00    +0.000 A 
ATOM      5  C   UNL     1      45.361   3.715   8.305  0.00  0.00    +0.000 A 
ATOM      6  C   UNL     1      45.898   4.919   8.767  0.00  0.00    +0.000 A 
ATOM      7  C   UNL     1      45.650   5.350  10.076  0.00  0.00    +0.000 A 
ATOM      8  C   UNL     1      44.853   4.554  10.913  0.00  0.00    +0.000 A 
BRANCH   3   9
ATOM      9  C   UNL     1      43.382   2.546  11.340  0.00  0.00    +0.000 C 
BRANCH   9  10
ATOM     10  N   UNL     1      43.805   2.627  12.732  0.00  0.00    +0.000 NA
ATOM     11  H   UNL     1      44.749   2.259  12.821  0.00  0.00    +0.000 HD
ATOM     12  H   UNL     1      43.205   2.026  13.295  0.00  0.00    +0.000 HD
ENDBRANCH   9  10
ENDBRANCH   3   9
ENDBRANCH   2   7
ENDBRANCH   1   2
BRANCH   1  13
ATOM     13  O   UNL     1      47.595   6.206  12.444  0.00  0.00    +0.000 OA
BRANCH  13  14
ATOM     14  C   UNL     1      47.564   5.600  13.687  0.00  0.00    +0.000 A 
ATOM     15  C   UNL     1      46.827   4.431  13.847  0.00  0.00    +0.000 A 
ATOM     16  N   UNL     1      46.745   3.760  15.030  0.00  0.00    +0.000 NA
ATOM     17  C   UNL     1      47.445   4.330  16.054  0.00  0.00    +0.000 A 
ATOM     18  C   UNL     1      48.177   5.496  15.896  0.00  0.00    +0.000 A 
ATOM     19  N   UNL     1      48.251   6.150  14.711  0.00  0.00    +0.000 NA
BRANCH  17  20
ATOM     20  C   UNL     1      47.428   3.671  17.389  0.00  0.00    +0.000 C 
ATOM     21  N   UNL     1      48.256   4.206  18.338  0.00  0.00    +0.000 N 
ATOM     22  O   UNL     1      46.715   2.706  17.633  0.00  0.00    +0.000 OA
ATOM     23  H   UNL     1      48.839   5.005  18.120  0.00  0.00    +0.000 HD
ATOM     24  H   UNL     1      48.274   3.793  19.260  0.00  0.00    +0.000 HD
ENDBRANCH  17  20
ENDBRANCH  13  14
ENDBRANCH   1  13
TORSDOF 7
ENDMDL
