MODEL 1
REMARK VINA RESULT:    -8.016      0.000      0.000
REMARK INTER + INTRA:         -12.506
REMARK INTER:                 -11.531
REMARK INTRA:                  -0.975
REMARK UNBOUND:                -0.975
REMARK  Name = 
REMARK  8 active torsions:
REMARK  status: ('A' for Active; 'I' for Inactive)
REMARK    1  A    between atoms: N_1  and  C_2
REMARK    2  A    between atoms: C_2  and  C_3
REMARK    3  A    between atoms: C_2  and  C_18
REMARK    4  A    between atoms: C_3  and  N_4
REMARK    5  A    between atoms: N_7  and  C_8
REMARK    6  A    between atoms: C_8  and  C_9
REMARK    7  A    between atoms: C_9  and  C_10
REMARK    8  A    between atoms: C_18  and  C_20
REMARK                            x       y       z     vdW  Elec       q    Type
REMARK                         _______ _______ _______ _____ _____    ______ ____
ROOT
ATOM      1  C   UNL     1      48.525   5.675  15.914  0.00  0.00    +0.000 C 
ENDROOT
BRANCH   1   2
ATOM      2  N   UNL     1      48.232   7.064  16.365  0.00  0.00    +0.000 NA
ATOM      3  H   UNL     1      47.901   7.016  17.330  0.00  0.00    +0.000 HD
ATOM      4  H   UNL     1      47.422   7.391  15.831  0.00  0.00    +0.000 HD
ENDBRANCH   1   2
BRANCH   1   5
ATOM      5  C   UNL     1      48.851   4.831  17.173  0.00  0.00    +0.000 C 
ATOM      6  O   UNL     1      47.921   4.340  17.826  0.00  0.00    +0.000 OA
BRANCH   5   7
ATOM      7  C   UNL     1      50.235   4.468  17.505  0.00  0.00    +0.000 A 
ATOM      8  C   UNL     1      51.116   5.434  17.969  0.00  0.00    +0.000 A 
ATOM      9  S   UNL     1      52.627   4.795  18.438  0.00  0.00    +0.000 S 
ATOM     10  C   UNL     1      52.159   3.219  17.991  0.00  0.00    +0.000 A 
ATOM     11  N   UNL     1      52.985   2.154  18.181  0.00  0.00    +0.000 NA
ATOM     12  C   UNL     1      52.492   1.026  17.807  0.00  0.00    +0.000 A 
ATOM     13  N   UNL     1      51.259   0.865  17.221  0.00  0.00    +0.000 N 
ATOM     14  C   UNL     1      50.474   1.932  16.862  0.00  0.00    +0.000 A 
ATOM     15  O   UNL     1      49.541   1.810  16.079  0.00  0.00    +0.000 OA
ATOM     16  C   UNL     1      50.899   3.198  17.427  0.00  0.00    +0.000 A 
ATOM     17  H   UNL     1      50.974  -0.034  16.861  0.00  0.00    +0.000 HD
ENDBRANCH   5   7
ENDBRANCH   1   5
BRANCH   1  18
ATOM     18  C   UNL     1      47.345   4.976  15.188  0.00  0.00    +0.000 C 
BRANCH  18  19
ATOM     19  N   UNL     1      47.472   4.718  13.730  0.00  0.00    +0.000 NA
ATOM     20  C   UNL     1      47.485   5.957  12.919  0.00  0.00    +0.000 C 
ATOM     21  C   UNL     1      46.151   6.747  12.965  0.00  0.00    +0.000 C 
ATOM     22  N   UNL     1      44.970   5.949  12.538  0.00  0.00    +0.000 NA
ATOM     23  C   UNL     1      44.966   4.669  13.278  0.00  0.00    +0.000 C 
ATOM     24  C   UNL     1      46.317   3.907  13.267  0.00  0.00    +0.000 C 
BRANCH  22  25
ATOM     25  C   UNL     1      45.003   5.776  11.079  0.00  0.00    +0.000 C 
BRANCH  25  26
ATOM     26  C   UNL     1      43.843   4.944  10.527  0.00  0.00    +0.000 C 
BRANCH  26  27
ATOM     27  C   UNL     1      44.289   4.008   9.393  0.00  0.00    +0.000 C 
ATOM     28  C   UNL     1      44.553   2.576   9.876  0.00  0.00    +0.000 C 
ATOM     29  C   UNL     1      45.156   1.729   8.764  0.00  0.00    +0.000 C 
ATOM     30  O   UNL     1      46.333   2.337   8.239  0.00  0.00    +0.000 OA
ATOM     31  C   UNL     1      46.067   3.614   7.662  0.00  0.00    +0.000 C 
ATOM     32  C   UNL     1      45.541   4.576   8.716  0.00  0.00    +0.000 C 
ENDBRANCH  26  27
ENDBRANCH  25  26
ENDBRANCH  22  25
ENDBRANCH  18  19
ENDBRANCH   1  18
TORSDOF 8
ENDMDL
MODEL 2
REMARK VINA RESULT:    -7.684      2.811      3.753
REMARK INTER + INTRA:         -12.028
REMARK INTER:                 -11.271
REMARK INTRA:                  -0.757
REMARK UNBOUND:                -0.975
REMARK  Name = 
REMARK  8 active torsions:
REMARK  status: ('A' for Active; 'I' for Inactive)
REMARK    1  A    between atoms: N_1  and  C_2
REMARK    2  A    between atoms: C_2  and  C_3
REMARK    3  A    between atoms: C_2  and  C_18
REMARK    4  A    between atoms: C_3  and  N_4
REMARK    5  A    between atoms: N_7  and  C_8
REMARK    6  A    between atoms: C_8  and  C_9
REMARK    7  A    between atoms: C_9  and  C_10
REMARK    8  A    between atoms: C_18  and  C_20
REMARK                            x       y       z     vdW  Elec       q    Type
REMARK                         _______ _______ _______ _____ _____    ______ ____
ROOT
ATOM      1  C   UNL     1      46.810   7.282  13.202  0.00  0.00    +0.000 C 
ENDROOT
BRANCH   1   2
ATOM      2  N   UNL     1      46.675   8.550  13.970  0.00  0.00    +0.000 NA
ATOM      3  H   UNL     1      45.723   8.895  13.839  0.00  0.00    +0.000 HD
ATOM      4  H   UNL     1      47.268   9.247  13.510  0.00  0.00    +0.000 HD
ENDBRANCH   1   2
BRANCH   1   5
ATOM      5  C   UNL     1      48.129   6.600  13.649  0.00  0.00    +0.000 C 
ATOM      6  O   UNL     1      49.010   6.382  12.807  0.00  0.00    +0.000 OA
BRANCH   5   7
ATOM      7  C   UNL     1      48.415   6.362  15.069  0.00  0.00    +0.000 A 
ATOM      8  C   UNL     1      49.119   7.304  15.806  0.00  0.00    +0.000 A 
ATOM      9  S   UNL     1      49.223   6.918  17.465  0.00  0.00    +0.000 S 
ATOM     10  C   UNL     1      48.370   5.462  17.234  0.00  0.00    +0.000 A 
ATOM     11  N   UNL     1      48.061   4.649  18.282  0.00  0.00    +0.000 NA
ATOM     12  C   UNL     1      47.404   3.591  17.957  0.00  0.00    +0.000 A 
ATOM     13  N   UNL     1      47.059   3.246  16.672  0.00  0.00    +0.000 N 
ATOM     14  C   UNL     1      47.499   3.953  15.581  0.00  0.00    +0.000 A 
ATOM     15  O   UNL     1      47.456   3.485  14.451  0.00  0.00    +0.000 OA
ATOM     16  C   UNL     1      48.077   5.243  15.904  0.00  0.00    +0.000 A 
ATOM     17  H   UNL     1      46.630   2.354  16.476  0.00  0.00    +0.000 HD
ENDBRANCH   5   7
ENDBRANCH   1   5
BRANCH   1  18
ATOM     18  C   UNL     1      45.664   6.262  13.443  0.00  0.00    +0.000 C 
BRANCH  18  19
ATOM     19  N   UNL     1      44.519   6.258  12.496  0.00  0.00    +0.000 NA
ATOM     20  C   UNL     1      43.860   4.937  12.386  0.00  0.00    +0.000 C 
ATOM     21  C   UNL     1      44.762   3.839  11.764  0.00  0.00    +0.000 C 
ATOM     22  N   UNL     1      45.284   4.189  10.416  0.00  0.00    +0.000 NA
ATOM     23  C   UNL     1      45.887   5.538  10.472  0.00  0.00    +0.000 C 
ATOM     24  C   UNL     1      44.998   6.621  11.138  0.00  0.00    +0.000 C 
BRANCH  22  25
ATOM     25  C   UNL     1      44.197   4.079   9.432  0.00  0.00    +0.000 C 
BRANCH  25  26
ATOM     26  C   UNL     1      44.682   3.911   7.990  0.00  0.00    +0.000 C 
BRANCH  26  27
ATOM     27  C   UNL     1      45.972   3.081   7.905  0.00  0.00    +0.000 C 
ATOM     28  C   UNL     1      46.760   3.340   6.615  0.00  0.00    +0.000 C 
ATOM     29  C   UNL     1      47.933   2.378   6.491  0.00  0.00    +0.000 C 
ATOM     30  O   UNL     1      47.496   1.024   6.583  0.00  0.00    +0.000 OA
ATOM     31  C   UNL     1      46.885   0.741   7.840  0.00  0.00    +0.000 C 
ATOM     32  C   UNL     1      45.638   1.590   8.029  0.00  0.00    +0.000 C 
ENDBRANCH  26  27
ENDBRANCH  25  26
ENDBRANCH  22  25
ENDBRANCH  18  19
ENDBRANCH   1  18
TORSDOF 8
ENDMDL
MODEL 3
REMARK VINA RESULT:    -7.357      1.602      2.574
REMARK INTER + INTRA:         -11.557
REMARK INTER:                 -10.767
REMARK INTRA:                  -0.790
REMARK UNBOUND:                -0.975
REMARK  Name = 
REMARK  8 active torsions:
REMARK  status: ('A' for Active; 'I' for Inactive)
REMARK    1  A    between atoms: N_1  and  C_2
REMARK    2  A    between atoms: C_2  and  C_3
REMARK    3  A    between atoms: C_2  and  C_18
REMARK    4  A    between atoms: C_3  and  N_4
REMARK    5  A    between atoms: N_7  and  C_8
REMARK    6  A    between atoms: C_8  and  C_9
REMARK    7  A    between atoms: C_9  and  C_10
REMARK    8  A    between atoms: C_18  and  C_20
REMARK                            x       y       z     vdW  Elec       q    Type
REMARK                         _______ _______ _______ _____ _____    ______ ____
ROOT
ATOM      1  C   UNL     1      46.756   3.898  14.743  0.00  0.00    +0.000 C 
ENDROOT
BRANCH   1   2
ATOM      2  N   UNL     1      47.918   3.252  14.073  0.00  0.00    +0.000 NA
ATOM      3  H   UNL     1      48.375   2.646  14.756  0.00  0.00    +0.000 HD
ATOM      4  H   UNL     1      48.603   3.987  13.880  0.00  0.00    +0.000 HD
ENDBRANCH   1   2
BRANCH   1   5
ATOM      5  C   UNL     1      47.140   4.135  16.227  0.00  0.00    +0.000 C 
ATOM      6  O   UNL     1      46.374   3.745  17.117  0.00  0.00    +0.000 OA
BRANCH   5   7
ATOM      7  C   UNL     1      48.463   4.658  16.592  0.00  0.00    +0.000 A 
ATOM      8  C   UNL     1      48.691   6.027  16.606  0.00  0.00    +0.000 A 
ATOM      9  S   UNL     1      50.237   6.444  17.196  0.00  0.00    +0.000 S 
ATOM     10  C   UNL     1      50.657   4.806  17.405  0.00  0.00    +0.000 A 
ATOM     11  N   UNL     1      51.857   4.446  17.937  0.00  0.00    +0.000 NA
ATOM     12  C   UNL     1      52.029   3.175  18.046  0.00  0.00    +0.000 A 
ATOM     13  N   UNL     1      51.127   2.224  17.635  0.00  0.00    +0.000 N 
ATOM     14  C   UNL     1      49.985   2.547  16.944  0.00  0.00    +0.000 A 
ATOM     15  O   UNL     1      49.352   1.706  16.320  0.00  0.00    +0.000 OA
ATOM     16  C   UNL     1      49.661   3.960  16.964  0.00  0.00    +0.000 A 
ATOM     17  H   UNL     1      51.365   1.243  17.659  0.00  0.00    +0.000 HD
ENDBRANCH   5   7
ENDBRANCH   1   5
BRANCH   1  18
ATOM     18  C   UNL     1      46.360   5.277  14.149  0.00  0.00    +0.000 C 
BRANCH  18  19
ATOM     19  N   UNL     1      45.046   5.394  13.464  0.00  0.00    +0.000 NA
ATOM     20  C   UNL     1      44.554   4.106  12.925  0.00  0.00    +0.000 C 
ATOM     21  C   UNL     1      45.432   3.530  11.784  0.00  0.00    +0.000 C 
ATOM     22  N   UNL     1      45.599   4.457  10.633  0.00  0.00    +0.000 NA
ATOM     23  C   UNL     1      46.022   5.779  11.143  0.00  0.00    +0.000 C 
ATOM     24  C   UNL     1      45.168   6.328  12.316  0.00  0.00    +0.000 C 
BRANCH  22  25
ATOM     25  C   UNL     1      44.349   4.505   9.863  0.00  0.00    +0.000 C 
BRANCH  25  26
ATOM     26  C   UNL     1      44.499   4.059   8.407  0.00  0.00    +0.000 C 
BRANCH  26  27
ATOM     27  C   UNL     1      45.761   3.210   8.189  0.00  0.00    +0.000 C 
ATOM     28  C   UNL     1      46.455   3.511   6.855  0.00  0.00    +0.000 C 
ATOM     29  C   UNL     1      47.594   2.533   6.600  0.00  0.00    +0.000 C 
ATOM     30  O   UNL     1      47.135   1.185   6.667  0.00  0.00    +0.000 OA
ATOM     31  C   UNL     1      46.613   0.857   7.953  0.00  0.00    +0.000 C 
ATOM     32  C   UNL     1      45.403   1.721   8.273  0.00  0.00    +0.000 C 
ENDBRANCH  26  27
ENDBRANCH  25  26
ENDBRANCH  22  25
ENDBRANCH  18  19
ENDBRANCH   1  18
TORSDOF 8
ENDMDL
MODEL 4
REMARK VINA RESULT:    -7.210      2.331      3.771
REMARK INTER + INTRA:         -11.347
REMARK INTER:                 -10.288
REMARK INTRA:                  -1.060
REMARK UNBOUND:                -0.975
REMARK  Name = 
REMARK  8 active torsions:
REMARK  status: ('A' for Active; 'I' for Inactive)
REMARK    1  A    between atoms: N_1  and  C_2
REMARK    2  A    between atoms: C_2  and  C_3
REMARK    3  A    between atoms: C_2  and  C_18
REMARK    4  A    between atoms: C_3  and  N_4
REMARK    5  A    between atoms: N_7  and  C_8
REMARK    6  A    between atoms: C_8  and  C_9
REMARK    7  A    between atoms: C_9  and  C_10
REMARK    8  A    between atoms: C_18  and  C_20
REMARK                            x       y       z     vdW  Elec       q    Type
REMARK                         _______ _______ _______ _____ _____    ______ ____
ROOT
ATOM      1  C   UNL     1      47.824   3.608  16.356  0.00  0.00    +0.000 C 
ENDROOT
BRANCH   1   2
ATOM      2  N   UNL     1      48.507   2.432  15.750  0.00  0.00    +0.000 NA
ATOM      3  H   UNL     1      49.130   2.035  16.454  0.00  0.00    +0.000 HD
ATOM      4  H   UNL     1      49.134   2.788  15.022  0.00  0.00    +0.000 HD
ENDBRANCH   1   2
BRANCH   1   5
ATOM      5  C   UNL     1      48.903   4.460  17.075  0.00  0.00    +0.000 C 
ATOM      6  O   UNL     1      50.077   4.070  17.073  0.00  0.00    +0.000 OA
BRANCH   5   7
ATOM      7  C   UNL     1      48.586   5.791  17.607  0.00  0.00    +0.000 A 
ATOM      8  C   UNL     1      47.702   5.925  18.669  0.00  0.00    +0.000 A 
ATOM      9  S   UNL     1      47.576   7.529  19.239  0.00  0.00    +0.000 S 
ATOM     10  C   UNL     1      48.663   8.092  18.055  0.00  0.00    +0.000 A 
ATOM     11  N   UNL     1      49.045   9.398  18.008  0.00  0.00    +0.000 NA
ATOM     12  C   UNL     1      49.879   9.674  17.068  0.00  0.00    +0.000 A 
ATOM     13  N   UNL     1      50.341   8.771  16.140  0.00  0.00    +0.000 N 
ATOM     14  C   UNL     1      49.850   7.492  16.054  0.00  0.00    +0.000 A 
ATOM     15  O   UNL     1      50.026   6.801  15.060  0.00  0.00    +0.000 OA
ATOM     16  C   UNL     1      49.056   7.085  17.197  0.00  0.00    +0.000 A 
ATOM     17  H   UNL     1      50.918   9.075  15.369  0.00  0.00    +0.000 HD
ENDBRANCH   5   7
ENDBRANCH   1   5
BRANCH   1  18
ATOM     18  C   UNL     1      47.118   4.537  15.332  0.00  0.00    +0.000 C 
BRANCH  18  19
ATOM     19  N   UNL     1      47.435   4.361  13.891  0.00  0.00    +0.000 NA
ATOM     20  C   UNL     1      47.492   5.640  13.147  0.00  0.00    +0.000 C 
ATOM     21  C   UNL     1      46.129   6.374  13.063  0.00  0.00    +0.000 C 
ATOM     22  N   UNL     1      45.047   5.556  12.455  0.00  0.00    +0.000 NA
ATOM     23  C   UNL     1      45.008   4.239  13.127  0.00  0.00    +0.000 C 
ATOM     24  C   UNL     1      46.383   3.531  13.250  0.00  0.00    +0.000 C 
BRANCH  22  25
ATOM     25  C   UNL     1      45.267   5.460  11.005  0.00  0.00    +0.000 C 
BRANCH  25  26
ATOM     26  C   UNL     1      44.057   4.935  10.227  0.00  0.00    +0.000 C 
BRANCH  26  27
ATOM     27  C   UNL     1      44.458   3.907   9.158  0.00  0.00    +0.000 C 
ATOM     28  C   UNL     1      44.797   2.534   9.753  0.00  0.00    +0.000 C 
ATOM     29  C   UNL     1      45.353   1.601   8.686  0.00  0.00    +0.000 C 
ATOM     30  O   UNL     1      46.475   2.186   8.028  0.00  0.00    +0.000 OA
ATOM     31  C   UNL     1      46.132   3.396   7.354  0.00  0.00    +0.000 C 
ATOM     32  C   UNL     1      45.646   4.440   8.348  0.00  0.00    +0.000 C 
ENDBRANCH  26  27
ENDBRANCH  25  26
ENDBRANCH  22  25
ENDBRANCH  18  19
ENDBRANCH   1  18
TORSDOF 8
ENDMDL
MODEL 5
REMARK VINA RESULT:    -7.117      2.732      3.318
REMARK INTER + INTRA:         -11.213
REMARK INTER:                 -10.606
REMARK INTRA:                  -0.607
REMARK UNBOUND:                -0.975
REMARK  Name = 
REMARK  8 active torsions:
REMARK  status: ('A' for Active; 'I' for Inactive)
REMARK    1  A    between atoms: N_1  and  C_2
REMARK    2  A    between atoms: C_2  and  C_3
REMARK    3  A    between atoms: C_2  and  C_18
REMARK    4  A    between atoms: C_3  and  N_4
REMARK    5  A    between atoms: N_7  and  C_8
REMARK    6  A    between atoms: C_8  and  C_9
REMARK    7  A    between atoms: C_9  and  C_10
REMARK    8  A    between atoms: C_18  and  C_20
REMARK                            x       y       z     vdW  Elec       q    Type
REMARK                         _______ _______ _______ _____ _____    ______ ____
ROOT
ATOM      1  C   UNL     1      47.393   7.911  13.551  0.00  0.00    +0.000 C 
ENDROOT
BRANCH   1   2
ATOM      2  N   UNL     1      47.056   8.893  14.619  0.00  0.00    +0.000 NA
ATOM      3  H   UNL     1      46.042   9.011  14.626  0.00  0.00    +0.000 HD
ATOM      4  H   UNL     1      47.419   9.802  14.319  0.00  0.00    +0.000 HD
ENDBRANCH   1   2
BRANCH   1   5
ATOM      5  C   UNL     1      48.654   7.134  14.009  0.00  0.00    +0.000 C 
ATOM      6  O   UNL     1      49.413   6.661  13.154  0.00  0.00    +0.000 OA
BRANCH   5   7
ATOM      7  C   UNL     1      49.048   7.094  15.423  0.00  0.00    +0.000 A 
ATOM      8  C   UNL     1      49.897   8.064  15.938  0.00  0.00    +0.000 A 
ATOM      9  S   UNL     1      50.119   7.935  17.625  0.00  0.00    +0.000 S 
ATOM     10  C   UNL     1      49.125   6.555  17.704  0.00  0.00    +0.000 A 
ATOM     11  N   UNL     1      48.844   5.952  18.891  0.00  0.00    +0.000 NA
ATOM     12  C   UNL     1      48.070   4.928  18.797  0.00  0.00    +0.000 A 
ATOM     13  N   UNL     1      47.579   4.422  17.617  0.00  0.00    +0.000 N 
ATOM     14  C   UNL     1      47.977   4.901  16.394  0.00  0.00    +0.000 A 
ATOM     15  O   UNL     1      47.789   4.267  15.363  0.00  0.00    +0.000 OA
ATOM     16  C   UNL     1      48.692   6.161  16.454  0.00  0.00    +0.000 A 
ATOM     17  H   UNL     1      47.058   3.558  17.605  0.00  0.00    +0.000 HD
ENDBRANCH   5   7
ENDBRANCH   1   5
BRANCH   1  18
ATOM     18  C   UNL     1      46.284   6.859  13.276  0.00  0.00    +0.000 C 
BRANCH  18  19
ATOM     19  N   UNL     1      46.626   5.685  12.431  0.00  0.00    +0.000 NA
ATOM     20  C   UNL     1      46.379   5.915  10.989  0.00  0.00    +0.000 C 
ATOM     21  C   UNL     1      44.882   6.110  10.635  0.00  0.00    +0.000 C 
ATOM     22  N   UNL     1      44.017   4.977  11.057  0.00  0.00    +0.000 NA
ATOM     23  C   UNL     1      44.290   4.672  12.479  0.00  0.00    +0.000 C 
ATOM     24  C   UNL     1      45.792   4.525  12.835  0.00  0.00    +0.000 C 
BRANCH  22  25
ATOM     25  C   UNL     1      44.245   3.832  10.164  0.00  0.00    +0.000 C 
BRANCH  25  26
ATOM     26  C   UNL     1      44.417   4.218   8.693  0.00  0.00    +0.000 C 
BRANCH  26  27
ATOM     27  C   UNL     1      45.142   3.128   7.889  0.00  0.00    +0.000 C 
ATOM     28  C   UNL     1      45.554   1.929   8.753  0.00  0.00    +0.000 C 
ATOM     29  C   UNL     1      46.417   0.957   7.959  0.00  0.00    +0.000 C 
ATOM     30  O   UNL     1      47.547   1.619   7.395  0.00  0.00    +0.000 OA
ATOM     31  C   UNL     1      47.168   2.647   6.482  0.00  0.00    +0.000 C 
ATOM     32  C   UNL     1      46.371   3.728   7.196  0.00  0.00    +0.000 C 
ENDBRANCH  26  27
ENDBRANCH  25  26
ENDBRANCH  22  25
ENDBRANCH  18  19
ENDBRANCH   1  18
TORSDOF 8
ENDMDL
MODEL 6
REMARK VINA RESULT:    -7.030      3.741      4.874
REMARK INTER + INTRA:         -11.087
REMARK INTER:                 -10.717
REMARK INTRA:                  -0.370
REMARK UNBOUND:                -0.975
REMARK  Name = 
REMARK  8 active torsions:
REMARK  status: ('A' for Active; 'I' for Inactive)
REMARK    1  A    between atoms: N_1  and  C_2
REMARK    2  A    between atoms: C_2  and  C_3
REMARK    3  A    between atoms: C_2  and  C_18
REMARK    4  A    between atoms: C_3  and  N_4
REMARK    5  A    between atoms: N_7  and  C_8
REMARK    6  A    between atoms: C_8  and  C_9
REMARK    7  A    between atoms: C_9  and  C_10
REMARK    8  A    between atoms: C_18  and  C_20
REMARK                            x       y       z     vdW  Elec       q    Type
REMARK                         _______ _______ _______ _____ _____    ______ ____
ROOT
ATOM      1  C   UNL     1      46.124   6.640  12.919  0.00  0.00    +0.000 C 
ENDROOT
BRANCH   1   2
ATOM      2  N   UNL     1      46.192   8.076  13.306  0.00  0.00    +0.000 NA
ATOM      3  H   UNL     1      45.262   8.478  13.180  0.00  0.00    +0.000 HD
ATOM      4  H   UNL     1      46.774   8.550  12.609  0.00  0.00    +0.000 HD
ENDBRANCH   1   2
BRANCH   1   5
ATOM      5  C   UNL     1      47.317   5.915  13.594  0.00  0.00    +0.000 C 
ATOM      6  O   UNL     1      47.383   4.681  13.534  0.00  0.00    +0.000 OA
BRANCH   5   7
ATOM      7  C   UNL     1      48.444   6.671  14.154  0.00  0.00    +0.000 A 
ATOM      8  C   UNL     1      48.628   6.733  15.528  0.00  0.00    +0.000 A 
ATOM      9  S   UNL     1      50.068   7.531  15.978  0.00  0.00    +0.000 S 
ATOM     10  C   UNL     1      50.460   7.852  14.352  0.00  0.00    +0.000 A 
ATOM     11  N   UNL     1      51.621   8.478  14.014  0.00  0.00    +0.000 NA
ATOM     12  C   UNL     1      51.787   8.642  12.748  0.00  0.00    +0.000 A 
ATOM     13  N   UNL     1      50.879   8.274  11.785  0.00  0.00    +0.000 N 
ATOM     14  C   UNL     1      49.631   7.796  12.098  0.00  0.00    +0.000 A 
ATOM     15  O   UNL     1      48.729   7.761  11.271  0.00  0.00    +0.000 OA
ATOM     16  C   UNL     1      49.472   7.422  13.490  0.00  0.00    +0.000 A 
ATOM     17  H   UNL     1      51.027   8.520  10.817  0.00  0.00    +0.000 HD
ENDBRANCH   5   7
ENDBRANCH   1   5
BRANCH   1  18
ATOM     18  C   UNL     1      44.830   5.914  13.377  0.00  0.00    +0.000 C 
BRANCH  18  19
ATOM     19  N   UNL     1      43.811   5.581  12.348  0.00  0.00    +0.000 NA
ATOM     20  C   UNL     1      43.514   4.133  12.272  0.00  0.00    +0.000 C 
ATOM     21  C   UNL     1      44.712   3.274  11.791  0.00  0.00    +0.000 C 
ATOM     22  N   UNL     1      45.250   3.687  10.467  0.00  0.00    +0.000 NA
ATOM     23  C   UNL     1      45.491   5.146  10.484  0.00  0.00    +0.000 C 
ATOM     24  C   UNL     1      44.305   5.995  11.010  0.00  0.00    +0.000 C 
BRANCH  22  25
ATOM     25  C   UNL     1      44.318   3.265   9.412  0.00  0.00    +0.000 C 
BRANCH  25  26
ATOM     26  C   UNL     1      44.713   3.737   8.011  0.00  0.00    +0.000 C 
BRANCH  26  27
ATOM     27  C   UNL     1      45.558   2.693   7.265  0.00  0.00    +0.000 C 
ATOM     28  C   UNL     1      46.154   1.634   8.201  0.00  0.00    +0.000 C 
ATOM     29  C   UNL     1      47.119   0.726   7.451  0.00  0.00    +0.000 C 
ATOM     30  O   UNL     1      48.132   1.486   6.796  0.00  0.00    +0.000 OA
ATOM     31  C   UNL     1      47.591   2.377   5.822  0.00  0.00    +0.000 C 
ATOM     32  C   UNL     1      46.674   3.395   6.482  0.00  0.00    +0.000 C 
ENDBRANCH  26  27
ENDBRANCH  25  26
ENDBRANCH  22  25
ENDBRANCH  18  19
ENDBRANCH   1  18
TORSDOF 8
ENDMDL
MODEL 7
REMARK VINA RESULT:    -6.996      5.139      5.975
REMARK INTER + INTRA:         -11.038
REMARK INTER:                 -10.121
REMARK INTRA:                  -0.917
REMARK UNBOUND:                -0.975
REMARK  Name = 
REMARK  8 active torsions:
REMARK  status: ('A' for Active; 'I' for Inactive)
REMARK    1  A    between atoms: N_1  and  C_2
REMARK    2  A    between atoms: C_2  and  C_3
REMARK    3  A    between atoms: C_2  and  C_18
REMARK    4  A    between atoms: C_3  and  N_4
REMARK    5  A    between atoms: N_7  and  C_8
REMARK    6  A    between atoms: C_8  and  C_9
REMARK    7  A    between atoms: C_9  and  C_10
REMARK    8  A    between atoms: C_18  and  C_20
REMARK                            x       y       z     vdW  Elec       q    Type
REMARK                         _______ _______ _______ _____ _____    ______ ____
ROOT
ATOM      1  C   UNL     1      45.569   8.545  12.423  0.00  0.00    +0.000 C 
ENDROOT
BRANCH   1   2
ATOM      2  N   UNL     1      44.607   9.605  12.834  0.00  0.00    +0.000 NA
ATOM      3  H   UNL     1      44.727   9.766  13.835  0.00  0.00    +0.000 HD
ATOM      4  H   UNL     1      43.666   9.211  12.746  0.00  0.00    +0.000 HD
ENDBRANCH   1   2
BRANCH   1   5
ATOM      5  C   UNL     1      46.937   8.875  13.073  0.00  0.00    +0.000 C 
ATOM      6  O   UNL     1      47.156   8.512  14.235  0.00  0.00    +0.000 OA
BRANCH   5   7
ATOM      7  C   UNL     1      48.029   9.459  12.283  0.00  0.00    +0.000 A 
ATOM      8  C   UNL     1      47.857  10.685  11.655  0.00  0.00    +0.000 A 
ATOM      9  S   UNL     1      49.280  11.264  10.912  0.00  0.00    +0.000 S 
ATOM     10  C   UNL     1      50.149   9.874  11.371  0.00  0.00    +0.000 A 
ATOM     11  N   UNL     1      51.474   9.742  11.088  0.00  0.00    +0.000 NA
ATOM     12  C   UNL     1      52.000   8.645  11.507  0.00  0.00    +0.000 A 
ATOM     13  N   UNL     1      51.314   7.642  12.149  0.00  0.00    +0.000 N 
ATOM     14  C   UNL     1      49.950   7.667  12.299  0.00  0.00    +0.000 A 
ATOM     15  O   UNL     1      49.316   6.660  12.584  0.00  0.00    +0.000 OA
ATOM     16  C   UNL     1      49.347   8.955  12.015  0.00  0.00    +0.000 A 
ATOM     17  H   UNL     1      51.766   6.765  12.364  0.00  0.00    +0.000 HD
ENDBRANCH   5   7
ENDBRANCH   1   5
BRANCH   1  18
ATOM     18  C   UNL     1      45.178   7.114  12.883  0.00  0.00    +0.000 C 
BRANCH  18  19
ATOM     19  N   UNL     1      44.136   6.390  12.111  0.00  0.00    +0.000 NA
ATOM     20  C   UNL     1      44.037   4.957  12.469  0.00  0.00    +0.000 C 
ATOM     21  C   UNL     1      45.300   4.134  12.106  0.00  0.00    +0.000 C 
ATOM     22  N   UNL     1      45.666   4.206  10.666  0.00  0.00    +0.000 NA
ATOM     23  C   UNL     1      45.703   5.627  10.254  0.00  0.00    +0.000 C 
ATOM     24  C   UNL     1      44.457   6.455  10.662  0.00  0.00    +0.000 C 
BRANCH  22  25
ATOM     25  C   UNL     1      44.719   3.400   9.883  0.00  0.00    +0.000 C 
BRANCH  25  26
ATOM     26  C   UNL     1      44.700   3.741   8.391  0.00  0.00    +0.000 C 
BRANCH  26  27
ATOM     27  C   UNL     1      45.530   2.750   7.560  0.00  0.00    +0.000 C 
ATOM     28  C   UNL     1      45.980   1.528   8.370  0.00  0.00    +0.000 C 
ATOM     29  C   UNL     1      46.940   0.663   7.564  0.00  0.00    +0.000 C 
ATOM     30  O   UNL     1      48.049   1.429   7.097  0.00  0.00    +0.000 OA
ATOM     31  C   UNL     1      47.645   2.486   6.229  0.00  0.00    +0.000 C 
ATOM     32  C   UNL     1      46.748   3.468   6.966  0.00  0.00    +0.000 C 
ENDBRANCH  26  27
ENDBRANCH  25  26
ENDBRANCH  22  25
ENDBRANCH  18  19
ENDBRANCH   1  18
TORSDOF 8
ENDMDL
MODEL 8
REMARK VINA RESULT:    -6.852      2.248      3.747
REMARK INTER + INTRA:         -10.831
REMARK INTER:                  -9.913
REMARK INTRA:                  -0.918
REMARK UNBOUND:                -0.975
REMARK  Name = 
REMARK  8 active torsions:
REMARK  status: ('A' for Active; 'I' for Inactive)
REMARK    1  A    between atoms: N_1  and  C_2
REMARK    2  A    between atoms: C_2  and  C_3
REMARK    3  A    between atoms: C_2  and  C_18
REMARK    4  A    between atoms: C_3  and  N_4
REMARK    5  A    between atoms: N_7  and  C_8
REMARK    6  A    between atoms: C_8  and  C_9
REMARK    7  A    between atoms: C_9  and  C_10
REMARK    8  A    between atoms: C_18  and  C_20
REMARK                            x       y       z     vdW  Elec       q    Type
REMARK                         _______ _______ _______ _____ _____    ______ ____
ROOT
ATOM      1  C   UNL     1      47.987   3.609  16.437  0.00  0.00    +0.000 C 
ENDROOT
BRANCH   1   2
ATOM      2  N   UNL     1      48.517   2.329  15.891  0.00  0.00    +0.000 NA
ATOM      3  H   UNL     1      49.529   2.424  15.798  0.00  0.00    +0.000 HD
ATOM      4  H   UNL     1      48.175   2.246  14.929  0.00  0.00    +0.000 HD
ENDBRANCH   1   2
BRANCH   1   5
ATOM      5  C   UNL     1      49.199   4.464  16.890  0.00  0.00    +0.000 C 
ATOM      6  O   UNL     1      50.326   3.955  16.897  0.00  0.00    +0.000 OA
BRANCH   5   7
ATOM      7  C   UNL     1      49.057   5.903  17.147  0.00  0.00    +0.000 A 
ATOM      8  C   UNL     1      49.448   6.825  16.187  0.00  0.00    +0.000 A 
ATOM      9  S   UNL     1      49.069   8.435  16.608  0.00  0.00    +0.000 S 
ATOM     10  C   UNL     1      48.414   7.946  18.102  0.00  0.00    +0.000 A 
ATOM     11  N   UNL     1      47.853   8.845  18.957  0.00  0.00    +0.000 NA
ATOM     12  C   UNL     1      47.389   8.328  20.041  0.00  0.00    +0.000 A 
ATOM     13  N   UNL     1      47.470   6.997  20.372  0.00  0.00    +0.000 N 
ATOM     14  C   UNL     1      48.175   6.095  19.615  0.00  0.00    +0.000 A 
ATOM     15  O   UNL     1      48.503   5.002  20.056  0.00  0.00    +0.000 OA
ATOM     16  C   UNL     1      48.550   6.588  18.304  0.00  0.00    +0.000 A 
ATOM     17  H   UNL     1      47.174   6.673  21.281  0.00  0.00    +0.000 HD
ENDBRANCH   5   7
ENDBRANCH   1   5
BRANCH   1  18
ATOM     18  C   UNL     1      47.186   4.458  15.413  0.00  0.00    +0.000 C 
BRANCH  18  19
ATOM     19  N   UNL     1      47.497   4.294  13.970  0.00  0.00    +0.000 NA
ATOM     20  C   UNL     1      47.594   5.582  13.245  0.00  0.00    +0.000 C 
ATOM     21  C   UNL     1      46.255   6.360  13.173  0.00  0.00    +0.000 C 
ATOM     22  N   UNL     1      45.147   5.585  12.553  0.00  0.00    +0.000 NA
ATOM     23  C   UNL     1      45.068   4.260  13.206  0.00  0.00    +0.000 C 
ATOM     24  C   UNL     1      46.420   3.508  13.317  0.00  0.00    +0.000 C 
BRANCH  22  25
ATOM     25  C   UNL     1      45.364   5.504  11.102  0.00  0.00    +0.000 C 
BRANCH  25  26
ATOM     26  C   UNL     1      44.113   5.116  10.309  0.00  0.00    +0.000 C 
BRANCH  26  27
ATOM     27  C   UNL     1      44.405   4.032   9.260  0.00  0.00    +0.000 C 
ATOM     28  C   UNL     1      44.591   2.642   9.881  0.00  0.00    +0.000 C 
ATOM     29  C   UNL     1      45.048   1.635   8.834  0.00  0.00    +0.000 C 
ATOM     30  O   UNL     1      46.229   2.084   8.174  0.00  0.00    +0.000 OA
ATOM     31  C   UNL     1      46.022   3.311   7.477  0.00  0.00    +0.000 C 
ATOM     32  C   UNL     1      45.647   4.419   8.449  0.00  0.00    +0.000 C 
ENDBRANCH  26  27
ENDBRANCH  25  26
ENDBRANCH  22  25
ENDBRANCH  18  19
ENDBRANCH   1  18
TORSDOF 8
ENDMDL
MODEL 9
REMARK VINA RESULT:    -6.588      1.836      2.233
REMARK INTER + INTRA:         -10.452
REMARK INTER:                  -9.522
REMARK INTRA:                  -0.930
REMARK UNBOUND:                -0.975
REMARK  Name = 
REMARK  8 active torsions:
REMARK  status: ('A' for Active; 'I' for Inactive)
REMARK    1  A    between atoms: N_1  and  C_2
REMARK    2  A    between atoms: C_2  and  C_3
REMARK    3  A    between atoms: C_2  and  C_18
REMARK    4  A    between atoms: C_3  and  N_4
REMARK    5  A    between atoms: N_7  and  C_8
REMARK    6  A    between atoms: C_8  and  C_9
REMARK    7  A    between atoms: C_9  and  C_10
REMARK    8  A    between atoms: C_18  and  C_20
REMARK                            x       y       z     vdW  Elec       q    Type
REMARK                         _______ _______ _______ _____ _____    ______ ____
ROOT
ATOM      1  C   UNL     1      49.505   7.163  15.615  0.00  0.00    +0.000 C 
ENDROOT
BRANCH   1   2
ATOM      2  N   UNL     1      50.110   8.501  15.859  0.00  0.00    +0.000 NA
ATOM      3  H   UNL     1      50.302   8.928  14.952  0.00  0.00    +0.000 HD
ATOM      4  H   UNL     1      51.034   8.345  16.272  0.00  0.00    +0.000 HD
ENDBRANCH   1   2
BRANCH   1   5
ATOM      5  C   UNL     1      49.005   6.617  16.978  0.00  0.00    +0.000 C 
ATOM      6  O   UNL     1      48.619   7.415  17.841  0.00  0.00    +0.000 OA
BRANCH   5   7
ATOM      7  C   UNL     1      48.827   5.176  17.197  0.00  0.00    +0.000 A 
ATOM      8  C   UNL     1      47.551   4.636  17.277  0.00  0.00    +0.000 A 
ATOM      9  S   UNL     1      47.548   2.933  17.386  0.00  0.00    +0.000 S 
ATOM     10  C   UNL     1      49.250   2.877  17.374  0.00  0.00    +0.000 A 
ATOM     11  N   UNL     1      49.920   1.691  17.393  0.00  0.00    +0.000 NA
ATOM     12  C   UNL     1      51.201   1.805  17.369  0.00  0.00    +0.000 A 
ATOM     13  N   UNL     1      51.883   2.998  17.367  0.00  0.00    +0.000 N 
ATOM     14  C   UNL     1      51.247   4.205  17.517  0.00  0.00    +0.000 A 
ATOM     15  O   UNL     1      51.858   5.221  17.822  0.00  0.00    +0.000 OA
ATOM     16  C   UNL     1      49.807   4.139  17.361  0.00  0.00    +0.000 A 
ATOM     17  H   UNL     1      52.889   3.017  17.446  0.00  0.00    +0.000 HD
ENDBRANCH   5   7
ENDBRANCH   1   5
BRANCH   1  18
ATOM     18  C   UNL     1      48.286   7.177  14.654  0.00  0.00    +0.000 C 
BRANCH  18  19
ATOM     19  N   UNL     1      48.380   6.401  13.390  0.00  0.00    +0.000 NA
ATOM     20  C   UNL     1      48.031   7.197  12.191  0.00  0.00    +0.000 C 
ATOM     21  C   UNL     1      46.548   7.649  12.152  0.00  0.00    +0.000 C 
ATOM     22  N   UNL     1      45.579   6.525  12.234  0.00  0.00    +0.000 NA
ATOM     23  C   UNL     1      45.942   5.665  13.382  0.00  0.00    +0.000 C 
ATOM     24  C   UNL     1      47.436   5.255  13.441  0.00  0.00    +0.000 C 
BRANCH  22  25
ATOM     25  C   UNL     1      45.561   5.804  10.953  0.00  0.00    +0.000 C 
BRANCH  25  26
ATOM     26  C   UNL     1      44.258   5.047  10.686  0.00  0.00    +0.000 C 
BRANCH  26  27
ATOM     27  C   UNL     1      44.397   4.045   9.530  0.00  0.00    +0.000 C 
ATOM     28  C   UNL     1      44.662   2.614  10.015  0.00  0.00    +0.000 C 
ATOM     29  C   UNL     1      44.965   1.689   8.843  0.00  0.00    +0.000 C 
ATOM     30  O   UNL     1      46.044   2.193   8.059  0.00  0.00    +0.000 OA
ATOM     31  C   UNL     1      45.746   3.467   7.490  0.00  0.00    +0.000 C 
ATOM     32  C   UNL     1      45.515   4.498   8.584  0.00  0.00    +0.000 C 
ENDBRANCH  26  27
ENDBRANCH  25  26
ENDBRANCH  22  25
ENDBRANCH  18  19
ENDBRANCH   1  18
TORSDOF 8
ENDMDL
