MODEL 1
REMARK VINA RESULT:    -7.795      0.000      0.000
REMARK INTER + INTRA:         -10.745
REMARK INTER:                 -10.073
REMARK INTRA:                  -0.671
REMARK UNBOUND:                -0.671
REMARK  Name = 
REMARK  7 active torsions:
REMARK  status: ('A' for Active; 'I' for Inactive)
REMARK    1  A    between atoms: C_1  and  O_2
REMARK    2  A    between atoms: O_2  and  C_3
REMARK    3  A    between atoms: C_5  and  C_6
REMARK    4  A    between atoms: C_6  and  N_7
REMARK    5  A    between atoms: N_7  and  C_8
REMARK    6  A    between atoms: C_11  and  C_12
REMARK    7  A    between atoms: C_16  and  C_17
REMARK                            x       y       z     vdW  Elec       q    Type
REMARK                         _______ _______ _______ _____ _____    ______ ____
ROOT
ATOM      1  C   UNL     1      45.176   4.320   9.286  0.00  0.00    +0.000 A 
ATOM      2  N   UNL     1      46.018   4.863   8.377  0.00  0.00    +0.000 NA
ATOM      3  C   UNL     1      46.703   4.040   7.544  0.00  0.00    +0.000 A 
ATOM      4  C   UNL     1      46.606   2.662   7.562  0.00  0.00    +0.000 A 
ATOM      5  C   UNL     1      45.760   2.106   8.521  0.00  0.00    +0.000 A 
ATOM      6  C   UNL     1      45.026   2.930   9.394  0.00  0.00    +0.000 A 
ATOM      7  C   UNL     1      44.157   2.290  10.437  0.00  0.00    +0.000 C 
ENDROOT
BRANCH   4   8
ATOM      8  C   UNL     1      47.342   1.770   6.634  0.00  0.00    +0.000 C 
ATOM      9  N   UNL     1      48.270   2.307   5.785  0.00  0.00    +0.000 N 
ATOM     10  O   UNL     1      47.120   0.565   6.608  0.00  0.00    +0.000 OA
ATOM     11  H   UNL     1      48.511   3.282   5.703  0.00  0.00    +0.000 HD
ATOM     12  H   UNL     1      48.730   1.659   5.157  0.00  0.00    +0.000 HD
ENDBRANCH   4   8
BRANCH   1  13
ATOM     13  N   UNL     1      44.464   5.177  10.149  0.00  0.00    +0.000 N 
ATOM     14  H   UNL     1      43.566   5.398   9.729  0.00  0.00    +0.000 HD
BRANCH  13  15
ATOM     15  C   UNL     1      45.203   6.390  10.491  0.00  0.00    +0.000 C 
BRANCH  15  18
ATOM     16  C   UNL     1      46.757   4.978  13.659  0.00  0.00    +0.000 A 
ATOM     17  C   UNL     1      45.830   5.203  12.650  0.00  0.00    +0.000 A 
ATOM     18  C   UNL     1      46.129   6.150  11.663  0.00  0.00    +0.000 A 
ATOM     19  C   UNL     1      47.348   6.830  11.748  0.00  0.00    +0.000 A 
ATOM     20  C   UNL     1      48.208   6.533  12.793  0.00  0.00    +0.000 A 
ATOM     21  N   UNL     1      47.941   5.622  13.748  0.00  0.00    +0.000 NA
BRANCH  16  23
ATOM     22  C   UNL     1      47.186   4.166  15.808  0.00  0.00    +0.000 C 
ATOM     23  O   UNL     1      46.425   4.034  14.610  0.00  0.00    +0.000 OA
ENDBRANCH  16  23
ENDBRANCH  15  18
ENDBRANCH  13  15
ENDBRANCH   1  13
TORSDOF 5
ENDMDL
MODEL 2
REMARK VINA RESULT:    -7.790      1.070      1.841
REMARK INTER + INTRA:         -10.738
REMARK INTER:                  -9.997
REMARK INTRA:                  -0.741
REMARK UNBOUND:                -0.671
REMARK  Name = 
REMARK  7 active torsions:
REMARK  status: ('A' for Active; 'I' for Inactive)
REMARK    1  A    between atoms: C_1  and  O_2
REMARK    2  A    between atoms: O_2  and  C_3
REMARK    3  A    between atoms: C_5  and  C_6
REMARK    4  A    between atoms: C_6  and  N_7
REMARK    5  A    between atoms: N_7  and  C_8
REMARK    6  A    between atoms: C_11  and  C_12
REMARK    7  A    between atoms: C_16  and  C_17
REMARK                            x       y       z     vdW  Elec       q    Type
REMARK                         _______ _______ _______ _____ _____    ______ ____
ROOT
ATOM      1  C   UNL     1      45.130   4.322   9.232  0.00  0.00    +0.000 A 
ATOM      2  N   UNL     1      45.972   4.870   8.326  0.00  0.00    +0.000 NA
ATOM      3  C   UNL     1      46.702   4.051   7.528  0.00  0.00    +0.000 A 
ATOM      4  C   UNL     1      46.653   2.672   7.580  0.00  0.00    +0.000 A 
ATOM      5  C   UNL     1      45.807   2.111   8.536  0.00  0.00    +0.000 A 
ATOM      6  C   UNL     1      45.027   2.930   9.373  0.00  0.00    +0.000 A 
ATOM      7  C   UNL     1      44.159   2.287  10.415  0.00  0.00    +0.000 C 
ENDROOT
BRANCH   4   8
ATOM      8  C   UNL     1      47.438   1.783   6.690  0.00  0.00    +0.000 C 
ATOM      9  N   UNL     1      48.516   2.291   6.020  0.00  0.00    +0.000 N 
ATOM     10  O   UNL     1      47.126   0.608   6.537  0.00  0.00    +0.000 OA
ATOM     11  H   UNL     1      48.844   3.243   6.050  0.00  0.00    +0.000 HD
ATOM     12  H   UNL     1      49.006   1.649   5.409  0.00  0.00    +0.000 HD
ENDBRANCH   4   8
BRANCH   1  13
ATOM     13  N   UNL     1      44.371   5.175  10.058  0.00  0.00    +0.000 N 
ATOM     14  H   UNL     1      43.562   5.503   9.540  0.00  0.00    +0.000 HD
BRANCH  13  15
ATOM     15  C   UNL     1      45.146   6.290  10.597  0.00  0.00    +0.000 C 
BRANCH  15  18
ATOM     16  C   UNL     1      47.897   6.028  13.206  0.00  0.00    +0.000 A 
ATOM     17  C   UNL     1      47.223   6.419  12.057  0.00  0.00    +0.000 A 
ATOM     18  C   UNL     1      45.972   5.854  11.787  0.00  0.00    +0.000 A 
ATOM     19  C   UNL     1      45.464   4.913  12.689  0.00  0.00    +0.000 A 
ATOM     20  C   UNL     1      46.212   4.589  13.809  0.00  0.00    +0.000 A 
ATOM     21  N   UNL     1      47.415   5.127  14.089  0.00  0.00    +0.000 NA
BRANCH  16  23
ATOM     22  C   UNL     1      49.563   7.425  12.349  0.00  0.00    +0.000 C 
ATOM     23  O   UNL     1      49.127   6.612  13.436  0.00  0.00    +0.000 OA
ENDBRANCH  16  23
ENDBRANCH  15  18
ENDBRANCH  13  15
ENDBRANCH   1  13
TORSDOF 5
ENDMDL
MODEL 3
REMARK VINA RESULT:    -7.290      1.551      2.128
REMARK INTER + INTRA:         -10.093
REMARK INTER:                  -9.181
REMARK INTRA:                  -0.912
REMARK UNBOUND:                -0.671
REMARK  Name = 
REMARK  7 active torsions:
REMARK  status: ('A' for Active; 'I' for Inactive)
REMARK    1  A    between atoms: C_1  and  O_2
REMARK    2  A    between atoms: O_2  and  C_3
REMARK    3  A    between atoms: C_5  and  C_6
REMARK    4  A    between atoms: C_6  and  N_7
REMARK    5  A    between atoms: N_7  and  C_8
REMARK    6  A    between atoms: C_11  and  C_12
REMARK    7  A    between atoms: C_16  and  C_17
REMARK                            x       y       z     vdW  Elec       q    Type
REMARK                         _______ _______ _______ _____ _____    ______ ____
ROOT
ATOM      1  C   UNL     1      44.499   3.651   9.438  0.00  0.00    +0.000 A 
ATOM      2  N   UNL     1      44.122   2.352   9.406  0.00  0.00    +0.000 NA
ATOM      3  C   UNL     1      44.910   1.456   8.762  0.00  0.00    +0.000 A 
ATOM      4  C   UNL     1      46.088   1.780   8.118  0.00  0.00    +0.000 A 
ATOM      5  C   UNL     1      46.458   3.124   8.128  0.00  0.00    +0.000 A 
ATOM      6  C   UNL     1      45.670   4.080   8.795  0.00  0.00    +0.000 A 
ATOM      7  C   UNL     1      46.083   5.523   8.748  0.00  0.00    +0.000 C 
ENDROOT
BRANCH   4   8
ATOM      8  C   UNL     1      46.956   0.790   7.434  0.00  0.00    +0.000 C 
ATOM      9  N   UNL     1      46.755  -0.543   7.661  0.00  0.00    +0.000 N 
ATOM     10  O   UNL     1      47.854   1.151   6.684  0.00  0.00    +0.000 OA
ATOM     11  H   UNL     1      46.068  -0.949   8.275  0.00  0.00    +0.000 HD
ATOM     12  H   UNL     1      47.387  -1.177   7.186  0.00  0.00    +0.000 HD
ENDBRANCH   4   8
BRANCH   1  13
ATOM     13  N   UNL     1      43.680   4.580  10.110  0.00  0.00    +0.000 N 
ATOM     14  H   UNL     1      44.050   5.514   9.964  0.00  0.00    +0.000 HD
BRANCH  13  15
ATOM     15  C   UNL     1      43.526   4.285  11.533  0.00  0.00    +0.000 C 
BRANCH  15  18
ATOM     16  C   UNL     1      46.685   4.197  13.644  0.00  0.00    +0.000 A 
ATOM     17  C   UNL     1      45.527   3.765  13.013  0.00  0.00    +0.000 A 
ATOM     18  C   UNL     1      44.756   4.698  12.310  0.00  0.00    +0.000 A 
ATOM     19  C   UNL     1      45.190   6.028  12.287  0.00  0.00    +0.000 A 
ATOM     20  C   UNL     1      46.362   6.361  12.947  0.00  0.00    +0.000 A 
ATOM     21  N   UNL     1      47.119   5.476  13.622  0.00  0.00    +0.000 NA
BRANCH  16  23
ATOM     22  C   UNL     1      47.494   3.500  15.723  0.00  0.00    +0.000 C 
ATOM     23  O   UNL     1      47.417   3.243  14.323  0.00  0.00    +0.000 OA
ENDBRANCH  16  23
ENDBRANCH  15  18
ENDBRANCH  13  15
ENDBRANCH   1  13
TORSDOF 5
ENDMDL
MODEL 4
REMARK VINA RESULT:    -6.825      1.611      6.522
REMARK INTER + INTRA:          -9.491
REMARK INTER:                  -8.932
REMARK INTRA:                  -0.559
REMARK UNBOUND:                -0.671
REMARK  Name = 
REMARK  7 active torsions:
REMARK  status: ('A' for Active; 'I' for Inactive)
REMARK    1  A    between atoms: C_1  and  O_2
REMARK    2  A    between atoms: O_2  and  C_3
REMARK    3  A    between atoms: C_5  and  C_6
REMARK    4  A    between atoms: C_6  and  N_7
REMARK    5  A    between atoms: N_7  and  C_8
REMARK    6  A    between atoms: C_11  and  C_12
REMARK    7  A    between atoms: C_16  and  C_17
REMARK                            x       y       z     vdW  Elec       q    Type
REMARK                         _______ _______ _______ _____ _____    ______ ____
ROOT
ATOM      1  C   UNL     1      45.037   4.823  11.157  0.00  0.00    +0.000 A 
ATOM      2  N   UNL     1      46.004   5.760  11.283  0.00  0.00    +0.000 NA
ATOM      3  C   UNL     1      46.707   5.827  12.441  0.00  0.00    +0.000 A 
ATOM      4  C   UNL     1      46.496   4.998  13.526  0.00  0.00    +0.000 A 
ATOM      5  C   UNL     1      45.478   4.054  13.403  0.00  0.00    +0.000 A 
ATOM      6  C   UNL     1      44.736   3.949  12.212  0.00  0.00    +0.000 A 
ATOM      7  C   UNL     1      43.622   2.945  12.136  0.00  0.00    +0.000 C 
ENDROOT
BRANCH   4   8
ATOM      8  C   UNL     1      47.283   5.063  14.781  0.00  0.00    +0.000 C 
ATOM      9  N   UNL     1      46.860   4.356  15.872  0.00  0.00    +0.000 N 
ATOM     10  O   UNL     1      48.295   5.751  14.856  0.00  0.00    +0.000 OA
ATOM     11  H   UNL     1      46.034   3.784  15.930  0.00  0.00    +0.000 HD
ATOM     12  H   UNL     1      47.421   4.451  16.710  0.00  0.00    +0.000 HD
ENDBRANCH   4   8
BRANCH   1  13
ATOM     13  N   UNL     1      44.310   4.754   9.952  0.00  0.00    +0.000 N 
ATOM     14  H   UNL     1      43.738   3.915   9.958  0.00  0.00    +0.000 HD
BRANCH  13  15
ATOM     15  C   UNL     1      45.161   4.810   8.765  0.00  0.00    +0.000 C 
BRANCH  15  18
ATOM     16  C   UNL     1      47.180   1.958   7.271  0.00  0.00    +0.000 A 
ATOM     17  C   UNL     1      46.744   3.251   7.531  0.00  0.00    +0.000 A 
ATOM     18  C   UNL     1      45.643   3.431   8.375  0.00  0.00    +0.000 A 
ATOM     19  C   UNL     1      45.030   2.294   8.912  0.00  0.00    +0.000 A 
ATOM     20  C   UNL     1      45.541   1.045   8.594  0.00  0.00    +0.000 A 
ATOM     21  N   UNL     1      46.603   0.853   7.789  0.00  0.00    +0.000 NA
BRANCH  16  23
ATOM     22  C   UNL     1      48.013   2.286   5.112  0.00  0.00    +0.000 C 
ATOM     23  O   UNL     1      48.272   1.826   6.436  0.00  0.00    +0.000 OA
ENDBRANCH  16  23
ENDBRANCH  15  18
ENDBRANCH  13  15
ENDBRANCH   1  13
TORSDOF 5
ENDMDL
MODEL 5
REMARK VINA RESULT:    -6.824      2.220      2.956
REMARK INTER + INTRA:          -9.490
REMARK INTER:                  -9.152
REMARK INTRA:                  -0.338
REMARK UNBOUND:                -0.671
REMARK  Name = 
REMARK  7 active torsions:
REMARK  status: ('A' for Active; 'I' for Inactive)
REMARK    1  A    between atoms: C_1  and  O_2
REMARK    2  A    between atoms: O_2  and  C_3
REMARK    3  A    between atoms: C_5  and  C_6
REMARK    4  A    between atoms: C_6  and  N_7
REMARK    5  A    between atoms: N_7  and  C_8
REMARK    6  A    between atoms: C_11  and  C_12
REMARK    7  A    between atoms: C_16  and  C_17
REMARK                            x       y       z     vdW  Elec       q    Type
REMARK                         _______ _______ _______ _____ _____    ______ ____
ROOT
ATOM      1  C   UNL     1      45.118   4.361   9.132  0.00  0.00    +0.000 A 
ATOM      2  N   UNL     1      46.003   5.077   8.401  0.00  0.00    +0.000 NA
ATOM      3  C   UNL     1      46.826   4.423   7.543  0.00  0.00    +0.000 A 
ATOM      4  C   UNL     1      46.831   3.054   7.365  0.00  0.00    +0.000 A 
ATOM      5  C   UNL     1      45.938   2.318   8.142  0.00  0.00    +0.000 A 
ATOM      6  C   UNL     1      45.063   2.963   9.034  0.00  0.00    +0.000 A 
ATOM      7  C   UNL     1      44.145   2.131   9.881  0.00  0.00    +0.000 C 
ENDROOT
BRANCH   4   8
ATOM      8  C   UNL     1      47.719   2.349   6.409  0.00  0.00    +0.000 C 
ATOM      9  N   UNL     1      47.887   2.859   5.151  0.00  0.00    +0.000 N 
ATOM     10  O   UNL     1      48.290   1.312   6.725  0.00  0.00    +0.000 OA
ATOM     11  H   UNL     1      47.448   3.685   4.778  0.00  0.00    +0.000 HD
ATOM     12  H   UNL     1      48.487   2.330   4.531  0.00  0.00    +0.000 HD
ENDBRANCH   4   8
BRANCH   1  13
ATOM     13  N   UNL     1      44.263   5.043  10.021  0.00  0.00    +0.000 N 
ATOM     14  H   UNL     1      44.130   5.993   9.689  0.00  0.00    +0.000 HD
BRANCH  13  15
ATOM     15  C   UNL     1      44.737   5.022  11.403  0.00  0.00    +0.000 C 
BRANCH  15  18
ATOM     16  C   UNL     1      45.177   8.765  11.890  0.00  0.00    +0.000 A 
ATOM     17  C   UNL     1      44.664   7.563  11.422  0.00  0.00    +0.000 A 
ATOM     18  C   UNL     1      45.287   6.371  11.809  0.00  0.00    +0.000 A 
ATOM     19  C   UNL     1      46.406   6.452  12.645  0.00  0.00    +0.000 A 
ATOM     20  C   UNL     1      46.842   7.701  13.060  0.00  0.00    +0.000 A 
ATOM     21  N   UNL     1      46.251   8.857  12.704  0.00  0.00    +0.000 NA
BRANCH  16  23
ATOM     22  C   UNL     1      43.358   9.652  10.721  0.00  0.00    +0.000 C 
ATOM     23  O   UNL     1      44.530   9.917  11.488  0.00  0.00    +0.000 OA
ENDBRANCH  16  23
ENDBRANCH  15  18
ENDBRANCH  13  15
ENDBRANCH   1  13
TORSDOF 5
ENDMDL
MODEL 6
REMARK VINA RESULT:    -6.764      1.594      6.616
REMARK INTER + INTRA:          -9.412
REMARK INTER:                  -8.883
REMARK INTRA:                  -0.529
REMARK UNBOUND:                -0.671
REMARK  Name = 
REMARK  7 active torsions:
REMARK  status: ('A' for Active; 'I' for Inactive)
REMARK    1  A    between atoms: C_1  and  O_2
REMARK    2  A    between atoms: O_2  and  C_3
REMARK    3  A    between atoms: C_5  and  C_6
REMARK    4  A    between atoms: C_6  and  N_7
REMARK    5  A    between atoms: N_7  and  C_8
REMARK    6  A    between atoms: C_11  and  C_12
REMARK    7  A    between atoms: C_16  and  C_17
REMARK                            x       y       z     vdW  Elec       q    Type
REMARK                         _______ _______ _______ _____ _____    ______ ____
ROOT
ATOM      1  C   UNL     1      45.622   5.615  11.862  0.00  0.00    +0.000 A 
ATOM      2  N   UNL     1      45.024   4.629  12.568  0.00  0.00    +0.000 NA
ATOM      3  C   UNL     1      45.583   4.227  13.737  0.00  0.00    +0.000 A 
ATOM      4  C   UNL     1      46.745   4.756  14.264  0.00  0.00    +0.000 A 
ATOM      5  C   UNL     1      47.375   5.750  13.518  0.00  0.00    +0.000 A 
ATOM      6  C   UNL     1      46.817   6.200  12.306  0.00  0.00    +0.000 A 
ATOM      7  C   UNL     1      47.548   7.245  11.514  0.00  0.00    +0.000 C 
ENDROOT
BRANCH   4   8
ATOM      8  C   UNL     1      47.338   4.325  15.553  0.00  0.00    +0.000 C 
ATOM      9  N   UNL     1      47.530   5.250  16.542  0.00  0.00    +0.000 N 
ATOM     10  O   UNL     1      47.670   3.160  15.737  0.00  0.00    +0.000 OA
ATOM     11  H   UNL     1      47.320   6.234  16.490  0.00  0.00    +0.000 HD
ATOM     12  H   UNL     1      47.956   4.910  17.395  0.00  0.00    +0.000 HD
ENDBRANCH   4   8
BRANCH   1  13
ATOM     13  N   UNL     1      45.038   6.033  10.649  0.00  0.00    +0.000 N 
ATOM     14  H   UNL     1      44.641   6.958  10.775  0.00  0.00    +0.000 HD
BRANCH  13  15
ATOM     15  C   UNL     1      44.045   5.091  10.137  0.00  0.00    +0.000 C 
BRANCH  15  18
ATOM     16  C   UNL     1      46.313   3.172   7.768  0.00  0.00    +0.000 A 
ATOM     17  C   UNL     1      45.696   4.243   8.400  0.00  0.00    +0.000 A 
ATOM     18  C   UNL     1      44.704   3.979   9.352  0.00  0.00    +0.000 A 
ATOM     19  C   UNL     1      44.378   2.644   9.614  0.00  0.00    +0.000 A 
ATOM     20  C   UNL     1      45.053   1.645   8.932  0.00  0.00    +0.000 A 
ATOM     21  N   UNL     1      46.014   1.879   8.017  0.00  0.00    +0.000 NA
BRANCH  16  23
ATOM     22  C   UNL     1      48.030   2.332   6.423  0.00  0.00    +0.000 C 
ATOM     23  O   UNL     1      47.288   3.476   6.838  0.00  0.00    +0.000 OA
ENDBRANCH  16  23
ENDBRANCH  15  18
ENDBRANCH  13  15
ENDBRANCH   1  13
TORSDOF 5
ENDMDL
MODEL 7
REMARK VINA RESULT:    -6.673      1.909      2.770
REMARK INTER + INTRA:          -9.295
REMARK INTER:                  -8.498
REMARK INTRA:                  -0.797
REMARK UNBOUND:                -0.671
REMARK  Name = 
REMARK  7 active torsions:
REMARK  status: ('A' for Active; 'I' for Inactive)
REMARK    1  A    between atoms: C_1  and  O_2
REMARK    2  A    between atoms: O_2  and  C_3
REMARK    3  A    between atoms: C_5  and  C_6
REMARK    4  A    between atoms: C_6  and  N_7
REMARK    5  A    between atoms: N_7  and  C_8
REMARK    6  A    between atoms: C_11  and  C_12
REMARK    7  A    between atoms: C_16  and  C_17
REMARK                            x       y       z     vdW  Elec       q    Type
REMARK                         _______ _______ _______ _____ _____    ______ ____
ROOT
ATOM      1  C   UNL     1      44.466   3.593   9.494  0.00  0.00    +0.000 A 
ATOM      2  N   UNL     1      44.113   2.287   9.489  0.00  0.00    +0.000 NA
ATOM      3  C   UNL     1      44.900   1.397   8.834  0.00  0.00    +0.000 A 
ATOM      4  C   UNL     1      46.053   1.735   8.153  0.00  0.00    +0.000 A 
ATOM      5  C   UNL     1      46.396   3.086   8.135  0.00  0.00    +0.000 A 
ATOM      6  C   UNL     1      45.609   4.035   8.813  0.00  0.00    +0.000 A 
ATOM      7  C   UNL     1      45.992   5.485   8.735  0.00  0.00    +0.000 C 
ENDROOT
BRANCH   4   8
ATOM      8  C   UNL     1      46.920   0.753   7.457  0.00  0.00    +0.000 C 
ATOM      9  N   UNL     1      46.709  -0.583   7.655  0.00  0.00    +0.000 N 
ATOM     10  O   UNL     1      47.827   1.122   6.721  0.00  0.00    +0.000 OA
ATOM     11  H   UNL     1      46.013  -0.996   8.256  0.00  0.00    +0.000 HD
ATOM     12  H   UNL     1      47.340  -1.212   7.174  0.00  0.00    +0.000 HD
ENDBRANCH   4   8
BRANCH   1  13
ATOM     13  N   UNL     1      43.648   4.514  10.177  0.00  0.00    +0.000 N 
ATOM     14  H   UNL     1      43.947   5.457   9.946  0.00  0.00    +0.000 HD
BRANCH  13  15
ATOM     15  C   UNL     1      43.626   4.301  11.622  0.00  0.00    +0.000 C 
BRANCH  15  18
ATOM     16  C   UNL     1      46.374   6.651  12.792  0.00  0.00    +0.000 A 
ATOM     17  C   UNL     1      45.257   6.189  12.108  0.00  0.00    +0.000 A 
ATOM     18  C   UNL     1      44.875   4.853  12.272  0.00  0.00    +0.000 A 
ATOM     19  C   UNL     1      45.646   4.045  13.114  0.00  0.00    +0.000 A 
ATOM     20  C   UNL     1      46.743   4.600  13.755  0.00  0.00    +0.000 A 
ATOM     21  N   UNL     1      47.122   5.884  13.614  0.00  0.00    +0.000 NA
BRANCH  16  23
ATOM     22  C   UNL     1      45.653   8.870  12.937  0.00  0.00    +0.000 C 
ATOM     23  O   UNL     1      46.714   7.977  12.604  0.00  0.00    +0.000 OA
ENDBRANCH  16  23
ENDBRANCH  15  18
ENDBRANCH  13  15
ENDBRANCH   1  13
TORSDOF 5
ENDMDL
MODEL 8
REMARK VINA RESULT:    -6.404      2.316      6.377
REMARK INTER + INTRA:          -8.947
REMARK INTER:                  -8.040
REMARK INTRA:                  -0.907
REMARK UNBOUND:                -0.671
REMARK  Name = 
REMARK  7 active torsions:
REMARK  status: ('A' for Active; 'I' for Inactive)
REMARK    1  A    between atoms: C_1  and  O_2
REMARK    2  A    between atoms: O_2  and  C_3
REMARK    3  A    between atoms: C_5  and  C_6
REMARK    4  A    between atoms: C_6  and  N_7
REMARK    5  A    between atoms: N_7  and  C_8
REMARK    6  A    between atoms: C_11  and  C_12
REMARK    7  A    between atoms: C_16  and  C_17
REMARK                            x       y       z     vdW  Elec       q    Type
REMARK                         _______ _______ _______ _____ _____    ______ ____
ROOT
ATOM      1  C   UNL     1      45.219   5.765  12.699  0.00  0.00    +0.000 A 
ATOM      2  N   UNL     1      45.273   7.114  12.620  0.00  0.00    +0.000 NA
ATOM      3  C   UNL     1      46.457   7.738  12.840  0.00  0.00    +0.000 A 
ATOM      4  C   UNL     1      47.633   7.083  13.153  0.00  0.00    +0.000 A 
ATOM      5  C   UNL     1      47.566   5.695  13.263  0.00  0.00    +0.000 A 
ATOM      6  C   UNL     1      46.357   5.014  13.030  0.00  0.00    +0.000 A 
ATOM      7  C   UNL     1      46.319   3.522  13.198  0.00  0.00    +0.000 C 
ENDROOT
BRANCH   4   8
ATOM      8  C   UNL     1      48.928   7.771  13.371  0.00  0.00    +0.000 C 
ATOM      9  N   UNL     1      50.041   7.325  12.712  0.00  0.00    +0.000 N 
ATOM     10  O   UNL     1      49.017   8.720  14.141  0.00  0.00    +0.000 OA
ATOM     11  H   UNL     1      50.088   6.542  12.081  0.00  0.00    +0.000 HD
ATOM     12  H   UNL     1      50.904   7.815  12.911  0.00  0.00    +0.000 HD
ENDBRANCH   4   8
BRANCH   1  13
ATOM     13  N   UNL     1      43.988   5.119  12.468  0.00  0.00    +0.000 N 
ATOM     14  H   UNL     1      44.084   4.134  12.693  0.00  0.00    +0.000 HD
BRANCH  13  15
ATOM     15  C   UNL     1      43.488   5.309  11.108  0.00  0.00    +0.000 C 
BRANCH  15  18
ATOM     16  C   UNL     1      45.530   3.810   8.276  0.00  0.00    +0.000 A 
ATOM     17  C   UNL     1      44.910   4.762   9.073  0.00  0.00    +0.000 A 
ATOM     18  C   UNL     1      44.128   4.329  10.151  0.00  0.00    +0.000 A 
ATOM     19  C   UNL     1      44.005   2.952  10.366  0.00  0.00    +0.000 A 
ATOM     20  C   UNL     1      44.666   2.081   9.515  0.00  0.00    +0.000 A 
ATOM     21  N   UNL     1      45.426   2.478   8.477  0.00  0.00    +0.000 NA
BRANCH  16  23
ATOM     22  C   UNL     1      46.889   3.232   6.464  0.00  0.00    +0.000 C 
ATOM     23  O   UNL     1      46.295   4.280   7.226  0.00  0.00    +0.000 OA
ENDBRANCH  16  23
ENDBRANCH  15  18
ENDBRANCH  13  15
ENDBRANCH   1  13
TORSDOF 5
ENDMDL
MODEL 9
REMARK VINA RESULT:    -6.338      3.134      5.500
REMARK INTER + INTRA:          -8.862
REMARK INTER:                  -8.430
REMARK INTRA:                  -0.433
REMARK UNBOUND:                -0.671
REMARK  Name = 
REMARK  7 active torsions:
REMARK  status: ('A' for Active; 'I' for Inactive)
REMARK    1  A    between atoms: C_1  and  O_2
REMARK    2  A    between atoms: O_2  and  C_3
REMARK    3  A    between atoms: C_5  and  C_6
REMARK    4  A    between atoms: C_6  and  N_7
REMARK    5  A    between atoms: N_7  and  C_8
REMARK    6  A    between atoms: C_11  and  C_12
REMARK    7  A    between atoms: C_16  and  C_17
REMARK                            x       y       z     vdW  Elec       q    Type
REMARK                         _______ _______ _______ _____ _____    ______ ____
ROOT
ATOM      1  C   UNL     1      46.488   4.858  13.786  0.00  0.00    +0.000 A 
ATOM      2  N   UNL     1      45.988   3.612  13.624  0.00  0.00    +0.000 NA
ATOM      3  C   UNL     1      45.317   3.318  12.482  0.00  0.00    +0.000 A 
ATOM      4  C   UNL     1      45.096   4.217  11.458  0.00  0.00    +0.000 A 
ATOM      5  C   UNL     1      45.586   5.509  11.643  0.00  0.00    +0.000 A 
ATOM      6  C   UNL     1      46.297   5.847  12.809  0.00  0.00    +0.000 A 
ATOM      7  C   UNL     1      46.773   7.259  12.987  0.00  0.00    +0.000 C 
ENDROOT
BRANCH   4   8
ATOM      8  C   UNL     1      44.380   3.882  10.203  0.00  0.00    +0.000 C 
ATOM      9  N   UNL     1      44.297   4.817   9.210  0.00  0.00    +0.000 N 
ATOM     10  O   UNL     1      43.851   2.786  10.052  0.00  0.00    +0.000 OA
ATOM     11  H   UNL     1      44.669   5.753   9.238  0.00  0.00    +0.000 HD
ATOM     12  H   UNL     1      43.780   4.546   8.382  0.00  0.00    +0.000 HD
ENDBRANCH   4   8
BRANCH   1  13
ATOM     13  N   UNL     1      47.187   5.160  14.972  0.00  0.00    +0.000 N 
ATOM     14  H   UNL     1      48.151   5.377  14.741  0.00  0.00    +0.000 HD
BRANCH  13  15
ATOM     15  C   UNL     1      47.103   4.100  15.973  0.00  0.00    +0.000 C 
BRANCH  15  18
ATOM     16  C   UNL     1      50.256   2.408  17.253  0.00  0.00    +0.000 A 
ATOM     17  C   UNL     1      48.983   2.560  16.721  0.00  0.00    +0.000 A 
ATOM     18  C   UNL     1      48.449   3.850  16.615  0.00  0.00    +0.000 A 
ATOM     19  C   UNL     1      49.227   4.924  17.060  0.00  0.00    +0.000 A 
ATOM     20  C   UNL     1      50.488   4.669  17.575  0.00  0.00    +0.000 A 
ATOM     21  N   UNL     1      51.020   3.437  17.679  0.00  0.00    +0.000 NA
BRANCH  16  23
ATOM     22  C   UNL     1      52.153   1.077  17.554  0.00  0.00    +0.000 C 
ATOM     23  O   UNL     1      50.745   1.119  17.336  0.00  0.00    +0.000 OA
ENDBRANCH  16  23
ENDBRANCH  15  18
ENDBRANCH  13  15
ENDBRANCH   1  13
TORSDOF 5
ENDMDL
