MODEL 1
REMARK VINA RESULT:    -8.515      0.000      0.000
REMARK INTER + INTRA:         -11.919
REMARK INTER:                 -11.502
REMARK INTRA:                  -0.417
REMARK UNBOUND:                -0.417
REMARK  Name = 
REMARK  6 active torsions:
REMARK  status: ('A' for Active; 'I' for Inactive)
REMARK    1  A    between atoms: C_2  and  C_3
REMARK    2  A    between atoms: C_6  and  N_7
REMARK    3  A    between atoms: N_7  and  C_8
REMARK    4  A    between atoms: C_8  and  C_9
REMARK    5  A    between atoms: C_13  and  C_14
REMARK    6  A    between atoms: C_17  and  C_18
REMARK                            x       y       z     vdW  Elec       q    Type
REMARK                         _______ _______ _______ _____ _____    ______ ____
ROOT
ATOM      1  C   UNL     1      45.486   5.226  12.042  0.00  0.00    +0.000 A 
ATOM      2  C   UNL     1      46.120   6.246  11.319  0.00  0.00    +0.000 A 
ATOM      3  C   UNL     1      47.229   6.906  11.838  0.00  0.00    +0.000 A 
ATOM      4  C   UNL     1      47.728   6.545  13.090  0.00  0.00    +0.000 A 
ATOM      5  C   UNL     1      47.171   5.477  13.813  0.00  0.00    +0.000 A 
ATOM      6  C   UNL     1      46.087   4.798  13.237  0.00  0.00    +0.000 A 
ENDROOT
BRANCH   5   7
ATOM      7  C   UNL     1      47.604   5.154  15.182  0.00  0.00    +0.000 A 
ATOM      8  C   UNL     1      47.132   4.033  15.879  0.00  0.00    +0.000 A 
ATOM      9  C   UNL     1      47.501   3.817  17.206  0.00  0.00    +0.000 A 
ATOM     10  C   UNL     1      48.357   4.728  17.805  0.00  0.00    +0.000 A 
ATOM     11  N   UNL     1      48.843   5.824  17.177  0.00  0.00    +0.000 NA
ATOM     12  C   UNL     1      48.451   6.007  15.894  0.00  0.00    +0.000 A 
BRANCH  10  13
ATOM     13  C   UNL     1      48.761   4.564  19.176  0.00  0.00    +0.000 C 
ATOM     14  N   UNL     1      49.044   4.442  20.295  0.00  0.00    +0.000 NA
ENDBRANCH  10  13
ENDBRANCH   5   7
BRANCH   1  15
ATOM     15  C   UNL     1      44.103   4.740  11.630  0.00  0.00    +0.000 C 
ATOM     16  C   UNL     1      43.415   3.649  12.454  0.00  0.00    +0.000 C 
ATOM     17  C   UNL     1      43.029   5.070  12.658  0.00  0.00    +0.000 C 
BRANCH  15  18
ATOM     18  N   UNL     1      43.953   4.586  10.182  0.00  0.00    +0.000 N 
ATOM     19  H   UNL     1      43.055   4.868   9.797  0.00  0.00    +0.000 HD
BRANCH  18  23
ATOM     20  C   UNL     1      46.533   2.608   7.578  0.00  0.00    +0.000 A 
ATOM     21  C   UNL     1      45.828   1.834   8.487  0.00  0.00    +0.000 A 
ATOM     22  C   UNL     1      44.921   2.464   9.346  0.00  0.00    +0.000 A 
ATOM     23  C   UNL     1      44.734   3.842   9.288  0.00  0.00    +0.000 A 
ATOM     24  C   UNL     1      45.498   4.518   8.329  0.00  0.00    +0.000 A 
ATOM     25  N   UNL     1      46.379   3.947   7.471  0.00  0.00    +0.000 NA
BRANCH  20  27
ATOM     26  N   UNL     1      48.300   1.517   6.015  0.00  0.00    +0.000 NA
ATOM     27  C   UNL     1      47.498   2.014   6.694  0.00  0.00    +0.000 C 
ENDBRANCH  20  27
ENDBRANCH  18  23
ENDBRANCH  15  18
ENDBRANCH   1  15
TORSDOF 6
ENDMDL
MODEL 2
REMARK VINA RESULT:    -8.308      2.990      4.574
REMARK INTER + INTRA:         -11.639
REMARK INTER:                 -10.468
REMARK INTRA:                  -1.172
REMARK UNBOUND:                -0.417
REMARK  Name = 
REMARK  6 active torsions:
REMARK  status: ('A' for Active; 'I' for Inactive)
REMARK    1  A    between atoms: C_2  and  C_3
REMARK    2  A    between atoms: C_6  and  N_7
REMARK    3  A    between atoms: N_7  and  C_8
REMARK    4  A    between atoms: C_8  and  C_9
REMARK    5  A    between atoms: C_13  and  C_14
REMARK    6  A    between atoms: C_17  and  C_18
REMARK                            x       y       z     vdW  Elec       q    Type
REMARK                         _______ _______ _______ _____ _____    ______ ____
ROOT
ATOM      1  C   UNL     1      44.963   5.248  12.167  0.00  0.00    +0.000 A 
ATOM      2  C   UNL     1      45.400   4.186  12.971  0.00  0.00    +0.000 A 
ATOM      3  C   UNL     1      46.660   4.209  13.561  0.00  0.00    +0.000 A 
ATOM      4  C   UNL     1      47.499   5.306  13.362  0.00  0.00    +0.000 A 
ATOM      5  C   UNL     1      47.070   6.425  12.629  0.00  0.00    +0.000 A 
ATOM      6  C   UNL     1      45.774   6.393  12.093  0.00  0.00    +0.000 A 
ENDROOT
BRANCH   5   7
ATOM      7  C   UNL     1      47.976   7.541  12.309  0.00  0.00    +0.000 A 
ATOM      8  C   UNL     1      47.520   8.854  12.124  0.00  0.00    +0.000 A 
ATOM      9  C   UNL     1      48.403   9.860  11.734  0.00  0.00    +0.000 A 
ATOM     10  C   UNL     1      49.737   9.529  11.553  0.00  0.00    +0.000 A 
ATOM     11  N   UNL     1      50.228   8.279  11.722  0.00  0.00    +0.000 NA
ATOM     12  C   UNL     1      49.338   7.326  12.087  0.00  0.00    +0.000 A 
BRANCH  10  13
ATOM     13  C   UNL     1      50.691  10.523  11.138  0.00  0.00    +0.000 C 
ATOM     14  N   UNL     1      51.430  11.357  10.813  0.00  0.00    +0.000 NA
ENDBRANCH  10  13
ENDBRANCH   5   7
BRANCH   1  15
ATOM     15  C   UNL     1      43.743   5.080  11.271  0.00  0.00    +0.000 C 
ATOM     16  C   UNL     1      42.350   5.355  11.840  0.00  0.00    +0.000 C 
ATOM     17  C   UNL     1      43.016   6.391  11.009  0.00  0.00    +0.000 C 
BRANCH  15  18
ATOM     18  N   UNL     1      43.820   3.899  10.409  0.00  0.00    +0.000 N 
ATOM     19  H   UNL     1      43.186   3.139  10.642  0.00  0.00    +0.000 HD
BRANCH  18  23
ATOM     20  C   UNL     1      46.595   2.545   7.613  0.00  0.00    +0.000 A 
ATOM     21  C   UNL     1      46.369   3.912   7.677  0.00  0.00    +0.000 A 
ATOM     22  C   UNL     1      45.476   4.402   8.635  0.00  0.00    +0.000 A 
ATOM     23  C   UNL     1      44.825   3.532   9.504  0.00  0.00    +0.000 A 
ATOM     24  C   UNL     1      45.134   2.174   9.348  0.00  0.00    +0.000 A 
ATOM     25  N   UNL     1      46.001   1.658   8.442  0.00  0.00    +0.000 NA
BRANCH  20  27
ATOM     26  N   UNL     1      48.222   1.575   5.832  0.00  0.00    +0.000 NA
ATOM     27  C   UNL     1      47.481   1.988   6.628  0.00  0.00    +0.000 C 
ENDBRANCH  20  27
ENDBRANCH  18  23
ENDBRANCH  15  18
ENDBRANCH   1  15
TORSDOF 6
ENDMDL
MODEL 3
REMARK VINA RESULT:    -7.490      2.521      3.000
REMARK INTER + INTRA:         -10.534
REMARK INTER:                 -10.129
REMARK INTRA:                  -0.405
REMARK UNBOUND:                -0.417
REMARK  Name = 
REMARK  6 active torsions:
REMARK  status: ('A' for Active; 'I' for Inactive)
REMARK    1  A    between atoms: C_2  and  C_3
REMARK    2  A    between atoms: C_6  and  N_7
REMARK    3  A    between atoms: N_7  and  C_8
REMARK    4  A    between atoms: C_8  and  C_9
REMARK    5  A    between atoms: C_13  and  C_14
REMARK    6  A    between atoms: C_17  and  C_18
REMARK                            x       y       z     vdW  Elec       q    Type
REMARK                         _______ _______ _______ _____ _____    ______ ____
ROOT
ATOM      1  C   UNL     1      44.884   5.965  11.588  0.00  0.00    +0.000 A 
ATOM      2  C   UNL     1      44.158   7.130  11.308  0.00  0.00    +0.000 A 
ATOM      3  C   UNL     1      44.688   8.387  11.585  0.00  0.00    +0.000 A 
ATOM      4  C   UNL     1      45.963   8.493  12.141  0.00  0.00    +0.000 A 
ATOM      5  C   UNL     1      46.756   7.356  12.365  0.00  0.00    +0.000 A 
ATOM      6  C   UNL     1      46.212   6.108  12.024  0.00  0.00    +0.000 A 
ENDROOT
BRANCH   5   7
ATOM      7  C   UNL     1      48.054   7.433  13.056  0.00  0.00    +0.000 A 
ATOM      8  C   UNL     1      48.249   6.941  14.354  0.00  0.00    +0.000 A 
ATOM      9  C   UNL     1      49.472   7.117  15.001  0.00  0.00    +0.000 A 
ATOM     10  C   UNL     1      50.486   7.774  14.320  0.00  0.00    +0.000 A 
ATOM     11  N   UNL     1      50.349   8.266  13.066  0.00  0.00    +0.000 NA
ATOM     12  C   UNL     1      49.144   8.087  12.476  0.00  0.00    +0.000 A 
BRANCH  10  13
ATOM     13  C   UNL     1      51.763   7.997  14.942  0.00  0.00    +0.000 C 
ATOM     14  N   UNL     1      52.811   8.142  15.420  0.00  0.00    +0.000 NA
ENDBRANCH  10  13
ENDBRANCH   5   7
BRANCH   1  15
ATOM     15  C   UNL     1      44.189   4.610  11.593  0.00  0.00    +0.000 C 
ATOM     16  C   UNL     1      44.671   3.522  12.554  0.00  0.00    +0.000 C 
ATOM     17  C   UNL     1      43.466   4.319  12.900  0.00  0.00    +0.000 C 
BRANCH  15  18
ATOM     18  N   UNL     1      43.861   4.126  10.250  0.00  0.00    +0.000 N 
ATOM     19  H   UNL     1      42.871   4.020  10.048  0.00  0.00    +0.000 HD
BRANCH  18  23
ATOM     20  C   UNL     1      46.580   2.532   7.526  0.00  0.00    +0.000 A 
ATOM     21  C   UNL     1      45.908   1.642   8.351  0.00  0.00    +0.000 A 
ATOM     22  C   UNL     1      44.957   2.142   9.247  0.00  0.00    +0.000 A 
ATOM     23  C   UNL     1      44.694   3.508   9.308  0.00  0.00    +0.000 A 
ATOM     24  C   UNL     1      45.430   4.308   8.425  0.00  0.00    +0.000 A 
ATOM     25  N   UNL     1      46.351   3.864   7.535  0.00  0.00    +0.000 NA
BRANCH  20  27
ATOM     26  N   UNL     1      48.400   1.739   5.848  0.00  0.00    +0.000 NA
ATOM     27  C   UNL     1      47.587   2.072   6.610  0.00  0.00    +0.000 C 
ENDBRANCH  20  27
ENDBRANCH  18  23
ENDBRANCH  15  18
ENDBRANCH   1  15
TORSDOF 6
ENDMDL
MODEL 4
REMARK VINA RESULT:    -7.116      1.516      8.156
REMARK INTER + INTRA:         -10.029
REMARK INTER:                  -9.268
REMARK INTRA:                  -0.761
REMARK UNBOUND:                -0.417
REMARK  Name = 
REMARK  6 active torsions:
REMARK  status: ('A' for Active; 'I' for Inactive)
REMARK    1  A    between atoms: C_2  and  C_3
REMARK    2  A    between atoms: C_6  and  N_7
REMARK    3  A    between atoms: N_7  and  C_8
REMARK    4  A    between atoms: C_8  and  C_9
REMARK    5  A    between atoms: C_13  and  C_14
REMARK    6  A    between atoms: C_17  and  C_18
REMARK                            x       y       z     vdW  Elec       q    Type
REMARK                         _______ _______ _______ _____ _____    ______ ____
ROOT
ATOM      1  C   UNL     1      45.280   6.465  12.095  0.00  0.00    +0.000 A 
ATOM      2  C   UNL     1      43.908   6.404  12.378  0.00  0.00    +0.000 A 
ATOM      3  C   UNL     1      43.060   5.591  11.633  0.00  0.00    +0.000 A 
ATOM      4  C   UNL     1      43.578   4.816  10.595  0.00  0.00    +0.000 A 
ATOM      5  C   UNL     1      44.957   4.787  10.329  0.00  0.00    +0.000 A 
ATOM      6  C   UNL     1      45.791   5.577  11.133  0.00  0.00    +0.000 A 
ENDROOT
BRANCH   5   7
ATOM      7  C   UNL     1      45.512   4.069   9.169  0.00  0.00    +0.000 A 
ATOM      8  C   UNL     1      45.487   2.671   9.063  0.00  0.00    +0.000 A 
ATOM      9  C   UNL     1      46.104   2.032   7.989  0.00  0.00    +0.000 A 
ATOM     10  C   UNL     1      46.724   2.815   7.027  0.00  0.00    +0.000 A 
ATOM     11  N   UNL     1      46.774   4.167   7.081  0.00  0.00    +0.000 NA
ATOM     12  C   UNL     1      46.176   4.751   8.146  0.00  0.00    +0.000 A 
BRANCH  10  13
ATOM     13  C   UNL     1      47.390   2.211   5.904  0.00  0.00    +0.000 C 
ATOM     14  N   UNL     1      47.960   1.753   5.003  0.00  0.00    +0.000 NA
ENDBRANCH  10  13
ENDBRANCH   5   7
BRANCH   1  15
ATOM     15  C   UNL     1      46.135   7.580  12.681  0.00  0.00    +0.000 C 
ATOM     16  C   UNL     1      46.217   8.924  11.954  0.00  0.00    +0.000 C 
ATOM     17  C   UNL     1      45.316   8.782  13.127  0.00  0.00    +0.000 C 
BRANCH  15  18
ATOM     18  N   UNL     1      47.413   7.105  13.216  0.00  0.00    +0.000 N 
ATOM     19  H   UNL     1      48.232   7.302  12.646  0.00  0.00    +0.000 HD
BRANCH  18  23
ATOM     20  C   UNL     1      48.115   4.597  16.466  0.00  0.00    +0.000 A 
ATOM     21  C   UNL     1      47.171   4.186  15.536  0.00  0.00    +0.000 A 
ATOM     22  C   UNL     1      46.944   4.986  14.411  0.00  0.00    +0.000 A 
ATOM     23  C   UNL     1      47.651   6.171  14.232  0.00  0.00    +0.000 A 
ATOM     24  C   UNL     1      48.580   6.481  15.234  0.00  0.00    +0.000 A 
ATOM     25  N   UNL     1      48.840   5.730  16.333  0.00  0.00    +0.000 NA
BRANCH  20  27
ATOM     26  N   UNL     1      48.577   3.169  18.589  0.00  0.00    +0.000 NA
ATOM     27  C   UNL     1      48.364   3.827  17.653  0.00  0.00    +0.000 C 
ENDBRANCH  20  27
ENDBRANCH  18  23
ENDBRANCH  15  18
ENDBRANCH   1  15
TORSDOF 6
ENDMDL
MODEL 5
REMARK VINA RESULT:    -6.558      2.997      7.794
REMARK INTER + INTRA:          -9.274
REMARK INTER:                  -8.652
REMARK INTRA:                  -0.622
REMARK UNBOUND:                -0.417
REMARK  Name = 
REMARK  6 active torsions:
REMARK  status: ('A' for Active; 'I' for Inactive)
REMARK    1  A    between atoms: C_2  and  C_3
REMARK    2  A    between atoms: C_6  and  N_7
REMARK    3  A    between atoms: N_7  and  C_8
REMARK    4  A    between atoms: C_8  and  C_9
REMARK    5  A    between atoms: C_13  and  C_14
REMARK    6  A    between atoms: C_17  and  C_18
REMARK                            x       y       z     vdW  Elec       q    Type
REMARK                         _______ _______ _______ _____ _____    ______ ____
ROOT
ATOM      1  C   UNL     1      48.714   8.074  15.043  0.00  0.00    +0.000 A 
ATOM      2  C   UNL     1      49.856   8.340  14.275  0.00  0.00    +0.000 A 
ATOM      3  C   UNL     1      50.013   7.781  13.010  0.00  0.00    +0.000 A 
ATOM      4  C   UNL     1      49.018   6.953  12.491  0.00  0.00    +0.000 A 
ATOM      5  C   UNL     1      47.823   6.723  13.193  0.00  0.00    +0.000 A 
ATOM      6  C   UNL     1      47.674   7.345  14.442  0.00  0.00    +0.000 A 
ENDROOT
BRANCH   5   7
ATOM      7  C   UNL     1      46.812   5.763  12.719  0.00  0.00    +0.000 A 
ATOM      8  C   UNL     1      46.059   5.973  11.556  0.00  0.00    +0.000 A 
ATOM      9  C   UNL     1      45.051   5.080  11.195  0.00  0.00    +0.000 A 
ATOM     10  C   UNL     1      44.829   3.978  12.008  0.00  0.00    +0.000 A 
ATOM     11  N   UNL     1      45.530   3.728  13.138  0.00  0.00    +0.000 NA
ATOM     12  C   UNL     1      46.491   4.625  13.462  0.00  0.00    +0.000 A 
BRANCH  10  13
ATOM     13  C   UNL     1      43.794   3.030  11.693  0.00  0.00    +0.000 C 
ATOM     14  N   UNL     1      42.984   2.232  11.458  0.00  0.00    +0.000 NA
ENDBRANCH  10  13
ENDBRANCH   5   7
BRANCH   1  15
ATOM     15  C   UNL     1      48.693   8.410  16.528  0.00  0.00    +0.000 C 
ATOM     16  C   UNL     1      49.739   9.372  17.095  0.00  0.00    +0.000 C 
ATOM     17  C   UNL     1      48.372   9.873  16.800  0.00  0.00    +0.000 C 
BRANCH  15  18
ATOM     18  N   UNL     1      48.417   7.250  17.378  0.00  0.00    +0.000 N 
ATOM     19  H   UNL     1      48.031   7.455  18.296  0.00  0.00    +0.000 HD
BRANCH  18  23
ATOM     20  C   UNL     1      50.004   3.401  17.241  0.00  0.00    +0.000 A 
ATOM     21  C   UNL     1      48.622   3.522  17.219  0.00  0.00    +0.000 A 
ATOM     22  C   UNL     1      48.059   4.803  17.220  0.00  0.00    +0.000 A 
ATOM     23  C   UNL     1      48.873   5.932  17.245  0.00  0.00    +0.000 A 
ATOM     24  C   UNL     1      50.251   5.686  17.262  0.00  0.00    +0.000 A 
ATOM     25  N   UNL     1      50.838   4.464  17.250  0.00  0.00    +0.000 NA
BRANCH  20  27
ATOM     26  N   UNL     1      51.171   1.080  17.318  0.00  0.00    +0.000 NA
ATOM     27  C   UNL     1      50.630   2.109  17.271  0.00  0.00    +0.000 C 
ENDBRANCH  20  27
ENDBRANCH  18  23
ENDBRANCH  15  18
ENDBRANCH   1  15
TORSDOF 6
ENDMDL
MODEL 6
REMARK VINA RESULT:    -6.329      3.267      5.220
REMARK INTER + INTRA:          -8.966
REMARK INTER:                  -8.125
REMARK INTRA:                  -0.841
REMARK UNBOUND:                -0.417
REMARK  Name = 
REMARK  6 active torsions:
REMARK  status: ('A' for Active; 'I' for Inactive)
REMARK    1  A    between atoms: C_2  and  C_3
REMARK    2  A    between atoms: C_6  and  N_7
REMARK    3  A    between atoms: N_7  and  C_8
REMARK    4  A    between atoms: C_8  and  C_9
REMARK    5  A    between atoms: C_13  and  C_14
REMARK    6  A    between atoms: C_17  and  C_18
REMARK                            x       y       z     vdW  Elec       q    Type
REMARK                         _______ _______ _______ _____ _____    ______ ____
ROOT
ATOM      1  C   UNL     1      48.671   7.975  14.704  0.00  0.00    +0.000 A 
ATOM      2  C   UNL     1      48.214   8.948  15.603  0.00  0.00    +0.000 A 
ATOM      3  C   UNL     1      48.546   8.884  16.954  0.00  0.00    +0.000 A 
ATOM      4  C   UNL     1      49.351   7.846  17.421  0.00  0.00    +0.000 A 
ATOM      5  C   UNL     1      49.895   6.895  16.542  0.00  0.00    +0.000 A 
ATOM      6  C   UNL     1      49.585   7.019  15.179  0.00  0.00    +0.000 A 
ENDROOT
BRANCH   5   7
ATOM      7  C   UNL     1      50.650   5.728  17.025  0.00  0.00    +0.000 A 
ATOM      8  C   UNL     1      52.047   5.725  17.136  0.00  0.00    +0.000 A 
ATOM      9  C   UNL     1      52.725   4.567  17.514  0.00  0.00    +0.000 A 
ATOM     10  C   UNL     1      51.979   3.431  17.791  0.00  0.00    +0.000 A 
ATOM     11  N   UNL     1      50.629   3.382  17.701  0.00  0.00    +0.000 NA
ATOM     12  C   UNL     1      50.008   4.522  17.319  0.00  0.00    +0.000 A 
BRANCH  10  13
ATOM     13  C   UNL     1      52.624   2.203  18.171  0.00  0.00    +0.000 C 
ATOM     14  N   UNL     1      53.147   1.200  18.434  0.00  0.00    +0.000 NA
ENDBRANCH  10  13
ENDBRANCH   5   7
BRANCH   1  15
ATOM     15  C   UNL     1      48.051   7.861  13.318  0.00  0.00    +0.000 C 
ATOM     16  C   UNL     1      48.474   8.842  12.223  0.00  0.00    +0.000 C 
ATOM     17  C   UNL     1      49.062   7.478  12.247  0.00  0.00    +0.000 C 
BRANCH  15  18
ATOM     18  N   UNL     1      46.615   7.577  13.350  0.00  0.00    +0.000 N 
ATOM     19  H   UNL     1      46.070   8.128  14.008  0.00  0.00    +0.000 HD
BRANCH  18  23
ATOM     20  C   UNL     1      44.430   4.237  12.156  0.00  0.00    +0.000 A 
ATOM     21  C   UNL     1      44.380   5.358  11.340  0.00  0.00    +0.000 A 
ATOM     22  C   UNL     1      45.137   6.480  11.691  0.00  0.00    +0.000 A 
ATOM     23  C   UNL     1      45.923   6.471  12.839  0.00  0.00    +0.000 A 
ATOM     24  C   UNL     1      45.898   5.284  13.583  0.00  0.00    +0.000 A 
ATOM     25  N   UNL     1      45.188   4.171  13.273  0.00  0.00    +0.000 NA
BRANCH  20  27
ATOM     26  N   UNL     1      42.997   2.147  11.580  0.00  0.00    +0.000 NA
ATOM     27  C   UNL     1      43.649   3.070  11.856  0.00  0.00    +0.000 C 
ENDBRANCH  20  27
ENDBRANCH  18  23
ENDBRANCH  15  18
ENDBRANCH   1  15
TORSDOF 6
ENDMDL
MODEL 7
REMARK VINA RESULT:    -5.984      3.029      8.066
REMARK INTER + INTRA:          -8.499
REMARK INTER:                  -7.634
REMARK INTRA:                  -0.865
REMARK UNBOUND:                -0.417
REMARK  Name = 
REMARK  6 active torsions:
REMARK  status: ('A' for Active; 'I' for Inactive)
REMARK    1  A    between atoms: C_2  and  C_3
REMARK    2  A    between atoms: C_6  and  N_7
REMARK    3  A    between atoms: N_7  and  C_8
REMARK    4  A    between atoms: C_8  and  C_9
REMARK    5  A    between atoms: C_13  and  C_14
REMARK    6  A    between atoms: C_17  and  C_18
REMARK                            x       y       z     vdW  Elec       q    Type
REMARK                         _______ _______ _______ _____ _____    ______ ____
ROOT
ATOM      1  C   UNL     1      47.747   9.490  12.385  0.00  0.00    +0.000 A 
ATOM      2  C   UNL     1      46.940  10.595  12.081  0.00  0.00    +0.000 A 
ATOM      3  C   UNL     1      45.604  10.428  11.730  0.00  0.00    +0.000 A 
ATOM      4  C   UNL     1      45.053   9.148  11.689  0.00  0.00    +0.000 A 
ATOM      5  C   UNL     1      45.804   8.021  12.062  0.00  0.00    +0.000 A 
ATOM      6  C   UNL     1      47.133   8.230  12.462  0.00  0.00    +0.000 A 
ENDROOT
BRANCH   5   7
ATOM      7  C   UNL     1      45.282   6.652  11.917  0.00  0.00    +0.000 A 
ATOM      8  C   UNL     1      45.451   5.900  10.746  0.00  0.00    +0.000 A 
ATOM      9  C   UNL     1      44.861   4.643  10.622  0.00  0.00    +0.000 A 
ATOM     10  C   UNL     1      44.123   4.155  11.690  0.00  0.00    +0.000 A 
ATOM     11  N   UNL     1      43.933   4.840  12.842  0.00  0.00    +0.000 NA
ATOM     12  C   UNL     1      44.509   6.062  12.920  0.00  0.00    +0.000 A 
BRANCH  10  13
ATOM     13  C   UNL     1      43.481   2.870  11.614  0.00  0.00    +0.000 C 
ATOM     14  N   UNL     1      42.952   1.838  11.596  0.00  0.00    +0.000 NA
ENDBRANCH  10  13
ENDBRANCH   5   7
BRANCH   1  15
ATOM     15  C   UNL     1      49.262   9.640  12.444  0.00  0.00    +0.000 C 
ATOM     16  C   UNL     1      50.128   8.935  11.398  0.00  0.00    +0.000 C 
ATOM     17  C   UNL     1      49.831  10.383  11.244  0.00  0.00    +0.000 C 
BRANCH  15  18
ATOM     18  N   UNL     1      49.794   9.580  13.807  0.00  0.00    +0.000 N 
ATOM     19  H   UNL     1      50.654  10.097  13.970  0.00  0.00    +0.000 HD
BRANCH  18  23
ATOM     20  C   UNL     1      49.173   6.819  16.865  0.00  0.00    +0.000 A 
ATOM     21  C   UNL     1      48.665   8.097  17.046  0.00  0.00    +0.000 A 
ATOM     22  C   UNL     1      48.819   9.034  16.019  0.00  0.00    +0.000 A 
ATOM     23  C   UNL     1      49.473   8.689  14.841  0.00  0.00    +0.000 A 
ATOM     24  C   UNL     1      49.940   7.371  14.769  0.00  0.00    +0.000 A 
ATOM     25  N   UNL     1      49.803   6.428  15.734  0.00  0.00    +0.000 NA
BRANCH  20  27
ATOM     26  N   UNL     1      48.960   5.057  18.764  0.00  0.00    +0.000 NA
ATOM     27  C   UNL     1      49.068   5.829  17.900  0.00  0.00    +0.000 C 
ENDBRANCH  20  27
ENDBRANCH  18  23
ENDBRANCH  15  18
ENDBRANCH   1  15
TORSDOF 6
ENDMDL
MODEL 8
REMARK VINA RESULT:    -5.677      1.885      3.294
REMARK INTER + INTRA:          -8.085
REMARK INTER:                  -7.021
REMARK INTRA:                  -1.064
REMARK UNBOUND:                -0.417
REMARK  Name = 
REMARK  6 active torsions:
REMARK  status: ('A' for Active; 'I' for Inactive)
REMARK    1  A    between atoms: C_2  and  C_3
REMARK    2  A    between atoms: C_6  and  N_7
REMARK    3  A    between atoms: N_7  and  C_8
REMARK    4  A    between atoms: C_8  and  C_9
REMARK    5  A    between atoms: C_13  and  C_14
REMARK    6  A    between atoms: C_17  and  C_18
REMARK                            x       y       z     vdW  Elec       q    Type
REMARK                         _______ _______ _______ _____ _____    ______ ____
ROOT
ATOM      1  C   UNL     1      47.352   7.626  12.780  0.00  0.00    +0.000 A 
ATOM      2  C   UNL     1      48.470   8.005  12.025  0.00  0.00    +0.000 A 
ATOM      3  C   UNL     1      49.752   7.938  12.563  0.00  0.00    +0.000 A 
ATOM      4  C   UNL     1      49.933   7.477  13.867  0.00  0.00    +0.000 A 
ATOM      5  C   UNL     1      48.849   7.013  14.631  0.00  0.00    +0.000 A 
ATOM      6  C   UNL     1      47.577   7.044  14.039  0.00  0.00    +0.000 A 
ENDROOT
BRANCH   5   7
ATOM      7  C   UNL     1      48.998   6.632  16.045  0.00  0.00    +0.000 A 
ATOM      8  C   UNL     1      49.747   7.390  16.956  0.00  0.00    +0.000 A 
ATOM      9  C   UNL     1      49.933   6.942  18.264  0.00  0.00    +0.000 A 
ATOM     10  C   UNL     1      49.345   5.743  18.637  0.00  0.00    +0.000 A 
ATOM     11  N   UNL     1      48.610   4.976  17.797  0.00  0.00    +0.000 NA
ATOM     12  C   UNL     1      48.463   5.437  16.533  0.00  0.00    +0.000 A 
BRANCH  10  13
ATOM     13  C   UNL     1      49.514   5.224  19.968  0.00  0.00    +0.000 C 
ATOM     14  N   UNL     1      49.659   4.765  21.024  0.00  0.00    +0.000 NA
ENDBRANCH  10  13
ENDBRANCH   5   7
BRANCH   1  15
ATOM     15  C   UNL     1      45.951   8.003  12.319  0.00  0.00    +0.000 C 
ATOM     16  C   UNL     1      45.299   9.276  12.864  0.00  0.00    +0.000 C 
ATOM     17  C   UNL     1      45.920   9.295  11.514  0.00  0.00    +0.000 C 
BRANCH  15  18
ATOM     18  N   UNL     1      45.046   6.856  12.224  0.00  0.00    +0.000 N 
ATOM     19  H   UNL     1      44.374   6.758  12.981  0.00  0.00    +0.000 HD
BRANCH  18  23
ATOM     20  C   UNL     1      45.051   3.355   9.967  0.00  0.00    +0.000 A 
ATOM     21  C   UNL     1      45.408   4.531   9.322  0.00  0.00    +0.000 A 
ATOM     22  C   UNL     1      45.458   5.716  10.063  0.00  0.00    +0.000 A 
ATOM     23  C   UNL     1      45.152   5.713  11.421  0.00  0.00    +0.000 A 
ATOM     24  C   UNL     1      44.810   4.468  11.964  0.00  0.00    +0.000 A 
ATOM     25  N   UNL     1      44.760   3.295  11.286  0.00  0.00    +0.000 NA
BRANCH  20  27
ATOM     26  N   UNL     1      44.895   1.135   8.624  0.00  0.00    +0.000 NA
ATOM     27  C   UNL     1      44.956   2.117   9.245  0.00  0.00    +0.000 C 
ENDBRANCH  20  27
ENDBRANCH  18  23
ENDBRANCH  15  18
ENDBRANCH   1  15
TORSDOF 6
ENDMDL
MODEL 9
REMARK VINA RESULT:    -5.565      4.504      7.105
REMARK INTER + INTRA:          -7.933
REMARK INTER:                  -7.369
REMARK INTRA:                  -0.564
REMARK UNBOUND:                -0.417
REMARK  Name = 
REMARK  6 active torsions:
REMARK  status: ('A' for Active; 'I' for Inactive)
REMARK    1  A    between atoms: C_2  and  C_3
REMARK    2  A    between atoms: C_6  and  N_7
REMARK    3  A    between atoms: N_7  and  C_8
REMARK    4  A    between atoms: C_8  and  C_9
REMARK    5  A    between atoms: C_13  and  C_14
REMARK    6  A    between atoms: C_17  and  C_18
REMARK                            x       y       z     vdW  Elec       q    Type
REMARK                         _______ _______ _______ _____ _____    ______ ____
ROOT
ATOM      1  C   UNL     1      49.921   8.422  13.181  0.00  0.00    +0.000 A 
ATOM      2  C   UNL     1      50.201   8.415  14.554  0.00  0.00    +0.000 A 
ATOM      3  C   UNL     1      49.540   7.542  15.413  0.00  0.00    +0.000 A 
ATOM      4  C   UNL     1      48.593   6.653  14.905  0.00  0.00    +0.000 A 
ATOM      5  C   UNL     1      48.340   6.572  13.525  0.00  0.00    +0.000 A 
ATOM      6  C   UNL     1      49.062   7.429  12.681  0.00  0.00    +0.000 A 
ENDROOT
BRANCH   5   7
ATOM      7  C   UNL     1      47.266   5.727  12.978  0.00  0.00    +0.000 A 
ATOM      8  C   UNL     1      46.513   6.095  11.854  0.00  0.00    +0.000 A 
ATOM      9  C   UNL     1      45.447   5.304  11.427  0.00  0.00    +0.000 A 
ATOM     10  C   UNL     1      45.168   4.143  12.131  0.00  0.00    +0.000 A 
ATOM     11  N   UNL     1      45.866   3.741  13.219  0.00  0.00    +0.000 NA
ATOM     12  C   UNL     1      46.884   4.542  13.612  0.00  0.00    +0.000 A 
BRANCH  10  13
ATOM     13  C   UNL     1      44.072   3.295  11.744  0.00  0.00    +0.000 C 
ATOM     14  N   UNL     1      43.159   2.641  11.451  0.00  0.00    +0.000 NA
ENDBRANCH  10  13
ENDBRANCH   5   7
BRANCH   1  15
ATOM     15  C   UNL     1      50.391   9.578  12.308  0.00  0.00    +0.000 C 
ATOM     16  C   UNL     1      49.388  10.285  11.394  0.00  0.00    +0.000 C 
ATOM     17  C   UNL     1      49.756  10.906  12.692  0.00  0.00    +0.000 C 
BRANCH  15  18
ATOM     18  N   UNL     1      51.702   9.344  11.699  0.00  0.00    +0.000 N 
ATOM     19  H   UNL     1      52.475   9.872  12.095  0.00  0.00    +0.000 HD
BRANCH  18  23
ATOM     20  C   UNL     1      52.906   7.743   8.046  0.00  0.00    +0.000 A 
ATOM     21  C   UNL     1      52.444   6.858   9.010  0.00  0.00    +0.000 A 
ATOM     22  C   UNL     1      51.991   7.369  10.231  0.00  0.00    +0.000 A 
ATOM     23  C   UNL     1      52.009   8.739  10.473  0.00  0.00    +0.000 A 
ATOM     24  C   UNL     1      52.493   9.534   9.426  0.00  0.00    +0.000 A 
ATOM     25  N   UNL     1      52.930   9.083   8.225  0.00  0.00    +0.000 NA
BRANCH  20  27
ATOM     26  N   UNL     1      53.856   6.901   5.778  0.00  0.00    +0.000 NA
ATOM     27  C   UNL     1      53.409   7.267   6.788  0.00  0.00    +0.000 C 
ENDBRANCH  20  27
ENDBRANCH  18  23
ENDBRANCH  15  18
ENDBRANCH   1  15
TORSDOF 6
ENDMDL
