MODEL 1
REMARK VINA RESULT:    -8.564      0.000      0.000
REMARK INTER + INTRA:         -12.780
REMARK INTER:                 -12.069
REMARK INTRA:                  -0.711
REMARK UNBOUND:                -0.711
REMARK  Name = 
REMARK  7 active torsions:
REMARK  status: ('A' for Active; 'I' for Inactive)
REMARK    1  A    between atoms: C_2  and  C_3
REMARK    2  A    between atoms: C_3  and  N_4
REMARK    3  A    between atoms: C_3  and  C_17
REMARK    4  A    between atoms: C_5  and  C_7
REMARK    5  A    between atoms: C_20  and  O_21
REMARK    6  A    between atoms: O_21  and  C_22
REMARK    7  A    between atoms: C_22  and  C_23
REMARK                            x       y       z     vdW  Elec       q    Type
REMARK                         _______ _______ _______ _____ _____    ______ ____
ROOT
ATOM      1  C   UNL     1      46.801   7.272  12.788  0.00  0.00    +0.000 C 
ENDROOT
BRANCH   1   2
ATOM      2  C   UNL     1      46.156   6.054  12.146  0.00  0.00    +0.000 A 
ATOM      3  C   UNL     1      45.792   6.059  10.792  0.00  0.00    +0.000 A 
ATOM      4  C   UNL     1      45.209   4.926  10.213  0.00  0.00    +0.000 A 
ATOM      5  C   UNL     1      45.003   3.773  10.971  0.00  0.00    +0.000 A 
ATOM      6  C   UNL     1      45.332   3.771  12.325  0.00  0.00    +0.000 A 
ATOM      7  C   UNL     1      45.913   4.896  12.904  0.00  0.00    +0.000 A 
BRANCH   5   8
ATOM      8  O   UNL     1      44.478   2.705  10.298  0.00  0.00    +0.000 OA
BRANCH   8   9
ATOM      9  C   UNL     1      44.263   2.923   8.899  0.00  0.00    +0.000 C 
BRANCH   9  10
ATOM     10  C   UNL     1      45.450   2.421   8.116  0.00  0.00    +0.000 A 
ATOM     11  C   UNL     1      46.103   3.271   7.225  0.00  0.00    +0.000 A 
ATOM     12  C   UNL     1      47.219   2.800   6.543  0.00  0.00    +0.000 A 
ATOM     13  C   UNL     1      47.653   1.502   6.772  0.00  0.00    +0.000 A 
ATOM     14  C   UNL     1      46.955   0.725   7.682  0.00  0.00    +0.000 A 
ATOM     15  N   UNL     1      45.874   1.156   8.363  0.00  0.00    +0.000 NA
ENDBRANCH   9  10
ENDBRANCH   8   9
ENDBRANCH   5   8
ENDBRANCH   1   2
BRANCH   1  16
ATOM     16  N   UNL     1      47.144   6.980  14.172  0.00  0.00    +0.000 N 
ATOM     17  C   UNL     1      48.415   6.643  14.548  0.00  0.00    +0.000 C 
ATOM     18  O   UNL     1      49.353   6.662  13.756  0.00  0.00    +0.000 OA
ATOM     19  H   UNL     1      46.373   6.772  14.798  0.00  0.00    +0.000 HD
BRANCH  17  20
ATOM     20  C   UNL     1      48.611   6.329  15.967  0.00  0.00    +0.000 A 
ATOM     21  C   UNL     1      49.090   7.308  16.826  0.00  0.00    +0.000 A 
ATOM     22  S   UNL     1      49.238   6.785  18.443  0.00  0.00    +0.000 S 
ATOM     23  C   UNL     1      48.715   5.216  18.042  0.00  0.00    +0.000 A 
ATOM     24  N   UNL     1      48.647   4.239  18.984  0.00  0.00    +0.000 NA
ATOM     25  C   UNL     1      48.276   3.087  18.535  0.00  0.00    +0.000 A 
ATOM     26  N   UNL     1      47.950   2.828  17.229  0.00  0.00    +0.000 N 
ATOM     27  C   UNL     1      47.935   3.801  16.258  0.00  0.00    +0.000 A 
ATOM     28  O   UNL     1      47.524   3.572  15.125  0.00  0.00    +0.000 OA
ATOM     29  C   UNL     1      48.397   5.103  16.700  0.00  0.00    +0.000 A 
ATOM     30  H   UNL     1      47.635   1.909  16.952  0.00  0.00    +0.000 HD
ENDBRANCH  17  20
ENDBRANCH   1  16
BRANCH   1  32
ATOM     31  N   UNL     1      45.202   9.376  12.626  0.00  0.00    +0.000 NA
ATOM     32  C   UNL     1      45.901   8.452  12.719  0.00  0.00    +0.000 C 
ENDBRANCH   1  32
TORSDOF 7
ENDMDL
MODEL 2
REMARK VINA RESULT:    -8.294      1.669      2.234
REMARK INTER + INTRA:         -12.399
REMARK INTER:                 -11.479
REMARK INTRA:                  -0.920
REMARK UNBOUND:                -0.711
REMARK  Name = 
REMARK  7 active torsions:
REMARK  status: ('A' for Active; 'I' for Inactive)
REMARK    1  A    between atoms: C_2  and  C_3
REMARK    2  A    between atoms: C_3  and  N_4
REMARK    3  A    between atoms: C_3  and  C_17
REMARK    4  A    between atoms: C_5  and  C_7
REMARK    5  A    between atoms: C_20  and  O_21
REMARK    6  A    between atoms: O_21  and  C_22
REMARK    7  A    between atoms: C_22  and  C_23
REMARK                            x       y       z     vdW  Elec       q    Type
REMARK                         _______ _______ _______ _____ _____    ______ ____
ROOT
ATOM      1  C   UNL     1      47.581   6.708  13.380  0.00  0.00    +0.000 C 
ENDROOT
BRANCH   1   2
ATOM      2  C   UNL     1      46.647   5.911  12.484  0.00  0.00    +0.000 A 
ATOM      3  C   UNL     1      46.335   6.353  11.190  0.00  0.00    +0.000 A 
ATOM      4  C   UNL     1      45.482   5.603  10.374  0.00  0.00    +0.000 A 
ATOM      5  C   UNL     1      44.948   4.398  10.830  0.00  0.00    +0.000 A 
ATOM      6  C   UNL     1      45.226   3.968  12.126  0.00  0.00    +0.000 A 
ATOM      7  C   UNL     1      46.075   4.711  12.941  0.00  0.00    +0.000 A 
BRANCH   5   8
ATOM      8  O   UNL     1      44.170   3.715   9.936  0.00  0.00    +0.000 OA
BRANCH   8   9
ATOM      9  C   UNL     1      44.577   2.363   9.696  0.00  0.00    +0.000 C 
BRANCH   9  10
ATOM     10  C   UNL     1      45.486   2.310   8.494  0.00  0.00    +0.000 A 
ATOM     11  C   UNL     1      45.558   3.401   7.629  0.00  0.00    +0.000 A 
ATOM     12  C   UNL     1      46.432   3.346   6.550  0.00  0.00    +0.000 A 
ATOM     13  C   UNL     1      47.210   2.211   6.367  0.00  0.00    +0.000 A 
ATOM     14  C   UNL     1      47.088   1.175   7.278  0.00  0.00    +0.000 A 
ATOM     15  N   UNL     1      46.254   1.202   8.338  0.00  0.00    +0.000 NA
ENDBRANCH   9  10
ENDBRANCH   8   9
ENDBRANCH   5   8
ENDBRANCH   1   2
BRANCH   1  16
ATOM     16  N   UNL     1      47.545   6.175  14.734  0.00  0.00    +0.000 N 
ATOM     17  C   UNL     1      48.659   6.131  15.525  0.00  0.00    +0.000 C 
ATOM     18  O   UNL     1      49.727   6.625  15.173  0.00  0.00    +0.000 OA
ATOM     19  H   UNL     1      46.746   5.598  14.975  0.00  0.00    +0.000 HD
BRANCH  17  20
ATOM     20  C   UNL     1      48.491   5.526  16.851  0.00  0.00    +0.000 A 
ATOM     21  C   UNL     1      48.553   4.146  16.986  0.00  0.00    +0.000 A 
ATOM     22  S   UNL     1      48.359   3.609  18.594  0.00  0.00    +0.000 S 
ATOM     23  C   UNL     1      48.136   5.198  19.158  0.00  0.00    +0.000 A 
ATOM     24  N   UNL     1      47.881   5.447  20.470  0.00  0.00    +0.000 NA
ATOM     25  C   UNL     1      47.690   6.692  20.751  0.00  0.00    +0.000 A 
ATOM     26  N   UNL     1      47.747   7.716  19.841  0.00  0.00    +0.000 N 
ATOM     27  C   UNL     1      48.071   7.519  18.519  0.00  0.00    +0.000 A 
ATOM     28  O   UNL     1      48.235   8.461  17.751  0.00  0.00    +0.000 OA
ATOM     29  C   UNL     1      48.243   6.129  18.140  0.00  0.00    +0.000 A 
ATOM     30  H   UNL     1      47.620   8.672  20.136  0.00  0.00    +0.000 HD
ENDBRANCH  17  20
ENDBRANCH   1  16
BRANCH   1  32
ATOM     31  N   UNL     1      46.926   9.274  13.350  0.00  0.00    +0.000 NA
ATOM     32  C   UNL     1      47.217   8.149  13.385  0.00  0.00    +0.000 C 
ENDBRANCH   1  32
TORSDOF 7
ENDMDL
MODEL 3
REMARK VINA RESULT:    -8.131      1.410      1.696
REMARK INTER + INTRA:         -12.169
REMARK INTER:                 -11.267
REMARK INTRA:                  -0.902
REMARK UNBOUND:                -0.711
REMARK  Name = 
REMARK  7 active torsions:
REMARK  status: ('A' for Active; 'I' for Inactive)
REMARK    1  A    between atoms: C_2  and  C_3
REMARK    2  A    between atoms: C_3  and  N_4
REMARK    3  A    between atoms: C_3  and  C_17
REMARK    4  A    between atoms: C_5  and  C_7
REMARK    5  A    between atoms: C_20  and  O_21
REMARK    6  A    between atoms: O_21  and  C_22
REMARK    7  A    between atoms: C_22  and  C_23
REMARK                            x       y       z     vdW  Elec       q    Type
REMARK                         _______ _______ _______ _____ _____    ______ ____
ROOT
ATOM      1  C   UNL     1      48.110   7.152  13.317  0.00  0.00    +0.000 C 
ENDROOT
BRANCH   1   2
ATOM      2  C   UNL     1      47.077   6.234  12.683  0.00  0.00    +0.000 A 
ATOM      3  C   UNL     1      46.482   6.557  11.455  0.00  0.00    +0.000 A 
ATOM      4  C   UNL     1      45.540   5.698  10.879  0.00  0.00    +0.000 A 
ATOM      5  C   UNL     1      45.198   4.501  11.509  0.00  0.00    +0.000 A 
ATOM      6  C   UNL     1      45.760   4.189  12.745  0.00  0.00    +0.000 A 
ATOM      7  C   UNL     1      46.698   5.041  13.321  0.00  0.00    +0.000 A 
BRANCH   5   8
ATOM      8  O   UNL     1      44.310   3.708  10.837  0.00  0.00    +0.000 OA
BRANCH   8   9
ATOM      9  C   UNL     1      44.149   4.026   9.450  0.00  0.00    +0.000 C 
BRANCH   9  10
ATOM     10  C   UNL     1      45.194   3.305   8.636  0.00  0.00    +0.000 A 
ATOM     11  C   UNL     1      45.419   1.945   8.845  0.00  0.00    +0.000 A 
ATOM     12  C   UNL     1      46.358   1.292   8.057  0.00  0.00    +0.000 A 
ATOM     13  C   UNL     1      47.040   2.008   7.083  0.00  0.00    +0.000 A 
ATOM     14  C   UNL     1      46.750   3.354   6.931  0.00  0.00    +0.000 A 
ATOM     15  N   UNL     1      45.839   4.014   7.677  0.00  0.00    +0.000 NA
ENDBRANCH   9  10
ENDBRANCH   8   9
ENDBRANCH   5   8
ENDBRANCH   1   2
BRANCH   1  16
ATOM     16  N   UNL     1      47.973   7.127  14.766  0.00  0.00    +0.000 N 
ATOM     17  C   UNL     1      49.038   6.896  15.591  0.00  0.00    +0.000 C 
ATOM     18  O   UNL     1      50.183   6.792  15.160  0.00  0.00    +0.000 OA
ATOM     19  H   UNL     1      47.032   7.018  15.133  0.00  0.00    +0.000 HD
BRANCH  17  20
ATOM     20  C   UNL     1      48.749   6.852  17.028  0.00  0.00    +0.000 A 
ATOM     21  C   UNL     1      48.443   8.027  17.702  0.00  0.00    +0.000 A 
ATOM     22  S   UNL     1      48.112   7.796  19.360  0.00  0.00    +0.000 S 
ATOM     23  C   UNL     1      48.415   6.126  19.246  0.00  0.00    +0.000 A 
ATOM     24  N   UNL     1      48.343   5.325  20.342  0.00  0.00    +0.000 NA
ATOM     25  C   UNL     1      48.638   4.088  20.121  0.00  0.00    +0.000 A 
ATOM     26  N   UNL     1      48.986   3.575  18.898  0.00  0.00    +0.000 N 
ATOM     27  C   UNL     1      49.003   4.333  17.751  0.00  0.00    +0.000 A 
ATOM     28  O   UNL     1      49.198   3.828  16.651  0.00  0.00    +0.000 OA
ATOM     29  C   UNL     1      48.730   5.744  17.954  0.00  0.00    +0.000 A 
ATOM     30  H   UNL     1      49.174   2.590  18.790  0.00  0.00    +0.000 HD
ENDBRANCH  17  20
ENDBRANCH   1  16
BRANCH   1  32
ATOM     31  N   UNL     1      47.859   9.615  12.380  0.00  0.00    +0.000 NA
ATOM     32  C   UNL     1      47.973   8.542  12.812  0.00  0.00    +0.000 C 
ENDBRANCH   1  32
TORSDOF 7
ENDMDL
MODEL 4
REMARK VINA RESULT:    -7.976      2.766      4.139
REMARK INTER + INTRA:         -11.951
REMARK INTER:                 -10.881
REMARK INTRA:                  -1.070
REMARK UNBOUND:                -0.711
REMARK  Name = 
REMARK  7 active torsions:
REMARK  status: ('A' for Active; 'I' for Inactive)
REMARK    1  A    between atoms: C_2  and  C_3
REMARK    2  A    between atoms: C_3  and  N_4
REMARK    3  A    between atoms: C_3  and  C_17
REMARK    4  A    between atoms: C_5  and  C_7
REMARK    5  A    between atoms: C_20  and  O_21
REMARK    6  A    between atoms: O_21  and  C_22
REMARK    7  A    between atoms: C_22  and  C_23
REMARK                            x       y       z     vdW  Elec       q    Type
REMARK                         _______ _______ _______ _____ _____    ______ ____
ROOT
ATOM      1  C   UNL     1      46.818   5.586  14.081  0.00  0.00    +0.000 C 
ENDROOT
BRANCH   1   2
ATOM      2  C   UNL     1      46.130   5.055  12.833  0.00  0.00    +0.000 A 
ATOM      3  C   UNL     1      45.632   3.744  12.785  0.00  0.00    +0.000 A 
ATOM      4  C   UNL     1      44.992   3.274  11.634  0.00  0.00    +0.000 A 
ATOM      5  C   UNL     1      44.824   4.109  10.529  0.00  0.00    +0.000 A 
ATOM      6  C   UNL     1      45.344   5.400  10.556  0.00  0.00    +0.000 A 
ATOM      7  C   UNL     1      45.981   5.873  11.700  0.00  0.00    +0.000 A 
BRANCH   5   8
ATOM      8  O   UNL     1      44.138   3.570   9.476  0.00  0.00    +0.000 OA
BRANCH   8   9
ATOM      9  C   UNL     1      44.478   2.214   9.167  0.00  0.00    +0.000 C 
BRANCH   9  10
ATOM     10  C   UNL     1      45.581   2.185   8.139  0.00  0.00    +0.000 A 
ATOM     11  C   UNL     1      45.767   3.276   7.291  0.00  0.00    +0.000 A 
ATOM     12  C   UNL     1      46.814   3.245   6.378  0.00  0.00    +0.000 A 
ATOM     13  C   UNL     1      47.646   2.135   6.340  0.00  0.00    +0.000 A 
ATOM     14  C   UNL     1      47.400   1.097   7.224  0.00  0.00    +0.000 A 
ATOM     15  N   UNL     1      46.397   1.101   8.126  0.00  0.00    +0.000 NA
ENDBRANCH   9  10
ENDBRANCH   8   9
ENDBRANCH   5   8
ENDBRANCH   1   2
BRANCH   1  16
ATOM     16  N   UNL     1      48.019   6.321  13.710  0.00  0.00    +0.000 N 
ATOM     17  C   UNL     1      48.045   7.687  13.657  0.00  0.00    +0.000 C 
ATOM     18  O   UNL     1      47.087   8.369  14.011  0.00  0.00    +0.000 OA
ATOM     19  H   UNL     1      48.747   5.795  13.237  0.00  0.00    +0.000 HD
BRANCH  17  20
ATOM     20  C   UNL     1      49.306   8.296  13.223  0.00  0.00    +0.000 A 
ATOM     21  C   UNL     1      49.317   9.138  12.120  0.00  0.00    +0.000 A 
ATOM     22  S   UNL     1      50.858   9.778  11.765  0.00  0.00    +0.000 S 
ATOM     23  C   UNL     1      51.574   8.912  13.042  0.00  0.00    +0.000 A 
ATOM     24  N   UNL     1      52.912   8.984  13.274  0.00  0.00    +0.000 NA
ATOM     25  C   UNL     1      53.327   8.244  14.246  0.00  0.00    +0.000 A 
ATOM     26  N   UNL     1      52.522   7.449  15.020  0.00  0.00    +0.000 N 
ATOM     27  C   UNL     1      51.157   7.400  14.868  0.00  0.00    +0.000 A 
ATOM     28  O   UNL     1      50.446   6.776  15.648  0.00  0.00    +0.000 OA
ATOM     29  C   UNL     1      50.645   8.173  13.752  0.00  0.00    +0.000 A 
ATOM     30  H   UNL     1      52.910   6.919  15.787  0.00  0.00    +0.000 HD
ENDBRANCH  17  20
ENDBRANCH   1  16
BRANCH   1  32
ATOM     31  N   UNL     1      47.465   3.619  15.731  0.00  0.00    +0.000 NA
ATOM     32  C   UNL     1      47.160   4.481  15.014  0.00  0.00    +0.000 C 
ENDBRANCH   1  32
TORSDOF 7
ENDMDL
MODEL 5
REMARK VINA RESULT:    -7.826      2.678      4.576
REMARK INTER + INTRA:         -11.740
REMARK INTER:                 -10.535
REMARK INTRA:                  -1.205
REMARK UNBOUND:                -0.711
REMARK  Name = 
REMARK  7 active torsions:
REMARK  status: ('A' for Active; 'I' for Inactive)
REMARK    1  A    between atoms: C_2  and  C_3
REMARK    2  A    between atoms: C_3  and  N_4
REMARK    3  A    between atoms: C_3  and  C_17
REMARK    4  A    between atoms: C_5  and  C_7
REMARK    5  A    between atoms: C_20  and  O_21
REMARK    6  A    between atoms: O_21  and  C_22
REMARK    7  A    between atoms: C_22  and  C_23
REMARK                            x       y       z     vdW  Elec       q    Type
REMARK                         _______ _______ _______ _____ _____    ______ ____
ROOT
ATOM      1  C   UNL     1      47.069   5.625  14.231  0.00  0.00    +0.000 C 
ENDROOT
BRANCH   1   2
ATOM      2  C   UNL     1      46.306   5.195  12.988  0.00  0.00    +0.000 A 
ATOM      3  C   UNL     1      46.282   6.002  11.840  0.00  0.00    +0.000 A 
ATOM      4  C   UNL     1      45.584   5.588  10.701  0.00  0.00    +0.000 A 
ATOM      5  C   UNL     1      44.923   4.360  10.686  0.00  0.00    +0.000 A 
ATOM      6  C   UNL     1      44.914   3.568  11.832  0.00  0.00    +0.000 A 
ATOM      7  C   UNL     1      45.608   3.976  12.968  0.00  0.00    +0.000 A 
BRANCH   5   8
ATOM      8  O   UNL     1      44.318   4.025   9.506  0.00  0.00    +0.000 OA
BRANCH   8   9
ATOM      9  C   UNL     1      44.400   2.637   9.162  0.00  0.00    +0.000 C 
BRANCH   9  10
ATOM     10  C   UNL     1      45.541   2.416   8.201  0.00  0.00    +0.000 A 
ATOM     11  C   UNL     1      45.936   3.443   7.345  0.00  0.00    +0.000 A 
ATOM     12  C   UNL     1      47.015   3.231   6.495  0.00  0.00    +0.000 A 
ATOM     13  C   UNL     1      47.670   2.009   6.527  0.00  0.00    +0.000 A 
ATOM     14  C   UNL     1      47.223   1.044   7.415  0.00  0.00    +0.000 A 
ATOM     15  N   UNL     1      46.183   1.223   8.256  0.00  0.00    +0.000 NA
ENDBRANCH   9  10
ENDBRANCH   8   9
ENDBRANCH   5   8
ENDBRANCH   1   2
BRANCH   1  16
ATOM     16  N   UNL     1      48.292   6.315  13.848  0.00  0.00    +0.000 N 
ATOM     17  C   UNL     1      48.866   7.267  14.644  0.00  0.00    +0.000 C 
ATOM     18  O   UNL     1      48.435   7.524  15.765  0.00  0.00    +0.000 OA
ATOM     19  H   UNL     1      48.555   6.266  12.869  0.00  0.00    +0.000 HD
BRANCH  17  20
ATOM     20  C   UNL     1      50.070   7.916  14.115  0.00  0.00    +0.000 A 
ATOM     21  C   UNL     1      51.284   7.743  14.766  0.00  0.00    +0.000 A 
ATOM     22  S   UNL     1      52.585   8.546  14.009  0.00  0.00    +0.000 S 
ATOM     23  C   UNL     1      51.563   9.193  12.813  0.00  0.00    +0.000 A 
ATOM     24  N   UNL     1      52.048  10.022  11.851  0.00  0.00    +0.000 NA
ATOM     25  C   UNL     1      51.157  10.474  11.034  0.00  0.00    +0.000 A 
ATOM     26  N   UNL     1      49.824  10.158  11.082  0.00  0.00    +0.000 N 
ATOM     27  C   UNL     1      49.301   9.270  11.991  0.00  0.00    +0.000 A 
ATOM     28  O   UNL     1      48.130   8.910  11.939  0.00  0.00    +0.000 OA
ATOM     29  C   UNL     1      50.254   8.774  12.967  0.00  0.00    +0.000 A 
ATOM     30  H   UNL     1      49.185  10.523  10.390  0.00  0.00    +0.000 HD
ENDBRANCH  17  20
ENDBRANCH   1  16
BRANCH   1  32
ATOM     31  N   UNL     1      47.625   3.520  15.738  0.00  0.00    +0.000 NA
ATOM     32  C   UNL     1      47.386   4.457  15.094  0.00  0.00    +0.000 C 
ENDBRANCH   1  32
TORSDOF 7
ENDMDL
MODEL 6
REMARK VINA RESULT:    -7.384      2.405      3.930
REMARK INTER + INTRA:         -11.116
REMARK INTER:                  -9.992
REMARK INTRA:                  -1.125
REMARK UNBOUND:                -0.711
REMARK  Name = 
REMARK  7 active torsions:
REMARK  status: ('A' for Active; 'I' for Inactive)
REMARK    1  A    between atoms: C_2  and  C_3
REMARK    2  A    between atoms: C_3  and  N_4
REMARK    3  A    between atoms: C_3  and  C_17
REMARK    4  A    between atoms: C_5  and  C_7
REMARK    5  A    between atoms: C_20  and  O_21
REMARK    6  A    between atoms: O_21  and  C_22
REMARK    7  A    between atoms: C_22  and  C_23
REMARK                            x       y       z     vdW  Elec       q    Type
REMARK                         _______ _______ _______ _____ _____    ______ ____
ROOT
ATOM      1  C   UNL     1      47.187   4.413  15.704  0.00  0.00    +0.000 C 
ENDROOT
BRANCH   1   2
ATOM      2  C   UNL     1      46.712   4.726  14.294  0.00  0.00    +0.000 A 
ATOM      3  C   UNL     1      45.837   3.863  13.618  0.00  0.00    +0.000 A 
ATOM      4  C   UNL     1      45.400   4.171  12.325  0.00  0.00    +0.000 A 
ATOM      5  C   UNL     1      45.813   5.348  11.702  0.00  0.00    +0.000 A 
ATOM      6  C   UNL     1      46.707   6.195  12.354  0.00  0.00    +0.000 A 
ATOM      7  C   UNL     1      47.144   5.893  13.640  0.00  0.00    +0.000 A 
BRANCH   5   8
ATOM      8  O   UNL     1      45.286   5.582  10.462  0.00  0.00    +0.000 OA
BRANCH   8   9
ATOM      9  C   UNL     1      44.504   4.507   9.929  0.00  0.00    +0.000 C 
BRANCH   9  10
ATOM     10  C   UNL     1      45.332   3.707   8.956  0.00  0.00    +0.000 A 
ATOM     11  C   UNL     1      45.403   2.320   9.081  0.00  0.00    +0.000 A 
ATOM     12  C   UNL     1      46.140   1.599   8.150  0.00  0.00    +0.000 A 
ATOM     13  C   UNL     1      46.778   2.276   7.120  0.00  0.00    +0.000 A 
ATOM     14  C   UNL     1      46.648   3.655   7.059  0.00  0.00    +0.000 A 
ATOM     15  N   UNL     1      45.935   4.381   7.945  0.00  0.00    +0.000 NA
ENDBRANCH   9  10
ENDBRANCH   8   9
ENDBRANCH   5   8
ENDBRANCH   1   2
BRANCH   1  16
ATOM     16  N   UNL     1      47.934   5.542  16.238  0.00  0.00    +0.000 N 
ATOM     17  C   UNL     1      47.938   5.842  17.571  0.00  0.00    +0.000 C 
ATOM     18  O   UNL     1      47.391   5.121  18.401  0.00  0.00    +0.000 OA
ATOM     19  H   UNL     1      48.228   6.250  15.572  0.00  0.00    +0.000 HD
BRANCH  17  20
ATOM     20  C   UNL     1      48.695   7.035  17.966  0.00  0.00    +0.000 A 
ATOM     21  C   UNL     1      48.063   8.041  18.684  0.00  0.00    +0.000 A 
ATOM     22  S   UNL     1      49.090   9.344  19.081  0.00  0.00    +0.000 S 
ATOM     23  C   UNL     1      50.402   8.633  18.264  0.00  0.00    +0.000 A 
ATOM     24  N   UNL     1      51.604   9.264  18.187  0.00  0.00    +0.000 NA
ATOM     25  C   UNL     1      52.497   8.632  17.503  0.00  0.00    +0.000 A 
ATOM     26  N   UNL     1      52.302   7.416  16.900  0.00  0.00    +0.000 N 
ATOM     27  C   UNL     1      51.127   6.710  17.011  0.00  0.00    +0.000 A 
ATOM     28  O   UNL     1      51.017   5.572  16.567  0.00  0.00    +0.000 OA
ATOM     29  C   UNL     1      50.072   7.402  17.727  0.00  0.00    +0.000 A 
ATOM     30  H   UNL     1      53.056   6.961  16.406  0.00  0.00    +0.000 HD
ENDBRANCH  17  20
ENDBRANCH   1  16
BRANCH   1  32
ATOM     31  N   UNL     1      48.682   2.229  15.781  0.00  0.00    +0.000 NA
ATOM     32  C   UNL     1      48.026   3.186  15.725  0.00  0.00    +0.000 C 
ENDBRANCH   1  32
TORSDOF 7
ENDMDL
MODEL 7
REMARK VINA RESULT:    -7.305      2.288      4.179
REMARK INTER + INTRA:         -11.005
REMARK INTER:                  -9.953
REMARK INTRA:                  -1.052
REMARK UNBOUND:                -0.711
REMARK  Name = 
REMARK  7 active torsions:
REMARK  status: ('A' for Active; 'I' for Inactive)
REMARK    1  A    between atoms: C_2  and  C_3
REMARK    2  A    between atoms: C_3  and  N_4
REMARK    3  A    between atoms: C_3  and  C_17
REMARK    4  A    between atoms: C_5  and  C_7
REMARK    5  A    between atoms: C_20  and  O_21
REMARK    6  A    between atoms: O_21  and  C_22
REMARK    7  A    between atoms: C_22  and  C_23
REMARK                            x       y       z     vdW  Elec       q    Type
REMARK                         _______ _______ _______ _____ _____    ______ ____
ROOT
ATOM      1  C   UNL     1      47.143   4.876  15.166  0.00  0.00    +0.000 C 
ENDROOT
BRANCH   1   2
ATOM      2  C   UNL     1      46.464   4.858  13.806  0.00  0.00    +0.000 A 
ATOM      3  C   UNL     1      46.419   6.010  13.007  0.00  0.00    +0.000 A 
ATOM      4  C   UNL     1      45.800   5.976  11.753  0.00  0.00    +0.000 A 
ATOM      5  C   UNL     1      45.240   4.791  11.275  0.00  0.00    +0.000 A 
ATOM      6  C   UNL     1      45.252   3.651  12.075  0.00  0.00    +0.000 A 
ATOM      7  C   UNL     1      45.867   3.681  13.323  0.00  0.00    +0.000 A 
BRANCH   5   8
ATOM      8  O   UNL     1      44.708   4.850  10.016  0.00  0.00    +0.000 OA
BRANCH   8   9
ATOM      9  C   UNL     1      44.320   3.586   9.468  0.00  0.00    +0.000 C 
BRANCH   9  10
ATOM     10  C   UNL     1      45.372   3.102   8.502  0.00  0.00    +0.000 A 
ATOM     11  C   UNL     1      45.810   1.780   8.558  0.00  0.00    +0.000 A 
ATOM     12  C   UNL     1      46.752   1.345   7.634  0.00  0.00    +0.000 A 
ATOM     13  C   UNL     1      47.224   2.236   6.679  0.00  0.00    +0.000 A 
ATOM     14  C   UNL     1      46.728   3.530   6.683  0.00  0.00    +0.000 A 
ATOM     15  N   UNL     1      45.810   3.979   7.564  0.00  0.00    +0.000 NA
ENDBRANCH   9  10
ENDBRANCH   8   9
ENDBRANCH   5   8
ENDBRANCH   1   2
BRANCH   1  16
ATOM     16  N   UNL     1      48.139   5.936  15.210  0.00  0.00    +0.000 N 
ATOM     17  C   UNL     1      48.631   6.420  16.390  0.00  0.00    +0.000 C 
ATOM     18  O   UNL     1      48.331   5.922  17.472  0.00  0.00    +0.000 OA
ATOM     19  H   UNL     1      48.257   6.485  14.365  0.00  0.00    +0.000 HD
BRANCH  17  20
ATOM     20  C   UNL     1      49.595   7.520  16.290  0.00  0.00    +0.000 A 
ATOM     21  C   UNL     1      50.829   7.409  16.915  0.00  0.00    +0.000 A 
ATOM     22  S   UNL     1      51.837   8.766  16.681  0.00  0.00    +0.000 S 
ATOM     23  C   UNL     1      50.640   9.570  15.778  0.00  0.00    +0.000 A 
ATOM     24  N   UNL     1      50.850  10.825  15.298  0.00  0.00    +0.000 NA
ATOM     25  C   UNL     1      49.844  11.332  14.668  0.00  0.00    +0.000 A 
ATOM     26  N   UNL     1      48.650  10.691  14.461  0.00  0.00    +0.000 N 
ATOM     27  C   UNL     1      48.419   9.397  14.866  0.00  0.00    +0.000 A 
ATOM     28  O   UNL     1      47.389   8.803  14.564  0.00  0.00    +0.000 OA
ATOM     29  C   UNL     1      49.501   8.800  15.627  0.00  0.00    +0.000 A 
ATOM     30  H   UNL     1      47.915  11.135  13.930  0.00  0.00    +0.000 HD
ENDBRANCH  17  20
ENDBRANCH   1  16
BRANCH   1  32
ATOM     31  N   UNL     1      48.247   2.523  15.670  0.00  0.00    +0.000 NA
ATOM     32  C   UNL     1      47.775   3.564  15.465  0.00  0.00    +0.000 C 
ENDBRANCH   1  32
TORSDOF 7
ENDMDL
MODEL 8
REMARK VINA RESULT:    -7.094      3.418      7.927
REMARK INTER + INTRA:         -10.708
REMARK INTER:                  -9.555
REMARK INTRA:                  -1.152
REMARK UNBOUND:                -0.711
REMARK  Name = 
REMARK  7 active torsions:
REMARK  status: ('A' for Active; 'I' for Inactive)
REMARK    1  A    between atoms: C_2  and  C_3
REMARK    2  A    between atoms: C_3  and  N_4
REMARK    3  A    between atoms: C_3  and  C_17
REMARK    4  A    between atoms: C_5  and  C_7
REMARK    5  A    between atoms: C_20  and  O_21
REMARK    6  A    between atoms: O_21  and  C_22
REMARK    7  A    between atoms: C_22  and  C_23
REMARK                            x       y       z     vdW  Elec       q    Type
REMARK                         _______ _______ _______ _____ _____    ______ ____
ROOT
ATOM      1  C   UNL     1      48.437   7.594  12.590  0.00  0.00    +0.000 C 
ENDROOT
BRANCH   1   2
ATOM      2  C   UNL     1      48.802   7.070  13.970  0.00  0.00    +0.000 A 
ATOM      3  C   UNL     1      47.992   6.130  14.623  0.00  0.00    +0.000 A 
ATOM      4  C   UNL     1      48.347   5.649  15.888  0.00  0.00    +0.000 A 
ATOM      5  C   UNL     1      49.520   6.084  16.505  0.00  0.00    +0.000 A 
ATOM      6  C   UNL     1      50.313   7.042  15.877  0.00  0.00    +0.000 A 
ATOM      7  C   UNL     1      49.964   7.522  14.618  0.00  0.00    +0.000 A 
BRANCH   5   8
ATOM      8  O   UNL     1      49.803   5.512  17.715  0.00  0.00    +0.000 OA
BRANCH   8   9
ATOM      9  C   UNL     1      49.459   4.126  17.820  0.00  0.00    +0.000 C 
BRANCH   9  10
ATOM     10  C   UNL     1      50.711   3.286  17.789  0.00  0.00    +0.000 A 
ATOM     11  C   UNL     1      51.921   3.828  18.220  0.00  0.00    +0.000 A 
ATOM     12  C   UNL     1      53.055   3.024  18.220  0.00  0.00    +0.000 A 
ATOM     13  C   UNL     1      52.949   1.706  17.799  0.00  0.00    +0.000 A 
ATOM     14  C   UNL     1      51.707   1.241  17.397  0.00  0.00    +0.000 A 
ATOM     15  N   UNL     1      50.589   1.995  17.391  0.00  0.00    +0.000 NA
ENDBRANCH   9  10
ENDBRANCH   8   9
ENDBRANCH   5   8
ENDBRANCH   1   2
BRANCH   1  16
ATOM     16  N   UNL     1      47.679   6.587  11.863  0.00  0.00    +0.000 N 
ATOM     17  C   UNL     1      46.339   6.723  11.622  0.00  0.00    +0.000 C 
ATOM     18  O   UNL     1      45.725   7.743  11.922  0.00  0.00    +0.000 OA
ATOM     19  H   UNL     1      48.105   5.670  11.776  0.00  0.00    +0.000 HD
BRANCH  17  20
ATOM     20  C   UNL     1      45.690   5.612  10.918  0.00  0.00    +0.000 A 
ATOM     21  C   UNL     1      45.762   5.542   9.534  0.00  0.00    +0.000 A 
ATOM     22  S   UNL     1      44.975   4.178   8.877  0.00  0.00    +0.000 S 
ATOM     23  C   UNL     1      44.467   3.660  10.416  0.00  0.00    +0.000 A 
ATOM     24  N   UNL     1      43.701   2.547  10.563  0.00  0.00    +0.000 NA
ATOM     25  C   UNL     1      43.352   2.294  11.780  0.00  0.00    +0.000 A 
ATOM     26  N   UNL     1      43.714   3.046  12.868  0.00  0.00    +0.000 N 
ATOM     27  C   UNL     1      44.545   4.137  12.775  0.00  0.00    +0.000 A 
ATOM     28  O   UNL     1      44.952   4.721  13.773  0.00  0.00    +0.000 OA
ATOM     29  C   UNL     1      44.922   4.496  11.420  0.00  0.00    +0.000 A 
ATOM     30  H   UNL     1      43.432   2.771  13.797  0.00  0.00    +0.000 HD
ENDBRANCH  17  20
ENDBRANCH   1  16
BRANCH   1  32
ATOM     31  N   UNL     1      50.579   8.297  11.203  0.00  0.00    +0.000 NA
ATOM     32  C   UNL     1      49.652   7.975  11.824  0.00  0.00    +0.000 C 
ENDBRANCH   1  32
TORSDOF 7
ENDMDL
MODEL 9
REMARK VINA RESULT:    -6.811      3.239      5.120
REMARK INTER + INTRA:         -10.309
REMARK INTER:                  -9.115
REMARK INTRA:                  -1.195
REMARK UNBOUND:                -0.711
REMARK  Name = 
REMARK  7 active torsions:
REMARK  status: ('A' for Active; 'I' for Inactive)
REMARK    1  A    between atoms: C_2  and  C_3
REMARK    2  A    between atoms: C_3  and  N_4
REMARK    3  A    between atoms: C_3  and  C_17
REMARK    4  A    between atoms: C_5  and  C_7
REMARK    5  A    between atoms: C_20  and  O_21
REMARK    6  A    between atoms: O_21  and  C_22
REMARK    7  A    between atoms: C_22  and  C_23
REMARK                            x       y       z     vdW  Elec       q    Type
REMARK                         _______ _______ _______ _____ _____    ______ ____
ROOT
ATOM      1  C   UNL     1      49.094   6.128  18.088  0.00  0.00    +0.000 C 
ENDROOT
BRANCH   1   2
ATOM      2  C   UNL     1      48.403   5.604  16.839  0.00  0.00    +0.000 A 
ATOM      3  C   UNL     1      47.691   4.395  16.861  0.00  0.00    +0.000 A 
ATOM      4  C   UNL     1      47.051   3.932  15.706  0.00  0.00    +0.000 A 
ATOM      5  C   UNL     1      47.097   4.675  14.527  0.00  0.00    +0.000 A 
ATOM      6  C   UNL     1      47.828   5.860  14.488  0.00  0.00    +0.000 A 
ATOM      7  C   UNL     1      48.466   6.325  15.635  0.00  0.00    +0.000 A 
BRANCH   5   8
ATOM      8  O   UNL     1      46.394   4.161  13.473  0.00  0.00    +0.000 OA
BRANCH   8   9
ATOM      9  C   UNL     1      45.561   5.104  12.789  0.00  0.00    +0.000 C 
BRANCH   9  10
ATOM     10  C   UNL     1      45.211   4.578  11.420  0.00  0.00    +0.000 A 
ATOM     11  C   UNL     1      45.641   5.261  10.284  0.00  0.00    +0.000 A 
ATOM     12  C   UNL     1      45.340   4.738   9.032  0.00  0.00    +0.000 A 
ATOM     13  C   UNL     1      44.627   3.551   8.949  0.00  0.00    +0.000 A 
ATOM     14  C   UNL     1      44.246   2.927  10.126  0.00  0.00    +0.000 A 
ATOM     15  N   UNL     1      44.529   3.407  11.355  0.00  0.00    +0.000 NA
ENDBRANCH   9  10
ENDBRANCH   8   9
ENDBRANCH   5   8
ENDBRANCH   1   2
BRANCH   1  16
ATOM     16  N   UNL     1      50.170   5.228  18.474  0.00  0.00    +0.000 N 
ATOM     17  C   UNL     1      51.411   5.296  17.904  0.00  0.00    +0.000 C 
ATOM     18  O   UNL     1      51.713   6.181  17.107  0.00  0.00    +0.000 OA
ATOM     19  H   UNL     1      49.903   4.385  18.973  0.00  0.00    +0.000 HD
BRANCH  17  20
ATOM     20  C   UNL     1      52.388   4.298  18.352  0.00  0.00    +0.000 A 
ATOM     21  C   UNL     1      53.478   4.699  19.112  0.00  0.00    +0.000 A 
ATOM     22  S   UNL     1      54.502   3.414  19.569  0.00  0.00    +0.000 S 
ATOM     23  C   UNL     1      53.552   2.283  18.724  0.00  0.00    +0.000 A 
ATOM     24  N   UNL     1      53.902   0.970  18.677  0.00  0.00    +0.000 NA
ATOM     25  C   UNL     1      53.117   0.232  17.967  0.00  0.00    +0.000 A 
ATOM     26  N   UNL     1      52.002   0.685  17.311  0.00  0.00    +0.000 N 
ATOM     27  C   UNL     1      51.571   1.988  17.389  0.00  0.00    +0.000 A 
ATOM     28  O   UNL     1      50.506   2.343  16.894  0.00  0.00    +0.000 OA
ATOM     29  C   UNL     1      52.449   2.872  18.132  0.00  0.00    +0.000 A 
ATOM     30  H   UNL     1      51.413   0.045  16.799  0.00  0.00    +0.000 HD
ENDBRANCH  17  20
ENDBRANCH   1  16
BRANCH   1  32
ATOM     31  N   UNL     1      47.399   6.385  20.105  0.00  0.00    +0.000 NA
ATOM     32  C   UNL     1      48.129   6.285  19.207  0.00  0.00    +0.000 C 
ENDBRANCH   1  32
TORSDOF 7
ENDMDL
