MODEL 1
REMARK VINA RESULT:    -8.276      0.000      0.000
REMARK INTER + INTRA:         -14.289
REMARK INTER:                 -13.356
REMARK INTRA:                  -0.933
REMARK UNBOUND:                -0.933
REMARK  Name = 
REMARK  12 active torsions:
REMARK  status: ('A' for Active; 'I' for Inactive)
REMARK    1  A    between atoms: C_1  and  O_2
REMARK    2  A    between atoms: O_2  and  C_3
REMARK    3  A    between atoms: C_10  and  C_11
REMARK    4  A    between atoms: N_13  and  C_14
REMARK    5  A    between atoms: C_14  and  C_15
REMARK    6  A    between atoms: C_18  and  C_19
REMARK    7  A    between atoms: C_19  and  N_20
REMARK    8  A    between atoms: N_20  and  C_21
REMARK    9  A    between atoms: C_21  and  C_22
REMARK   10  A    between atoms: C_21  and  C_25
REMARK   11  A    between atoms: C_22  and  C_23
REMARK   12  A    between atoms: C_23  and  O_24
REMARK                            x       y       z     vdW  Elec       q    Type
REMARK                         _______ _______ _______ _____ _____    ______ ____
ROOT
ATOM      1  C   UNL     1      46.600   7.762  12.686  0.00  0.00    +0.000 A 
ATOM      2  C   UNL     1      45.274   8.201  12.576  0.00  0.00    +0.000 A 
ATOM      3  C   UNL     1      44.362   7.520  11.759  0.00  0.00    +0.000 A 
ATOM      4  C   UNL     1      44.753   6.379  11.041  0.00  0.00    +0.000 A 
ATOM      5  C   UNL     1      46.088   5.963  11.128  0.00  0.00    +0.000 A 
ATOM      6  C   UNL     1      46.999   6.642  11.945  0.00  0.00    +0.000 A 
ENDROOT
BRANCH   1   7
ATOM      7  C   UNL     1      47.563   8.435  13.629  0.00  0.00    +0.000 C 
BRANCH   7  10
ATOM      8  C   UNL     1      49.030   6.982  14.958  0.00  0.00    +0.000 C 
ATOM      9  O   UNL     1      49.922   7.089  14.118  0.00  0.00    +0.000 OA
ATOM     10  N   UNL     1      47.826   7.612  14.788  0.00  0.00    +0.000 N 
ATOM     11  H   UNL     1      47.081   7.485  15.461  0.00  0.00    +0.000 HD
BRANCH   8  19
ATOM     12  C   UNL     1      47.348   4.294  16.320  0.00  0.00    +0.000 A 
ATOM     13  N   UNL     1      46.900   3.261  17.061  0.00  0.00    +0.000 NA
ATOM     14  C   UNL     1      47.548   2.962  18.190  0.00  0.00    +0.000 A 
ATOM     15  N   UNL     1      48.616   3.582  18.684  0.00  0.00    +0.000 NA
ATOM     16  C   UNL     1      49.037   4.601  17.910  0.00  0.00    +0.000 A 
ATOM     17  S   UNL     1      50.390   5.504  18.392  0.00  0.00    +0.000 S 
ATOM     18  C   UNL     1      50.273   6.496  17.020  0.00  0.00    +0.000 A 
ATOM     19  C   UNL     1      49.222   6.169  16.171  0.00  0.00    +0.000 A 
ATOM     20  C   UNL     1      48.479   5.031  16.712  0.00  0.00    +0.000 A 
BRANCH  12  22
ATOM     21  C   UNL     1      47.009   3.642  14.104  0.00  0.00    +0.000 C 
ATOM     22  O   UNL     1      46.697   4.574  15.138  0.00  0.00    +0.000 OA
ENDBRANCH  12  22
ENDBRANCH   8  19
ENDBRANCH   7  10
ENDBRANCH   1   7
BRANCH   4  23
ATOM     23  C   UNL     1      43.739   5.560  10.264  0.00  0.00    +0.000 C 
BRANCH  23  24
ATOM     24  N   UNL     1      44.359   4.814   9.170  0.00  0.00    +0.000 NA
ATOM     25  H   UNL     1      45.087   5.417   8.785  0.00  0.00    +0.000 HD
BRANCH  24  26
ATOM     26  C   UNL     1      45.009   3.547   9.578  0.00  0.00    +0.000 C 
BRANCH  26  27
ATOM     27  C   UNL     1      45.795   2.912   8.417  0.00  0.00    +0.000 A 
ATOM     28  C   UNL     1      46.146   1.550   8.401  0.00  0.00    +0.000 A 
ATOM     29  C   UNL     1      46.830   0.985   7.322  0.00  0.00    +0.000 A 
ATOM     30  C   UNL     1      47.200   1.774   6.240  0.00  0.00    +0.000 A 
ATOM     31  C   UNL     1      46.876   3.127   6.233  0.00  0.00    +0.000 A 
ATOM     32  C   UNL     1      46.169   3.688   7.302  0.00  0.00    +0.000 A 
ENDBRANCH  26  27
BRANCH  26  33
ATOM     33  C   UNL     1      44.046   2.530  10.240  0.00  0.00    +0.000 C 
BRANCH  33  34
ATOM     34  C   UNL     1      43.602   2.894  11.651  0.00  0.00    +0.000 C 
BRANCH  34  35
ATOM     35  O   UNL     1      43.358   1.695  12.391  0.00  0.00    +0.000 OA
ATOM     36  H   UNL     1      44.034   1.049  12.118  0.00  0.00    +0.000 HD
ENDBRANCH  34  35
ENDBRANCH  33  34
ENDBRANCH  26  33
ENDBRANCH  24  26
ENDBRANCH  23  24
ENDBRANCH   4  23
TORSDOF 11
ENDMDL
MODEL 2
REMARK VINA RESULT:    -8.085      1.342      1.712
REMARK INTER + INTRA:         -13.981
REMARK INTER:                 -12.580
REMARK INTRA:                  -1.401
REMARK UNBOUND:                -0.933
REMARK  Name = 
REMARK  12 active torsions:
REMARK  status: ('A' for Active; 'I' for Inactive)
REMARK    1  A    between atoms: C_1  and  O_2
REMARK    2  A    between atoms: O_2  and  C_3
REMARK    3  A    between atoms: C_10  and  C_11
REMARK    4  A    between atoms: N_13  and  C_14
REMARK    5  A    between atoms: C_14  and  C_15
REMARK    6  A    between atoms: C_18  and  C_19
REMARK    7  A    between atoms: C_19  and  N_20
REMARK    8  A    between atoms: N_20  and  C_21
REMARK    9  A    between atoms: C_21  and  C_22
REMARK   10  A    between atoms: C_21  and  C_25
REMARK   11  A    between atoms: C_22  and  C_23
REMARK   12  A    between atoms: C_23  and  O_24
REMARK                            x       y       z     vdW  Elec       q    Type
REMARK                         _______ _______ _______ _____ _____    ______ ____
ROOT
ATOM      1  C   UNL     1      46.741   8.074  12.770  0.00  0.00    +0.000 A 
ATOM      2  C   UNL     1      45.802   8.812  12.037  0.00  0.00    +0.000 A 
ATOM      3  C   UNL     1      44.682   8.184  11.476  0.00  0.00    +0.000 A 
ATOM      4  C   UNL     1      44.470   6.807  11.642  0.00  0.00    +0.000 A 
ATOM      5  C   UNL     1      45.428   6.067  12.348  0.00  0.00    +0.000 A 
ATOM      6  C   UNL     1      46.547   6.693  12.910  0.00  0.00    +0.000 A 
ENDROOT
BRANCH   1   7
ATOM      7  C   UNL     1      47.900   8.754  13.451  0.00  0.00    +0.000 C 
BRANCH   7  10
ATOM      8  C   UNL     1      48.864   7.571  15.375  0.00  0.00    +0.000 C 
ATOM      9  O   UNL     1      49.684   7.019  14.643  0.00  0.00    +0.000 OA
ATOM     10  N   UNL     1      47.938   8.441  14.862  0.00  0.00    +0.000 N 
ATOM     11  H   UNL     1      47.238   8.857  15.461  0.00  0.00    +0.000 HD
BRANCH   8  19
ATOM     12  C   UNL     1      48.546   4.714  17.285  0.00  0.00    +0.000 A 
ATOM     13  N   UNL     1      48.450   3.786  18.258  0.00  0.00    +0.000 NA
ATOM     14  C   UNL     1      48.493   4.194  19.529  0.00  0.00    +0.000 A 
ATOM     15  N   UNL     1      48.624   5.445  19.961  0.00  0.00    +0.000 NA
ATOM     16  C   UNL     1      48.726   6.339  18.959  0.00  0.00    +0.000 A 
ATOM     17  S   UNL     1      48.898   7.985  19.331  0.00  0.00    +0.000 S 
ATOM     18  C   UNL     1      48.949   8.399  17.686  0.00  0.00    +0.000 A 
ATOM     19  C   UNL     1      48.843   7.312  16.825  0.00  0.00    +0.000 A 
ATOM     20  C   UNL     1      48.705   6.077  17.595  0.00  0.00    +0.000 A 
BRANCH  12  22
ATOM     21  C   UNL     1      47.218   4.142  15.452  0.00  0.00    +0.000 C 
ATOM     22  O   UNL     1      48.538   4.284  15.975  0.00  0.00    +0.000 OA
ENDBRANCH  12  22
ENDBRANCH   8  19
ENDBRANCH   7  10
ENDBRANCH   1   7
BRANCH   4  23
ATOM     23  C   UNL     1      43.193   6.148  11.155  0.00  0.00    +0.000 C 
BRANCH  23  24
ATOM     24  N   UNL     1      43.445   5.194  10.076  0.00  0.00    +0.000 NA
ATOM     25  H   UNL     1      43.978   5.696   9.364  0.00  0.00    +0.000 HD
BRANCH  24  26
ATOM     26  C   UNL     1      44.247   4.014  10.472  0.00  0.00    +0.000 C 
BRANCH  26  27
ATOM     27  C   UNL     1      45.111   3.496   9.307  0.00  0.00    +0.000 A 
ATOM     28  C   UNL     1      45.708   4.361   8.371  0.00  0.00    +0.000 A 
ATOM     29  C   UNL     1      46.516   3.874   7.341  0.00  0.00    +0.000 A 
ATOM     30  C   UNL     1      46.730   2.507   7.208  0.00  0.00    +0.000 A 
ATOM     31  C   UNL     1      46.144   1.628   8.113  0.00  0.00    +0.000 A 
ATOM     32  C   UNL     1      45.355   2.116   9.160  0.00  0.00    +0.000 A 
ENDBRANCH  26  27
BRANCH  26  33
ATOM     33  C   UNL     1      43.416   2.875  11.117  0.00  0.00    +0.000 C 
BRANCH  33  34
ATOM     34  C   UNL     1      43.750   2.586  12.574  0.00  0.00    +0.000 C 
BRANCH  34  35
ATOM     35  O   UNL     1      45.166   2.647  12.754  0.00  0.00    +0.000 OA
ATOM     36  H   UNL     1      45.325   2.970  13.660  0.00  0.00    +0.000 HD
ENDBRANCH  34  35
ENDBRANCH  33  34
ENDBRANCH  26  33
ENDBRANCH  24  26
ENDBRANCH  23  24
ENDBRANCH   4  23
TORSDOF 11
ENDMDL
MODEL 3
REMARK VINA RESULT:    -7.752      2.216      2.999
REMARK INTER + INTRA:         -13.443
REMARK INTER:                 -12.259
REMARK INTRA:                  -1.184
REMARK UNBOUND:                -0.933
REMARK  Name = 
REMARK  12 active torsions:
REMARK  status: ('A' for Active; 'I' for Inactive)
REMARK    1  A    between atoms: C_1  and  O_2
REMARK    2  A    between atoms: O_2  and  C_3
REMARK    3  A    between atoms: C_10  and  C_11
REMARK    4  A    between atoms: N_13  and  C_14
REMARK    5  A    between atoms: C_14  and  C_15
REMARK    6  A    between atoms: C_18  and  C_19
REMARK    7  A    between atoms: C_19  and  N_20
REMARK    8  A    between atoms: N_20  and  C_21
REMARK    9  A    between atoms: C_21  and  C_22
REMARK   10  A    between atoms: C_21  and  C_25
REMARK   11  A    between atoms: C_22  and  C_23
REMARK   12  A    between atoms: C_23  and  O_24
REMARK                            x       y       z     vdW  Elec       q    Type
REMARK                         _______ _______ _______ _____ _____    ______ ____
ROOT
ATOM      1  C   UNL     1      47.600   6.533  13.141  0.00  0.00    +0.000 A 
ATOM      2  C   UNL     1      47.483   6.993  11.823  0.00  0.00    +0.000 A 
ATOM      3  C   UNL     1      46.391   6.618  11.030  0.00  0.00    +0.000 A 
ATOM      4  C   UNL     1      45.385   5.782  11.540  0.00  0.00    +0.000 A 
ATOM      5  C   UNL     1      45.522   5.298  12.848  0.00  0.00    +0.000 A 
ATOM      6  C   UNL     1      46.613   5.673  13.641  0.00  0.00    +0.000 A 
ENDROOT
BRANCH   1   7
ATOM      7  C   UNL     1      48.723   7.002  14.029  0.00  0.00    +0.000 C 
BRANCH   7  10
ATOM      8  C   UNL     1      49.335   6.395  16.328  0.00  0.00    +0.000 C 
ATOM      9  O   UNL     1      50.482   6.133  15.969  0.00  0.00    +0.000 OA
ATOM     10  N   UNL     1      48.398   6.825  15.426  0.00  0.00    +0.000 N 
ATOM     11  H   UNL     1      47.445   6.996  15.719  0.00  0.00    +0.000 HD
BRANCH   8  19
ATOM     12  C   UNL     1      47.884   8.524  18.624  0.00  0.00    +0.000 A 
ATOM     13  N   UNL     1      47.332   9.120  19.700  0.00  0.00    +0.000 NA
ATOM     14  C   UNL     1      47.215   8.412  20.826  0.00  0.00    +0.000 A 
ATOM     15  N   UNL     1      47.589   7.150  21.018  0.00  0.00    +0.000 NA
ATOM     16  C   UNL     1      48.126   6.589  19.918  0.00  0.00    +0.000 A 
ATOM     17  S   UNL     1      48.660   4.980  19.984  0.00  0.00    +0.000 S 
ATOM     18  C   UNL     1      49.155   5.029  18.362  0.00  0.00    +0.000 A 
ATOM     19  C   UNL     1      48.927   6.250  17.736  0.00  0.00    +0.000 A 
ATOM     20  C   UNL     1      48.311   7.185  18.676  0.00  0.00    +0.000 A 
BRANCH  12  22
ATOM     21  C   UNL     1      49.176  10.004  17.363  0.00  0.00    +0.000 C 
ATOM     22  O   UNL     1      47.970   9.248  17.454  0.00  0.00    +0.000 OA
ENDBRANCH  12  22
ENDBRANCH   8  19
ENDBRANCH   7  10
ENDBRANCH   1   7
BRANCH   4  23
ATOM     23  C   UNL     1      44.134   5.483  10.735  0.00  0.00    +0.000 C 
BRANCH  23  24
ATOM     24  N   UNL     1      44.435   4.753   9.505  0.00  0.00    +0.000 NA
ATOM     25  H   UNL     1      45.136   5.302   9.006  0.00  0.00    +0.000 HD
BRANCH  24  26
ATOM     26  C   UNL     1      45.003   3.401   9.713  0.00  0.00    +0.000 C 
BRANCH  26  27
ATOM     27  C   UNL     1      45.762   2.905   8.469  0.00  0.00    +0.000 A 
ATOM     28  C   UNL     1      46.103   3.761   7.405  0.00  0.00    +0.000 A 
ATOM     29  C   UNL     1      46.821   3.299   6.299  0.00  0.00    +0.000 A 
ATOM     30  C   UNL     1      47.199   1.963   6.221  0.00  0.00    +0.000 A 
ATOM     31  C   UNL     1      46.866   1.093   7.253  0.00  0.00    +0.000 A 
ATOM     32  C   UNL     1      46.169   1.560   8.372  0.00  0.00    +0.000 A 
ENDBRANCH  26  27
BRANCH  26  33
ATOM     33  C   UNL     1      43.973   2.355  10.209  0.00  0.00    +0.000 C 
BRANCH  33  34
ATOM     34  C   UNL     1      43.256   2.725  11.501  0.00  0.00    +0.000 C 
BRANCH  34  35
ATOM     35  O   UNL     1      43.985   2.197  12.611  0.00  0.00    +0.000 OA
ATOM     36  H   UNL     1      44.202   1.272  12.396  0.00  0.00    +0.000 HD
ENDBRANCH  34  35
ENDBRANCH  33  34
ENDBRANCH  26  33
ENDBRANCH  24  26
ENDBRANCH  23  24
ENDBRANCH   4  23
TORSDOF 11
ENDMDL
MODEL 4
REMARK VINA RESULT:    -7.619      2.418      3.295
REMARK INTER + INTRA:         -13.229
REMARK INTER:                 -11.582
REMARK INTRA:                  -1.647
REMARK UNBOUND:                -0.933
REMARK  Name = 
REMARK  12 active torsions:
REMARK  status: ('A' for Active; 'I' for Inactive)
REMARK    1  A    between atoms: C_1  and  O_2
REMARK    2  A    between atoms: O_2  and  C_3
REMARK    3  A    between atoms: C_10  and  C_11
REMARK    4  A    between atoms: N_13  and  C_14
REMARK    5  A    between atoms: C_14  and  C_15
REMARK    6  A    between atoms: C_18  and  C_19
REMARK    7  A    between atoms: C_19  and  N_20
REMARK    8  A    between atoms: N_20  and  C_21
REMARK    9  A    between atoms: C_21  and  C_22
REMARK   10  A    between atoms: C_21  and  C_25
REMARK   11  A    between atoms: C_22  and  C_23
REMARK   12  A    between atoms: C_23  and  O_24
REMARK                            x       y       z     vdW  Elec       q    Type
REMARK                         _______ _______ _______ _____ _____    ______ ____
ROOT
ATOM      1  C   UNL     1      47.825   6.410  14.296  0.00  0.00    +0.000 A 
ATOM      2  C   UNL     1      47.528   5.220  14.973  0.00  0.00    +0.000 A 
ATOM      3  C   UNL     1      46.778   4.214  14.351  0.00  0.00    +0.000 A 
ATOM      4  C   UNL     1      46.316   4.370  13.034  0.00  0.00    +0.000 A 
ATOM      5  C   UNL     1      46.588   5.575  12.372  0.00  0.00    +0.000 A 
ATOM      6  C   UNL     1      47.338   6.580  12.993  0.00  0.00    +0.000 A 
ENDROOT
BRANCH   1   7
ATOM      7  C   UNL     1      48.704   7.460  14.924  0.00  0.00    +0.000 C 
BRANCH   7  10
ATOM      8  C   UNL     1      50.070   6.631  16.788  0.00  0.00    +0.000 C 
ATOM      9  O   UNL     1      49.175   6.905  17.585  0.00  0.00    +0.000 OA
ATOM     10  N   UNL     1      49.920   6.882  15.450  0.00  0.00    +0.000 N 
ATOM     11  H   UNL     1      50.677   6.696  14.805  0.00  0.00    +0.000 HD
BRANCH   8  19
ATOM     12  C   UNL     1      51.087   3.393  17.414  0.00  0.00    +0.000 A 
ATOM     13  N   UNL     1      51.743   2.257  17.723  0.00  0.00    +0.000 NA
ATOM     14  C   UNL     1      53.012   2.348  18.126  0.00  0.00    +0.000 A 
ATOM     15  N   UNL     1      53.728   3.460  18.263  0.00  0.00    +0.000 NA
ATOM     16  C   UNL     1      53.041   4.571  17.936  0.00  0.00    +0.000 A 
ATOM     17  S   UNL     1      53.802   6.083  18.054  0.00  0.00    +0.000 S 
ATOM     18  C   UNL     1      52.401   6.880  17.524  0.00  0.00    +0.000 A 
ATOM     19  C   UNL     1      51.336   6.031  17.243  0.00  0.00    +0.000 A 
ATOM     20  C   UNL     1      51.724   4.644  17.496  0.00  0.00    +0.000 A 
BRANCH  12  22
ATOM     21  C   UNL     1      48.838   3.268  18.027  0.00  0.00    +0.000 C 
ATOM     22  O   UNL     1      49.788   3.290  16.963  0.00  0.00    +0.000 OA
ENDBRANCH  12  22
ENDBRANCH   8  19
ENDBRANCH   7  10
ENDBRANCH   1   7
BRANCH   4  23
ATOM     23  C   UNL     1      45.623   3.231  12.309  0.00  0.00    +0.000 C 
BRANCH  23  24
ATOM     24  N   UNL     1      44.172   3.403  12.279  0.00  0.00    +0.000 NA
ATOM     25  H   UNL     1      43.955   4.152  12.938  0.00  0.00    +0.000 HD
BRANCH  24  26
ATOM     26  C   UNL     1      43.626   3.805  10.962  0.00  0.00    +0.000 C 
BRANCH  26  27
ATOM     27  C   UNL     1      44.579   3.428   9.813  0.00  0.00    +0.000 A 
ATOM     28  C   UNL     1      44.845   2.092   9.463  0.00  0.00    +0.000 A 
ATOM     29  C   UNL     1      45.686   1.771   8.395  0.00  0.00    +0.000 A 
ATOM     30  C   UNL     1      46.301   2.780   7.663  0.00  0.00    +0.000 A 
ATOM     31  C   UNL     1      46.065   4.111   7.994  0.00  0.00    +0.000 A 
ATOM     32  C   UNL     1      45.203   4.433   9.047  0.00  0.00    +0.000 A 
ENDBRANCH  26  27
BRANCH  26  33
ATOM     33  C   UNL     1      43.198   5.292  10.885  0.00  0.00    +0.000 C 
BRANCH  33  34
ATOM     34  C   UNL     1      42.219   5.733  11.965  0.00  0.00    +0.000 C 
BRANCH  34  35
ATOM     35  O   UNL     1      42.902   5.803  13.219  0.00  0.00    +0.000 OA
ATOM     36  H   UNL     1      43.152   4.892  13.459  0.00  0.00    +0.000 HD
ENDBRANCH  34  35
ENDBRANCH  33  34
ENDBRANCH  26  33
ENDBRANCH  24  26
ENDBRANCH  23  24
ENDBRANCH   4  23
TORSDOF 11
ENDMDL
MODEL 5
REMARK VINA RESULT:    -7.449      3.327      4.842
REMARK INTER + INTRA:         -12.954
REMARK INTER:                 -11.440
REMARK INTRA:                  -1.514
REMARK UNBOUND:                -0.933
REMARK  Name = 
REMARK  12 active torsions:
REMARK  status: ('A' for Active; 'I' for Inactive)
REMARK    1  A    between atoms: C_1  and  O_2
REMARK    2  A    between atoms: O_2  and  C_3
REMARK    3  A    between atoms: C_10  and  C_11
REMARK    4  A    between atoms: N_13  and  C_14
REMARK    5  A    between atoms: C_14  and  C_15
REMARK    6  A    between atoms: C_18  and  C_19
REMARK    7  A    between atoms: C_19  and  N_20
REMARK    8  A    between atoms: N_20  and  C_21
REMARK    9  A    between atoms: C_21  and  C_22
REMARK   10  A    between atoms: C_21  and  C_25
REMARK   11  A    between atoms: C_22  and  C_23
REMARK   12  A    between atoms: C_23  and  O_24
REMARK                            x       y       z     vdW  Elec       q    Type
REMARK                         _______ _______ _______ _____ _____    ______ ____
ROOT
ATOM      1  C   UNL     1      48.307   5.482  16.016  0.00  0.00    +0.000 A 
ATOM      2  C   UNL     1      48.509   6.435  15.008  0.00  0.00    +0.000 A 
ATOM      3  C   UNL     1      47.798   6.360  13.803  0.00  0.00    +0.000 A 
ATOM      4  C   UNL     1      46.863   5.337  13.581  0.00  0.00    +0.000 A 
ATOM      5  C   UNL     1      46.688   4.368  14.579  0.00  0.00    +0.000 A 
ATOM      6  C   UNL     1      47.397   4.443  15.783  0.00  0.00    +0.000 A 
ENDROOT
BRANCH   1   7
ATOM      7  C   UNL     1      49.001   5.605  17.348  0.00  0.00    +0.000 C 
BRANCH   7  10
ATOM      8  C   UNL     1      50.244   3.540  17.811  0.00  0.00    +0.000 C 
ATOM      9  O   UNL     1      49.216   2.992  18.205  0.00  0.00    +0.000 OA
ATOM     10  N   UNL     1      50.225   4.838  17.376  0.00  0.00    +0.000 N 
ATOM     11  H   UNL     1      51.082   5.297  17.094  0.00  0.00    +0.000 HD
BRANCH   8  19
ATOM     12  C   UNL     1      53.504   4.477  18.447  0.00  0.00    +0.000 A 
ATOM     13  N   UNL     1      54.836   4.558  18.639  0.00  0.00    +0.000 NA
ATOM     14  C   UNL     1      55.571   3.459  18.454  0.00  0.00    +0.000 A 
ATOM     15  N   UNL     1      55.132   2.257  18.091  0.00  0.00    +0.000 NA
ATOM     16  C   UNL     1      53.797   2.216  17.919  0.00  0.00    +0.000 A 
ATOM     17  S   UNL     1      53.065   0.757  17.454  0.00  0.00    +0.000 S 
ATOM     18  C   UNL     1      51.528   1.477  17.448  0.00  0.00    +0.000 A 
ATOM     19  C   UNL     1      51.530   2.823  17.799  0.00  0.00    +0.000 A 
ATOM     20  C   UNL     1      52.897   3.263  18.078  0.00  0.00    +0.000 A 
BRANCH  12  22
ATOM     21  C   UNL     1      52.644   5.928  20.062  0.00  0.00    +0.000 C 
ATOM     22  O   UNL     1      52.745   5.605  18.676  0.00  0.00    +0.000 OA
ENDBRANCH  12  22
ENDBRANCH   8  19
ENDBRANCH   7  10
ENDBRANCH   1   7
BRANCH   4  23
ATOM     23  C   UNL     1      45.994   5.328  12.338  0.00  0.00    +0.000 C 
BRANCH  23  24
ATOM     24  N   UNL     1      45.172   4.122  12.251  0.00  0.00    +0.000 NA
ATOM     25  H   UNL     1      44.607   4.095  13.101  0.00  0.00    +0.000 HD
BRANCH  24  26
ATOM     26  C   UNL     1      44.238   4.094  11.102  0.00  0.00    +0.000 C 
BRANCH  26  27
ATOM     27  C   UNL     1      44.938   3.625   9.813  0.00  0.00    +0.000 A 
ATOM     28  C   UNL     1      45.419   4.527   8.846  0.00  0.00    +0.000 A 
ATOM     29  C   UNL     1      46.080   4.082   7.699  0.00  0.00    +0.000 A 
ATOM     30  C   UNL     1      46.259   2.721   7.480  0.00  0.00    +0.000 A 
ATOM     31  C   UNL     1      45.785   1.806   8.414  0.00  0.00    +0.000 A 
ATOM     32  C   UNL     1      45.144   2.251   9.575  0.00  0.00    +0.000 A 
ENDBRANCH  26  27
BRANCH  26  33
ATOM     33  C   UNL     1      43.469   5.422  10.883  0.00  0.00    +0.000 C 
BRANCH  33  34
ATOM     34  C   UNL     1      42.272   5.626  11.802  0.00  0.00    +0.000 C 
BRANCH  34  35
ATOM     35  O   UNL     1      42.721   5.663  13.158  0.00  0.00    +0.000 OA
ATOM     36  H   UNL     1      43.688   5.543  13.142  0.00  0.00    +0.000 HD
ENDBRANCH  34  35
ENDBRANCH  33  34
ENDBRANCH  26  33
ENDBRANCH  24  26
ENDBRANCH  23  24
ENDBRANCH   4  23
TORSDOF 11
ENDMDL
MODEL 6
REMARK VINA RESULT:    -7.076      2.503      3.557
REMARK INTER + INTRA:         -12.352
REMARK INTER:                 -10.843
REMARK INTRA:                  -1.508
REMARK UNBOUND:                -0.933
REMARK  Name = 
REMARK  12 active torsions:
REMARK  status: ('A' for Active; 'I' for Inactive)
REMARK    1  A    between atoms: C_1  and  O_2
REMARK    2  A    between atoms: O_2  and  C_3
REMARK    3  A    between atoms: C_10  and  C_11
REMARK    4  A    between atoms: N_13  and  C_14
REMARK    5  A    between atoms: C_14  and  C_15
REMARK    6  A    between atoms: C_18  and  C_19
REMARK    7  A    between atoms: C_19  and  N_20
REMARK    8  A    between atoms: N_20  and  C_21
REMARK    9  A    between atoms: C_21  and  C_22
REMARK   10  A    between atoms: C_21  and  C_25
REMARK   11  A    between atoms: C_22  and  C_23
REMARK   12  A    between atoms: C_23  and  O_24
REMARK                            x       y       z     vdW  Elec       q    Type
REMARK                         _______ _______ _______ _____ _____    ______ ____
ROOT
ATOM      1  C   UNL     1      49.004   7.920  15.305  0.00  0.00    +0.000 A 
ATOM      2  C   UNL     1      48.052   8.920  15.063  0.00  0.00    +0.000 A 
ATOM      3  C   UNL     1      47.128   8.788  14.019  0.00  0.00    +0.000 A 
ATOM      4  C   UNL     1      47.127   7.650  13.198  0.00  0.00    +0.000 A 
ATOM      5  C   UNL     1      48.101   6.667  13.422  0.00  0.00    +0.000 A 
ATOM      6  C   UNL     1      49.024   6.798  14.466  0.00  0.00    +0.000 A 
ENDROOT
BRANCH   1   7
ATOM      7  C   UNL     1      49.944   8.012  16.479  0.00  0.00    +0.000 C 
BRANCH   7  10
ATOM      8  C   UNL     1      51.336   6.529  17.853  0.00  0.00    +0.000 C 
ATOM      9  O   UNL     1      51.420   7.392  18.726  0.00  0.00    +0.000 OA
ATOM     10  N   UNL     1      50.628   6.759  16.703  0.00  0.00    +0.000 N 
ATOM     11  H   UNL     1      50.600   6.063  15.970  0.00  0.00    +0.000 HD
BRANCH   8  19
ATOM     12  C   UNL     1      50.412   3.284  17.127  0.00  0.00    +0.000 A 
ATOM     13  N   UNL     1      50.320   1.951  16.948  0.00  0.00    +0.000 NA
ATOM     14  C   UNL     1      51.347   1.188  17.331  0.00  0.00    +0.000 A 
ATOM     15  N   UNL     1      52.484   1.600  17.884  0.00  0.00    +0.000 NA
ATOM     16  C   UNL     1      52.540   2.937  18.037  0.00  0.00    +0.000 A 
ATOM     17  S   UNL     1      53.922   3.636  18.729  0.00  0.00    +0.000 S 
ATOM     18  C   UNL     1      53.263   5.193  18.584  0.00  0.00    +0.000 A 
ATOM     19  C   UNL     1      51.997   5.222  18.010  0.00  0.00    +0.000 A 
ATOM     20  C   UNL     1      51.565   3.863  17.686  0.00  0.00    +0.000 A 
BRANCH  12  22
ATOM     21  C   UNL     1      48.149   3.795  17.392  0.00  0.00    +0.000 C 
ATOM     22  O   UNL     1      49.364   4.070  16.696  0.00  0.00    +0.000 OA
ENDBRANCH  12  22
ENDBRANCH   8  19
ENDBRANCH   7  10
ENDBRANCH   1   7
BRANCH   4  23
ATOM     23  C   UNL     1      46.045   7.439  12.156  0.00  0.00    +0.000 C 
BRANCH  23  24
ATOM     24  N   UNL     1      46.216   6.179  11.435  0.00  0.00    +0.000 NA
ATOM     25  H   UNL     1      46.896   5.632  11.965  0.00  0.00    +0.000 HD
BRANCH  24  26
ATOM     26  C   UNL     1      44.986   5.361  11.322  0.00  0.00    +0.000 C 
BRANCH  26  27
ATOM     27  C   UNL     1      45.066   4.374  10.143  0.00  0.00    +0.000 A 
ATOM     28  C   UNL     1      45.596   4.738   8.892  0.00  0.00    +0.000 A 
ATOM     29  C   UNL     1      45.691   3.818   7.845  0.00  0.00    +0.000 A 
ATOM     30  C   UNL     1      45.237   2.515   8.017  0.00  0.00    +0.000 A 
ATOM     31  C   UNL     1      44.698   2.131   9.240  0.00  0.00    +0.000 A 
ATOM     32  C   UNL     1      44.626   3.044  10.297  0.00  0.00    +0.000 A 
ENDBRANCH  26  27
BRANCH  26  33
ATOM     33  C   UNL     1      43.679   6.192  11.284  0.00  0.00    +0.000 C 
BRANCH  33  34
ATOM     34  C   UNL     1      42.504   5.571  12.028  0.00  0.00    +0.000 C 
BRANCH  34  35
ATOM     35  O   UNL     1      42.825   5.472  13.417  0.00  0.00    +0.000 OA
ATOM     36  H   UNL     1      43.247   6.313  13.672  0.00  0.00    +0.000 HD
ENDBRANCH  34  35
ENDBRANCH  33  34
ENDBRANCH  26  33
ENDBRANCH  24  26
ENDBRANCH  23  24
ENDBRANCH   4  23
TORSDOF 11
ENDMDL
MODEL 7
REMARK VINA RESULT:    -7.020      2.370      3.114
REMARK INTER + INTRA:         -12.262
REMARK INTER:                 -10.836
REMARK INTRA:                  -1.426
REMARK UNBOUND:                -0.933
REMARK  Name = 
REMARK  12 active torsions:
REMARK  status: ('A' for Active; 'I' for Inactive)
REMARK    1  A    between atoms: C_1  and  O_2
REMARK    2  A    between atoms: O_2  and  C_3
REMARK    3  A    between atoms: C_10  and  C_11
REMARK    4  A    between atoms: N_13  and  C_14
REMARK    5  A    between atoms: C_14  and  C_15
REMARK    6  A    between atoms: C_18  and  C_19
REMARK    7  A    between atoms: C_19  and  N_20
REMARK    8  A    between atoms: N_20  and  C_21
REMARK    9  A    between atoms: C_21  and  C_22
REMARK   10  A    between atoms: C_21  and  C_25
REMARK   11  A    between atoms: C_22  and  C_23
REMARK   12  A    between atoms: C_23  and  O_24
REMARK                            x       y       z     vdW  Elec       q    Type
REMARK                         _______ _______ _______ _____ _____    ______ ____
ROOT
ATOM      1  C   UNL     1      47.603   8.453  12.168  0.00  0.00    +0.000 A 
ATOM      2  C   UNL     1      47.608   7.109  11.774  0.00  0.00    +0.000 A 
ATOM      3  C   UNL     1      46.406   6.425  11.554  0.00  0.00    +0.000 A 
ATOM      4  C   UNL     1      45.170   7.071  11.714  0.00  0.00    +0.000 A 
ATOM      5  C   UNL     1      45.168   8.406  12.140  0.00  0.00    +0.000 A 
ATOM      6  C   UNL     1      46.369   9.091  12.359  0.00  0.00    +0.000 A 
ENDROOT
BRANCH   1   7
ATOM      7  C   UNL     1      48.890   9.221  12.322  0.00  0.00    +0.000 C 
BRANCH   7  10
ATOM      8  C   UNL     1      50.972   9.085  13.616  0.00  0.00    +0.000 C 
ATOM      9  O   UNL     1      51.197  10.276  13.406  0.00  0.00    +0.000 OA
ATOM     10  N   UNL     1      49.852   8.482  13.108  0.00  0.00    +0.000 N 
ATOM     11  H   UNL     1      49.695   7.493  13.246  0.00  0.00    +0.000 HD
BRANCH   8  19
ATOM     12  C   UNL     1      50.541   6.752  16.122  0.00  0.00    +0.000 A 
ATOM     13  N   UNL     1      50.668   5.822  17.090  0.00  0.00    +0.000 NA
ATOM     14  C   UNL     1      51.896   5.428  17.432  0.00  0.00    +0.000 A 
ATOM     15  N   UNL     1      53.045   5.855  16.915  0.00  0.00    +0.000 NA
ATOM     16  C   UNL     1      52.874   6.774  15.946  0.00  0.00    +0.000 A 
ATOM     17  S   UNL     1      54.236   7.430  15.175  0.00  0.00    +0.000 S 
ATOM     18  C   UNL     1      53.263   8.412  14.191  0.00  0.00    +0.000 A 
ATOM     19  C   UNL     1      51.899   8.265  14.415  0.00  0.00    +0.000 A 
ATOM     20  C   UNL     1      51.670   7.282  15.473  0.00  0.00    +0.000 A 
BRANCH  12  22
ATOM     21  C   UNL     1      48.656   8.006  16.692  0.00  0.00    +0.000 C 
ATOM     22  O   UNL     1      49.269   7.129  15.748  0.00  0.00    +0.000 OA
ENDBRANCH  12  22
ENDBRANCH   8  19
ENDBRANCH   7  10
ENDBRANCH   1   7
BRANCH   4  23
ATOM     23  C   UNL     1      43.872   6.378  11.346  0.00  0.00    +0.000 C 
BRANCH  23  24
ATOM     24  N   UNL     1      44.023   5.514  10.176  0.00  0.00    +0.000 NA
ATOM     25  H   UNL     1      44.702   5.971   9.565  0.00  0.00    +0.000 HD
BRANCH  24  26
ATOM     26  C   UNL     1      44.543   4.159  10.474  0.00  0.00    +0.000 C 
BRANCH  26  27
ATOM     27  C   UNL     1      45.310   3.569   9.277  0.00  0.00    +0.000 A 
ATOM     28  C   UNL     1      45.453   2.183   9.084  0.00  0.00    +0.000 A 
ATOM     29  C   UNL     1      46.125   1.666   7.973  0.00  0.00    +0.000 A 
ATOM     30  C   UNL     1      46.688   2.525   7.037  0.00  0.00    +0.000 A 
ATOM     31  C   UNL     1      46.571   3.901   7.207  0.00  0.00    +0.000 A 
ATOM     32  C   UNL     1      45.877   4.418   8.306  0.00  0.00    +0.000 A 
ENDBRANCH  26  27
BRANCH  26  33
ATOM     33  C   UNL     1      43.469   3.176  11.005  0.00  0.00    +0.000 C 
BRANCH  33  34
ATOM     34  C   UNL     1      43.613   2.804  12.475  0.00  0.00    +0.000 C 
BRANCH  34  35
ATOM     35  O   UNL     1      44.988   2.541  12.761  0.00  0.00    +0.000 OA
ATOM     36  H   UNL     1      45.115   2.694  13.716  0.00  0.00    +0.000 HD
ENDBRANCH  34  35
ENDBRANCH  33  34
ENDBRANCH  26  33
ENDBRANCH  24  26
ENDBRANCH  23  24
ENDBRANCH   4  23
TORSDOF 11
ENDMDL
MODEL 8
REMARK VINA RESULT:    -6.926      3.326      5.793
REMARK INTER + INTRA:         -12.110
REMARK INTER:                 -10.349
REMARK INTRA:                  -1.761
REMARK UNBOUND:                -0.933
REMARK  Name = 
REMARK  12 active torsions:
REMARK  status: ('A' for Active; 'I' for Inactive)
REMARK    1  A    between atoms: C_1  and  O_2
REMARK    2  A    between atoms: O_2  and  C_3
REMARK    3  A    between atoms: C_10  and  C_11
REMARK    4  A    between atoms: N_13  and  C_14
REMARK    5  A    between atoms: C_14  and  C_15
REMARK    6  A    between atoms: C_18  and  C_19
REMARK    7  A    between atoms: C_19  and  N_20
REMARK    8  A    between atoms: N_20  and  C_21
REMARK    9  A    between atoms: C_21  and  C_22
REMARK   10  A    between atoms: C_21  and  C_25
REMARK   11  A    between atoms: C_22  and  C_23
REMARK   12  A    between atoms: C_23  and  O_24
REMARK                            x       y       z     vdW  Elec       q    Type
REMARK                         _______ _______ _______ _____ _____    ______ ____
ROOT
ATOM      1  C   UNL     1      47.963   4.190  16.482  0.00  0.00    +0.000 A 
ATOM      2  C   UNL     1      48.511   5.474  16.364  0.00  0.00    +0.000 A 
ATOM      3  C   UNL     1      48.270   6.250  15.223  0.00  0.00    +0.000 A 
ATOM      4  C   UNL     1      47.468   5.765  14.179  0.00  0.00    +0.000 A 
ATOM      5  C   UNL     1      46.948   4.468  14.286  0.00  0.00    +0.000 A 
ATOM      6  C   UNL     1      47.188   3.692  15.426  0.00  0.00    +0.000 A 
ENDROOT
BRANCH   1   7
ATOM      7  C   UNL     1      48.144   3.383  17.742  0.00  0.00    +0.000 C 
BRANCH   7  10
ATOM      8  C   UNL     1      50.267   2.262  17.230  0.00  0.00    +0.000 C 
ATOM      9  O   UNL     1      49.742   1.667  16.290  0.00  0.00    +0.000 OA
ATOM     10  N   UNL     1      49.541   3.126  18.006  0.00  0.00    +0.000 N 
ATOM     11  H   UNL     1      49.966   3.579  18.804  0.00  0.00    +0.000 HD
BRANCH   8  19
ATOM     12  C   UNL     1      52.924   4.405  17.734  0.00  0.00    +0.000 A 
ATOM     13  N   UNL     1      54.112   4.992  17.981  0.00  0.00    +0.000 NA
ATOM     14  C   UNL     1      55.164   4.211  18.239  0.00  0.00    +0.000 A 
ATOM     15  N   UNL     1      55.178   2.881  18.283  0.00  0.00    +0.000 NA
ATOM     16  C   UNL     1      53.971   2.335  18.041  0.00  0.00    +0.000 A 
ATOM     17  S   UNL     1      53.807   0.647  18.058  0.00  0.00    +0.000 S 
ATOM     18  C   UNL     1      52.153   0.758  17.694  0.00  0.00    +0.000 A 
ATOM     19  C   UNL     1      51.689   2.062  17.558  0.00  0.00    +0.000 A 
ATOM     20  C   UNL     1      52.786   3.006  17.764  0.00  0.00    +0.000 A 
BRANCH  12  22
ATOM     21  C   UNL     1      52.122   6.276  16.591  0.00  0.00    +0.000 C 
ATOM     22  O   UNL     1      51.835   5.218  17.504  0.00  0.00    +0.000 OA
ENDBRANCH  12  22
ENDBRANCH   8  19
ENDBRANCH   7  10
ENDBRANCH   1   7
BRANCH   4  23
ATOM     23  C   UNL     1      47.092   6.650  13.005  0.00  0.00    +0.000 C 
BRANCH  23  24
ATOM     24  N   UNL     1      45.978   7.541  13.325  0.00  0.00    +0.000 NA
ATOM     25  H   UNL     1      46.336   8.493  13.245  0.00  0.00    +0.000 HD
BRANCH  24  26
ATOM     26  C   UNL     1      44.818   7.430  12.410  0.00  0.00    +0.000 C 
BRANCH  26  27
ATOM     27  C   UNL     1      44.526   5.965  12.038  0.00  0.00    +0.000 A 
ATOM     28  C   UNL     1      43.788   5.108  12.876  0.00  0.00    +0.000 A 
ATOM     29  C   UNL     1      43.505   3.792  12.505  0.00  0.00    +0.000 A 
ATOM     30  C   UNL     1      43.971   3.292  11.295  0.00  0.00    +0.000 A 
ATOM     31  C   UNL     1      44.712   4.112  10.451  0.00  0.00    +0.000 A 
ATOM     32  C   UNL     1      44.975   5.439  10.810  0.00  0.00    +0.000 A 
ENDBRANCH  26  27
BRANCH  26  33
ATOM     33  C   UNL     1      44.921   8.329  11.151  0.00  0.00    +0.000 C 
BRANCH  33  34
ATOM     34  C   UNL     1      44.214   9.673  11.266  0.00  0.00    +0.000 C 
BRANCH  34  35
ATOM     35  O   UNL     1      44.421  10.203  12.578  0.00  0.00    +0.000 OA
ATOM     36  H   UNL     1      43.903   9.651  13.193  0.00  0.00    +0.000 HD
ENDBRANCH  34  35
ENDBRANCH  33  34
ENDBRANCH  26  33
ENDBRANCH  24  26
ENDBRANCH  23  24
ENDBRANCH   4  23
TORSDOF 11
ENDMDL
MODEL 9
REMARK VINA RESULT:    -6.514      3.556      8.263
REMARK INTER + INTRA:         -11.445
REMARK INTER:                  -9.752
REMARK INTRA:                  -1.693
REMARK UNBOUND:                -0.933
REMARK  Name = 
REMARK  12 active torsions:
REMARK  status: ('A' for Active; 'I' for Inactive)
REMARK    1  A    between atoms: C_1  and  O_2
REMARK    2  A    between atoms: O_2  and  C_3
REMARK    3  A    between atoms: C_10  and  C_11
REMARK    4  A    between atoms: N_13  and  C_14
REMARK    5  A    between atoms: C_14  and  C_15
REMARK    6  A    between atoms: C_18  and  C_19
REMARK    7  A    between atoms: C_19  and  N_20
REMARK    8  A    between atoms: N_20  and  C_21
REMARK    9  A    between atoms: C_21  and  C_22
REMARK   10  A    between atoms: C_21  and  C_25
REMARK   11  A    between atoms: C_22  and  C_23
REMARK   12  A    between atoms: C_23  and  O_24
REMARK                            x       y       z     vdW  Elec       q    Type
REMARK                         _______ _______ _______ _____ _____    ______ ____
ROOT
ATOM      1  C   UNL     1      48.619   8.501  15.194  0.00  0.00    +0.000 A 
ATOM      2  C   UNL     1      49.501   7.466  14.856  0.00  0.00    +0.000 A 
ATOM      3  C   UNL     1      50.204   6.774  15.851  0.00  0.00    +0.000 A 
ATOM      4  C   UNL     1      50.035   7.095  17.207  0.00  0.00    +0.000 A 
ATOM      5  C   UNL     1      49.176   8.152  17.538  0.00  0.00    +0.000 A 
ATOM      6  C   UNL     1      48.473   8.843  16.544  0.00  0.00    +0.000 A 
ENDROOT
BRANCH   1   7
ATOM      7  C   UNL     1      47.793   9.190  14.138  0.00  0.00    +0.000 C 
BRANCH   7  10
ATOM      8  C   UNL     1      46.724   7.664  12.541  0.00  0.00    +0.000 C 
ATOM      9  O   UNL     1      47.704   7.728  11.801  0.00  0.00    +0.000 OA
ATOM     10  N   UNL     1      46.684   8.365  13.716  0.00  0.00    +0.000 N 
ATOM     11  H   UNL     1      45.858   8.343  14.299  0.00  0.00    +0.000 HD
BRANCH   8  19
ATOM     12  C   UNL     1      45.973   4.315  12.901  0.00  0.00    +0.000 A 
ATOM     13  N   UNL     1      45.423   3.084  12.915  0.00  0.00    +0.000 NA
ATOM     14  C   UNL     1      44.207   2.927  12.386  0.00  0.00    +0.000 A 
ATOM     15  N   UNL     1      43.451   3.870  11.830  0.00  0.00    +0.000 NA
ATOM     16  C   UNL     1      44.031   5.085  11.845  0.00  0.00    +0.000 A 
ATOM     17  S   UNL     1      43.205   6.406  11.175  0.00  0.00    +0.000 S 
ATOM     18  C   UNL     1      44.486   7.455  11.548  0.00  0.00    +0.000 A 
ATOM     19  C   UNL     1      45.557   6.838  12.186  0.00  0.00    +0.000 A 
ATOM     20  C   UNL     1      45.280   5.412  12.359  0.00  0.00    +0.000 A 
BRANCH  12  22
ATOM     21  C   UNL     1      47.160   4.457  14.906  0.00  0.00    +0.000 C 
ATOM     22  O   UNL     1      47.212   4.478  13.480  0.00  0.00    +0.000 OA
ENDBRANCH  12  22
ENDBRANCH   8  19
ENDBRANCH   7  10
ENDBRANCH   1   7
BRANCH   4  23
ATOM     23  C   UNL     1      50.687   6.262  18.294  0.00  0.00    +0.000 C 
BRANCH  23  24
ATOM     24  N   UNL     1      51.423   5.124  17.747  0.00  0.00    +0.000 NA
ATOM     25  H   UNL     1      52.389   5.227  18.060  0.00  0.00    +0.000 HD
BRANCH  24  26
ATOM     26  C   UNL     1      50.949   3.801  18.215  0.00  0.00    +0.000 C 
BRANCH  26  27
ATOM     27  C   UNL     1      52.060   2.738  18.134  0.00  0.00    +0.000 A 
ATOM     28  C   UNL     1      51.869   1.496  17.501  0.00  0.00    +0.000 A 
ATOM     29  C   UNL     1      52.900   0.559  17.408  0.00  0.00    +0.000 A 
ATOM     30  C   UNL     1      54.144   0.831  17.965  0.00  0.00    +0.000 A 
ATOM     31  C   UNL     1      54.358   2.047  18.606  0.00  0.00    +0.000 A 
ATOM     32  C   UNL     1      53.334   2.997  18.678  0.00  0.00    +0.000 A 
ENDBRANCH  26  27
BRANCH  26  33
ATOM     33  C   UNL     1      49.646   3.319  17.528  0.00  0.00    +0.000 C 
BRANCH  33  34
ATOM     34  C   UNL     1      48.369   3.602  18.309  0.00  0.00    +0.000 C 
BRANCH  34  35
ATOM     35  O   UNL     1      48.451   2.972  19.589  0.00  0.00    +0.000 OA
ATOM     36  H   UNL     1      47.592   3.106  20.029  0.00  0.00    +0.000 HD
ENDBRANCH  34  35
ENDBRANCH  33  34
ENDBRANCH  26  33
ENDBRANCH  24  26
ENDBRANCH  23  24
ENDBRANCH   4  23
TORSDOF 11
ENDMDL
