MODEL 1
REMARK VINA RESULT:    -8.995      0.000      0.000
REMARK INTER + INTRA:         -13.784
REMARK INTER:                 -12.938
REMARK INTRA:                  -0.846
REMARK UNBOUND:                -0.846
REMARK  Name = 
REMARK  8 active torsions:
REMARK  status: ('A' for Active; 'I' for Inactive)
REMARK    1  A    between atoms: C_2  and  C_20
REMARK    2  A    between atoms: N_3  and  C_4
REMARK    3  A    between atoms: C_4  and  C_5
REMARK    4  A    between atoms: C_5  and  N_6
REMARK    5  A    between atoms: C_9  and  C_10
REMARK    6  A    between atoms: C_9  and  C_12
REMARK    7  A    between atoms: C_10  and  O_11
REMARK    8  A    between atoms: C_12  and  C_13
REMARK                            x       y       z     vdW  Elec       q    Type
REMARK                         _______ _______ _______ _____ _____    ______ ____
ROOT
ATOM      1  C   UNL     1      46.289   4.593  14.001  0.00  0.00    +0.000 C 
ENDROOT
BRANCH   1   4
ATOM      2  O   UNL     1      46.520   3.536  16.592  0.00  0.00    +0.000 OA
ATOM      3  C   UNL     1      47.408   4.275  16.172  0.00  0.00    +0.000 C 
ATOM      4  N   UNL     1      47.371   4.841  14.922  0.00  0.00    +0.000 N 
ATOM      5  H   UNL     1      48.192   5.310  14.553  0.00  0.00    +0.000 HD
BRANCH   3   6
ATOM      6  C   UNL     1      48.555   4.639  17.006  0.00  0.00    +0.000 A 
ATOM      7  C   UNL     1      48.600   5.879  17.624  0.00  0.00    +0.000 A 
ATOM      8  S   UNL     1      50.000   6.115  18.569  0.00  0.00    +0.000 S 
ATOM      9  C   UNL     1      50.571   4.553  18.207  0.00  0.00    +0.000 A 
ATOM     10  N   UNL     1      51.733   4.094  18.743  0.00  0.00    +0.000 NA
ATOM     11  C   UNL     1      52.033   2.885  18.409  0.00  0.00    +0.000 A 
ATOM     12  N   UNL     1      51.281   2.097  17.572  0.00  0.00    +0.000 N 
ATOM     13  C   UNL     1      50.142   2.538  16.954  0.00  0.00    +0.000 A 
ATOM     14  O   UNL     1      49.549   1.851  16.128  0.00  0.00    +0.000 OA
ATOM     15  C   UNL     1      49.733   3.877  17.343  0.00  0.00    +0.000 A 
ATOM     16  H   UNL     1      51.592   1.167  17.323  0.00  0.00    +0.000 HD
ENDBRANCH   3   6
ENDBRANCH   1   4
BRANCH   1  17
ATOM     17  C   UNL     1      45.817   5.870  13.276  0.00  0.00    +0.000 C 
BRANCH  17  18
ATOM     18  N   UNL     1      45.753   5.713  11.807  0.00  0.00    +0.000 NA
ATOM     19  C   UNL     1      44.629   6.462  11.220  0.00  0.00    +0.000 C 
ATOM     20  C   UNL     1      43.468   5.497  11.297  0.00  0.00    +0.000 C 
ATOM     21  C   UNL     1      44.102   4.179  10.823  0.00  0.00    +0.000 C 
ATOM     22  C   UNL     1      45.529   4.292  11.423  0.00  0.00    +0.000 C 
BRANCH  21  23
ATOM     23  C   UNL     1      43.331   2.982  11.403  0.00  0.00    +0.000 C 
BRANCH  23  24
ATOM     24  O   UNL     1      44.010   2.417  12.520  0.00  0.00    +0.000 OA
ATOM     25  H   UNL     1      44.239   3.151  13.124  0.00  0.00    +0.000 HD
ENDBRANCH  23  24
ENDBRANCH  21  23
BRANCH  21  26
ATOM     26  C   UNL     1      44.109   4.168   9.257  0.00  0.00    +0.000 C 
BRANCH  26  27
ATOM     27  C   UNL     1      45.214   3.365   8.609  0.00  0.00    +0.000 A 
ATOM     28  C   UNL     1      46.148   3.992   7.773  0.00  0.00    +0.000 A 
ATOM     29  C   UNL     1      47.108   3.243   7.094  0.00  0.00    +0.000 A 
ATOM     30  C   UNL     1      47.162   1.861   7.262  0.00  0.00    +0.000 A 
ATOM     31  C   UNL     1      46.273   1.232   8.131  0.00  0.00    +0.000 A 
ATOM     32  C   UNL     1      45.309   1.981   8.806  0.00  0.00    +0.000 A 
ENDBRANCH  26  27
ENDBRANCH  21  26
ENDBRANCH  17  18
ENDBRANCH   1  17
TORSDOF 8
ENDMDL
MODEL 2
REMARK VINA RESULT:    -8.824      1.835      2.549
REMARK INTER + INTRA:         -13.539
REMARK INTER:                 -12.403
REMARK INTRA:                  -1.136
REMARK UNBOUND:                -0.846
REMARK  Name = 
REMARK  8 active torsions:
REMARK  status: ('A' for Active; 'I' for Inactive)
REMARK    1  A    between atoms: C_2  and  C_20
REMARK    2  A    between atoms: N_3  and  C_4
REMARK    3  A    between atoms: C_4  and  C_5
REMARK    4  A    between atoms: C_5  and  N_6
REMARK    5  A    between atoms: C_9  and  C_10
REMARK    6  A    between atoms: C_9  and  C_12
REMARK    7  A    between atoms: C_10  and  O_11
REMARK    8  A    between atoms: C_12  and  C_13
REMARK                            x       y       z     vdW  Elec       q    Type
REMARK                         _______ _______ _______ _____ _____    ______ ____
ROOT
ATOM      1  C   UNL     1      46.444   7.698  12.615  0.00  0.00    +0.000 C 
ENDROOT
BRANCH   1   4
ATOM      2  O   UNL     1      48.834   6.262  12.955  0.00  0.00    +0.000 OA
ATOM      3  C   UNL     1      48.200   6.603  13.952  0.00  0.00    +0.000 C 
ATOM      4  N   UNL     1      47.019   7.299  13.876  0.00  0.00    +0.000 N 
ATOM      5  H   UNL     1      46.612   7.700  14.714  0.00  0.00    +0.000 HD
BRANCH   3   6
ATOM      6  C   UNL     1      48.647   6.245  15.299  0.00  0.00    +0.000 A 
ATOM      7  C   UNL     1      49.574   7.038  15.958  0.00  0.00    +0.000 A 
ATOM      8  S   UNL     1      49.958   6.475  17.521  0.00  0.00    +0.000 S 
ATOM      9  C   UNL     1      48.871   5.174  17.377  0.00  0.00    +0.000 A 
ATOM     10  N   UNL     1      48.684   4.304  18.404  0.00  0.00    +0.000 NA
ATOM     11  C   UNL     1      47.812   3.382  18.171  0.00  0.00    +0.000 A 
ATOM     12  N   UNL     1      47.120   3.243  16.994  0.00  0.00    +0.000 N 
ATOM     13  C   UNL     1      47.324   4.051  15.907  0.00  0.00    +0.000 A 
ATOM     14  O   UNL     1      46.771   3.838  14.832  0.00  0.00    +0.000 OA
ATOM     15  C   UNL     1      48.258   5.139  16.140  0.00  0.00    +0.000 A 
ATOM     16  H   UNL     1      46.474   2.476  16.863  0.00  0.00    +0.000 HD
ENDBRANCH   3   6
ENDBRANCH   1   4
BRANCH   1  17
ATOM     17  C   UNL     1      44.943   7.362  12.509  0.00  0.00    +0.000 C 
BRANCH  17  18
ATOM     18  N   UNL     1      44.568   6.782  11.202  0.00  0.00    +0.000 NA
ATOM     19  C   UNL     1      43.211   6.213  11.219  0.00  0.00    +0.000 C 
ATOM     20  C   UNL     1      43.416   4.795  11.703  0.00  0.00    +0.000 C 
ATOM     21  C   UNL     1      44.642   4.344  10.893  0.00  0.00    +0.000 C 
ATOM     22  C   UNL     1      45.468   5.656  10.831  0.00  0.00    +0.000 C 
BRANCH  21  23
ATOM     23  C   UNL     1      45.392   3.230  11.642  0.00  0.00    +0.000 C 
BRANCH  23  24
ATOM     24  O   UNL     1      44.745   2.902  12.868  0.00  0.00    +0.000 OA
ATOM     25  H   UNL     1      43.785   2.849  12.687  0.00  0.00    +0.000 HD
ENDBRANCH  23  24
ENDBRANCH  21  23
BRANCH  21  26
ATOM     26  C   UNL     1      44.156   3.874   9.479  0.00  0.00    +0.000 C 
BRANCH  26  27
ATOM     27  C   UNL     1      45.189   3.171   8.629  0.00  0.00    +0.000 A 
ATOM     28  C   UNL     1      45.369   1.786   8.736  0.00  0.00    +0.000 A 
ATOM     29  C   UNL     1      46.387   1.146   8.029  0.00  0.00    +0.000 A 
ATOM     30  C   UNL     1      47.219   1.879   7.188  0.00  0.00    +0.000 A 
ATOM     31  C   UNL     1      47.017   3.249   7.032  0.00  0.00    +0.000 A 
ATOM     32  C   UNL     1      46.003   3.890   7.743  0.00  0.00    +0.000 A 
ENDBRANCH  26  27
ENDBRANCH  21  26
ENDBRANCH  17  18
ENDBRANCH   1  17
TORSDOF 8
ENDMDL
MODEL 3
REMARK VINA RESULT:    -8.398      1.613      2.007
REMARK INTER + INTRA:         -12.926
REMARK INTER:                 -11.900
REMARK INTRA:                  -1.026
REMARK UNBOUND:                -0.846
REMARK  Name = 
REMARK  8 active torsions:
REMARK  status: ('A' for Active; 'I' for Inactive)
REMARK    1  A    between atoms: C_2  and  C_20
REMARK    2  A    between atoms: N_3  and  C_4
REMARK    3  A    between atoms: C_4  and  C_5
REMARK    4  A    between atoms: C_5  and  N_6
REMARK    5  A    between atoms: C_9  and  C_10
REMARK    6  A    between atoms: C_9  and  C_12
REMARK    7  A    between atoms: C_10  and  O_11
REMARK    8  A    between atoms: C_12  and  C_13
REMARK                            x       y       z     vdW  Elec       q    Type
REMARK                         _______ _______ _______ _____ _____    ______ ____
ROOT
ATOM      1  C   UNL     1      46.527   4.717  13.834  0.00  0.00    +0.000 C 
ENDROOT
BRANCH   1   4
ATOM      2  O   UNL     1      47.763   2.972  15.654  0.00  0.00    +0.000 OA
ATOM      3  C   UNL     1      47.748   4.176  15.903  0.00  0.00    +0.000 C 
ATOM      4  N   UNL     1      47.158   5.096  15.073  0.00  0.00    +0.000 N 
ATOM      5  H   UNL     1      47.307   6.088  15.229  0.00  0.00    +0.000 HD
BRANCH   3   6
ATOM      6  C   UNL     1      48.326   4.705  17.139  0.00  0.00    +0.000 A 
ATOM      7  C   UNL     1      47.939   4.187  18.366  0.00  0.00    +0.000 A 
ATOM      8  S   UNL     1      48.734   4.912  19.689  0.00  0.00    +0.000 S 
ATOM      9  C   UNL     1      49.643   5.917  18.660  0.00  0.00    +0.000 A 
ATOM     10  N   UNL     1      50.567   6.778  19.163  0.00  0.00    +0.000 NA
ATOM     11  C   UNL     1      51.204   7.458  18.271  0.00  0.00    +0.000 A 
ATOM     12  N   UNL     1      50.988   7.365  16.919  0.00  0.00    +0.000 N 
ATOM     13  C   UNL     1      50.023   6.565  16.369  0.00  0.00    +0.000 A 
ATOM     14  O   UNL     1      49.779   6.582  15.166  0.00  0.00    +0.000 OA
ATOM     15  C   UNL     1      49.316   5.738  17.331  0.00  0.00    +0.000 A 
ATOM     16  H   UNL     1      51.500   7.954  16.274  0.00  0.00    +0.000 HD
ENDBRANCH   3   6
ENDBRANCH   1   4
BRANCH   1  17
ATOM     17  C   UNL     1      45.910   5.915  13.085  0.00  0.00    +0.000 C 
BRANCH  17  18
ATOM     18  N   UNL     1      45.818   5.704  11.625  0.00  0.00    +0.000 NA
ATOM     19  C   UNL     1      44.677   6.421  11.033  0.00  0.00    +0.000 C 
ATOM     20  C   UNL     1      43.525   5.452  11.170  0.00  0.00    +0.000 C 
ATOM     21  C   UNL     1      44.160   4.122  10.733  0.00  0.00    +0.000 C 
ATOM     22  C   UNL     1      45.598   4.268  11.299  0.00  0.00    +0.000 C 
BRANCH  21  23
ATOM     23  C   UNL     1      43.410   2.941  11.373  0.00  0.00    +0.000 C 
BRANCH  23  24
ATOM     24  O   UNL     1      44.091   2.456  12.525  0.00  0.00    +0.000 OA
ATOM     25  H   UNL     1      43.788   1.539  12.679  0.00  0.00    +0.000 HD
ENDBRANCH  23  24
ENDBRANCH  21  23
BRANCH  21  26
ATOM     26  C   UNL     1      44.136   4.051   9.168  0.00  0.00    +0.000 C 
BRANCH  26  27
ATOM     27  C   UNL     1      45.275   3.292   8.526  0.00  0.00    +0.000 A 
ATOM     28  C   UNL     1      46.200   3.960   7.713  0.00  0.00    +0.000 A 
ATOM     29  C   UNL     1      47.193   3.250   7.037  0.00  0.00    +0.000 A 
ATOM     30  C   UNL     1      47.286   1.868   7.186  0.00  0.00    +0.000 A 
ATOM     31  C   UNL     1      46.405   1.199   8.033  0.00  0.00    +0.000 A 
ATOM     32  C   UNL     1      45.409   1.908   8.705  0.00  0.00    +0.000 A 
ENDBRANCH  26  27
ENDBRANCH  21  26
ENDBRANCH  17  18
ENDBRANCH   1  17
TORSDOF 8
ENDMDL
MODEL 4
REMARK VINA RESULT:    -8.187      2.238      2.834
REMARK INTER + INTRA:         -12.622
REMARK INTER:                 -11.614
REMARK INTRA:                  -1.009
REMARK UNBOUND:                -0.846
REMARK  Name = 
REMARK  8 active torsions:
REMARK  status: ('A' for Active; 'I' for Inactive)
REMARK    1  A    between atoms: C_2  and  C_20
REMARK    2  A    between atoms: N_3  and  C_4
REMARK    3  A    between atoms: C_4  and  C_5
REMARK    4  A    between atoms: C_5  and  N_6
REMARK    5  A    between atoms: C_9  and  C_10
REMARK    6  A    between atoms: C_9  and  C_12
REMARK    7  A    between atoms: C_10  and  O_11
REMARK    8  A    between atoms: C_12  and  C_13
REMARK                            x       y       z     vdW  Elec       q    Type
REMARK                         _______ _______ _______ _____ _____    ______ ____
ROOT
ATOM      1  C   UNL     1      46.725   6.975  12.839  0.00  0.00    +0.000 C 
ENDROOT
BRANCH   1   4
ATOM      2  O   UNL     1      49.082   6.459  14.277  0.00  0.00    +0.000 OA
ATOM      3  C   UNL     1      48.013   6.040  14.719  0.00  0.00    +0.000 C 
ATOM      4  N   UNL     1      46.817   6.240  14.077  0.00  0.00    +0.000 N 
ATOM      5  H   UNL     1      45.946   6.023  14.549  0.00  0.00    +0.000 HD
BRANCH   3   6
ATOM      6  C   UNL     1      47.956   5.253  15.951  0.00  0.00    +0.000 A 
ATOM      7  C   UNL     1      47.493   3.946  15.921  0.00  0.00    +0.000 A 
ATOM      8  S   UNL     1      47.518   3.183  17.446  0.00  0.00    +0.000 S 
ATOM      9  C   UNL     1      48.179   4.565  18.186  0.00  0.00    +0.000 A 
ATOM     10  N   UNL     1      48.487   4.568  19.510  0.00  0.00    +0.000 NA
ATOM     11  C   UNL     1      49.008   5.669  19.934  0.00  0.00    +0.000 A 
ATOM     12  N   UNL     1      49.233   6.777  19.154  0.00  0.00    +0.000 N 
ATOM     13  C   UNL     1      48.877   6.847  17.834  0.00  0.00    +0.000 A 
ATOM     14  O   UNL     1      48.992   7.884  17.189  0.00  0.00    +0.000 OA
ATOM     15  C   UNL     1      48.337   5.610  17.297  0.00  0.00    +0.000 A 
ATOM     16  H   UNL     1      49.614   7.623  19.558  0.00  0.00    +0.000 HD
ENDBRANCH   3   6
ENDBRANCH   1   4
BRANCH   1  17
ATOM     17  C   UNL     1      45.275   7.354  12.476  0.00  0.00    +0.000 C 
BRANCH  17  18
ATOM     18  N   UNL     1      44.794   6.694  11.244  0.00  0.00    +0.000 NA
ATOM     19  C   UNL     1      43.381   6.293  11.348  0.00  0.00    +0.000 C 
ATOM     20  C   UNL     1      43.436   4.918  11.973  0.00  0.00    +0.000 C 
ATOM     21  C   UNL     1      44.575   4.246  11.189  0.00  0.00    +0.000 C 
ATOM     22  C   UNL     1      45.545   5.437  10.974  0.00  0.00    +0.000 C 
BRANCH  21  23
ATOM     23  C   UNL     1      45.215   3.132  12.035  0.00  0.00    +0.000 C 
BRANCH  23  24
ATOM     24  O   UNL     1      45.587   3.607  13.324  0.00  0.00    +0.000 OA
ATOM     25  H   UNL     1      45.218   4.508  13.422  0.00  0.00    +0.000 HD
ENDBRANCH  23  24
ENDBRANCH  21  23
BRANCH  21  26
ATOM     26  C   UNL     1      43.993   3.696   9.842  0.00  0.00    +0.000 C 
BRANCH  26  27
ATOM     27  C   UNL     1      45.006   3.157   8.858  0.00  0.00    +0.000 A 
ATOM     28  C   UNL     1      45.317   1.791   8.840  0.00  0.00    +0.000 A 
ATOM     29  C   UNL     1      46.322   1.303   8.005  0.00  0.00    +0.000 A 
ATOM     30  C   UNL     1      47.009   2.171   7.161  0.00  0.00    +0.000 A 
ATOM     31  C   UNL     1      46.674   3.523   7.131  0.00  0.00    +0.000 A 
ATOM     32  C   UNL     1      45.672   4.012   7.970  0.00  0.00    +0.000 A 
ENDBRANCH  26  27
ENDBRANCH  21  26
ENDBRANCH  17  18
ENDBRANCH   1  17
TORSDOF 8
ENDMDL
MODEL 5
REMARK VINA RESULT:    -7.253      4.572      4.966
REMARK INTER + INTRA:         -11.279
REMARK INTER:                 -10.364
REMARK INTRA:                  -0.915
REMARK UNBOUND:                -0.846
REMARK  Name = 
REMARK  8 active torsions:
REMARK  status: ('A' for Active; 'I' for Inactive)
REMARK    1  A    between atoms: C_2  and  C_20
REMARK    2  A    between atoms: N_3  and  C_4
REMARK    3  A    between atoms: C_4  and  C_5
REMARK    4  A    between atoms: C_5  and  N_6
REMARK    5  A    between atoms: C_9  and  C_10
REMARK    6  A    between atoms: C_9  and  C_12
REMARK    7  A    between atoms: C_10  and  O_11
REMARK    8  A    between atoms: C_12  and  C_13
REMARK                            x       y       z     vdW  Elec       q    Type
REMARK                         _______ _______ _______ _____ _____    ______ ____
ROOT
ATOM      1  C   UNL     1      45.665   8.888  12.658  0.00  0.00    +0.000 C 
ENDROOT
BRANCH   1   4
ATOM      2  O   UNL     1      47.553   8.902  14.737  0.00  0.00    +0.000 OA
ATOM      3  C   UNL     1      47.928   9.156  13.593  0.00  0.00    +0.000 C 
ATOM      4  N   UNL     1      47.071   9.180  12.521  0.00  0.00    +0.000 N 
ATOM      5  H   UNL     1      47.441   9.232  11.578  0.00  0.00    +0.000 HD
BRANCH   3   6
ATOM      6  C   UNL     1      49.322   9.498  13.307  0.00  0.00    +0.000 A 
ATOM      7  C   UNL     1      49.928  10.557  13.967  0.00  0.00    +0.000 A 
ATOM      8  S   UNL     1      51.557  10.791  13.519  0.00  0.00    +0.000 S 
ATOM      9  C   UNL     1      51.510   9.463  12.455  0.00  0.00    +0.000 A 
ATOM     10  N   UNL     1      52.618   9.085  11.764  0.00  0.00    +0.000 NA
ATOM     11  C   UNL     1      52.451   8.046  11.017  0.00  0.00    +0.000 A 
ATOM     12  N   UNL     1      51.269   7.360  10.888  0.00  0.00    +0.000 N 
ATOM     13  C   UNL     1      50.110   7.743  11.509  0.00  0.00    +0.000 A 
ATOM     14  O   UNL     1      49.044   7.176  11.292  0.00  0.00    +0.000 OA
ATOM     15  C   UNL     1      50.262   8.876  12.405  0.00  0.00    +0.000 A 
ATOM     16  H   UNL     1      51.196   6.572  10.257  0.00  0.00    +0.000 HD
ENDBRANCH   3   6
ENDBRANCH   1   4
BRANCH   1  17
ATOM     17  C   UNL     1      45.370   7.376  12.709  0.00  0.00    +0.000 C 
BRANCH  17  18
ATOM     18  N   UNL     1      44.920   6.827  11.412  0.00  0.00    +0.000 NA
ATOM     19  C   UNL     1      43.490   6.478  11.427  0.00  0.00    +0.000 C 
ATOM     20  C   UNL     1      43.466   5.059  11.949  0.00  0.00    +0.000 C 
ATOM     21  C   UNL     1      44.612   4.400  11.166  0.00  0.00    +0.000 C 
ATOM     22  C   UNL     1      45.635   5.564  11.081  0.00  0.00    +0.000 C 
BRANCH  21  23
ATOM     23  C   UNL     1      45.172   3.203  11.952  0.00  0.00    +0.000 C 
BRANCH  23  24
ATOM     24  O   UNL     1      44.130   2.451  12.566  0.00  0.00    +0.000 OA
ATOM     25  H   UNL     1      43.347   2.508  11.983  0.00  0.00    +0.000 HD
ENDBRANCH  23  24
ENDBRANCH  21  23
BRANCH  21  26
ATOM     26  C   UNL     1      44.071   3.975   9.758  0.00  0.00    +0.000 C 
BRANCH  26  27
ATOM     27  C   UNL     1      45.081   3.342   8.828  0.00  0.00    +0.000 A 
ATOM     28  C   UNL     1      45.307   1.960   8.865  0.00  0.00    +0.000 A 
ATOM     29  C   UNL     1      46.307   1.383   8.082  0.00  0.00    +0.000 A 
ATOM     30  C   UNL     1      47.074   2.179   7.235  0.00  0.00    +0.000 A 
ATOM     31  C   UNL     1      46.824   3.547   7.150  0.00  0.00    +0.000 A 
ATOM     32  C   UNL     1      45.828   4.124   7.937  0.00  0.00    +0.000 A 
ENDBRANCH  26  27
ENDBRANCH  21  26
ENDBRANCH  17  18
ENDBRANCH   1  17
TORSDOF 8
ENDMDL
MODEL 6
REMARK VINA RESULT:    -7.011      1.727      2.165
REMARK INTER + INTRA:         -10.930
REMARK INTER:                 -10.903
REMARK INTRA:                  -0.027
REMARK UNBOUND:                -0.846
REMARK  Name = 
REMARK  8 active torsions:
REMARK  status: ('A' for Active; 'I' for Inactive)
REMARK    1  A    between atoms: C_2  and  C_20
REMARK    2  A    between atoms: N_3  and  C_4
REMARK    3  A    between atoms: C_4  and  C_5
REMARK    4  A    between atoms: C_5  and  N_6
REMARK    5  A    between atoms: C_9  and  C_10
REMARK    6  A    between atoms: C_9  and  C_12
REMARK    7  A    between atoms: C_10  and  O_11
REMARK    8  A    between atoms: C_12  and  C_13
REMARK                            x       y       z     vdW  Elec       q    Type
REMARK                         _______ _______ _______ _____ _____    ______ ____
ROOT
ATOM      1  C   UNL     1      47.008   4.337  14.655  0.00  0.00    +0.000 C 
ENDROOT
BRANCH   1   4
ATOM      2  O   UNL     1      46.631   3.214  17.202  0.00  0.00    +0.000 OA
ATOM      3  C   UNL     1      47.295   4.244  17.100  0.00  0.00    +0.000 C 
ATOM      4  N   UNL     1      47.521   4.863  15.896  0.00  0.00    +0.000 N 
ATOM      5  H   UNL     1      48.203   5.612  15.832  0.00  0.00    +0.000 HD
BRANCH   3   6
ATOM      6  C   UNL     1      47.857   4.907  18.278  0.00  0.00    +0.000 A 
ATOM      7  C   UNL     1      47.059   5.728  19.060  0.00  0.00    +0.000 A 
ATOM      8  S   UNL     1      47.880   6.396  20.398  0.00  0.00    +0.000 S 
ATOM      9  C   UNL     1      49.316   5.580  19.990  0.00  0.00    +0.000 A 
ATOM     10  N   UNL     1      50.426   5.691  20.768  0.00  0.00    +0.000 NA
ATOM     11  C   UNL     1      51.434   4.997  20.359  0.00  0.00    +0.000 A 
ATOM     12  N   UNL     1      51.438   4.215  19.232  0.00  0.00    +0.000 N 
ATOM     13  C   UNL     1      50.369   4.126  18.380  0.00  0.00    +0.000 A 
ATOM     14  O   UNL     1      50.436   3.505  17.324  0.00  0.00    +0.000 OA
ATOM     15  C   UNL     1      49.190   4.846  18.827  0.00  0.00    +0.000 A 
ATOM     16  H   UNL     1      52.276   3.723  18.948  0.00  0.00    +0.000 HD
ENDBRANCH   3   6
ENDBRANCH   1   4
BRANCH   1  17
ATOM     17  C   UNL     1      45.560   4.783  14.371  0.00  0.00    +0.000 C 
BRANCH  17  18
ATOM     18  N   UNL     1      44.938   4.055  13.244  0.00  0.00    +0.000 NA
ATOM     19  C   UNL     1      45.897   3.798  12.156  0.00  0.00    +0.000 C 
ATOM     20  C   UNL     1      45.817   5.040  11.299  0.00  0.00    +0.000 C 
ATOM     21  C   UNL     1      44.302   5.284  11.212  0.00  0.00    +0.000 C 
ATOM     22  C   UNL     1      43.840   4.848  12.627  0.00  0.00    +0.000 C 
BRANCH  21  23
ATOM     23  C   UNL     1      44.019   6.773  10.952  0.00  0.00    +0.000 C 
BRANCH  23  24
ATOM     24  O   UNL     1      42.633   7.070  11.084  0.00  0.00    +0.000 OA
ATOM     25  H   UNL     1      42.172   6.230  11.281  0.00  0.00    +0.000 HD
ENDBRANCH  23  24
ENDBRANCH  21  23
BRANCH  21  26
ATOM     26  C   UNL     1      43.717   4.371  10.082  0.00  0.00    +0.000 C 
BRANCH  26  27
ATOM     27  C   UNL     1      44.733   3.663   9.214  0.00  0.00    +0.000 A 
ATOM     28  C   UNL     1      45.498   4.386   8.289  0.00  0.00    +0.000 A 
ATOM     29  C   UNL     1      46.364   3.728   7.417  0.00  0.00    +0.000 A 
ATOM     30  C   UNL     1      46.495   2.342   7.477  0.00  0.00    +0.000 A 
ATOM     31  C   UNL     1      45.779   1.618   8.428  0.00  0.00    +0.000 A 
ATOM     32  C   UNL     1      44.909   2.276   9.297  0.00  0.00    +0.000 A 
ENDBRANCH  26  27
ENDBRANCH  21  26
ENDBRANCH  17  18
ENDBRANCH   1  17
TORSDOF 8
ENDMDL
MODEL 7
REMARK VINA RESULT:    -6.944      3.829      4.626
REMARK INTER + INTRA:         -10.834
REMARK INTER:                 -10.001
REMARK INTRA:                  -0.833
REMARK UNBOUND:                -0.846
REMARK  Name = 
REMARK  8 active torsions:
REMARK  status: ('A' for Active; 'I' for Inactive)
REMARK    1  A    between atoms: C_2  and  C_20
REMARK    2  A    between atoms: N_3  and  C_4
REMARK    3  A    between atoms: C_4  and  C_5
REMARK    4  A    between atoms: C_5  and  N_6
REMARK    5  A    between atoms: C_9  and  C_10
REMARK    6  A    between atoms: C_9  and  C_12
REMARK    7  A    between atoms: C_10  and  O_11
REMARK    8  A    between atoms: C_12  and  C_13
REMARK                            x       y       z     vdW  Elec       q    Type
REMARK                         _______ _______ _______ _____ _____    ______ ____
ROOT
ATOM      1  C   UNL     1      45.764   8.693  12.382  0.00  0.00    +0.000 C 
ENDROOT
BRANCH   1   4
ATOM      2  O   UNL     1      47.762  10.603  11.881  0.00  0.00    +0.000 OA
ATOM      3  C   UNL     1      48.094   9.487  12.279  0.00  0.00    +0.000 C 
ATOM      4  N   UNL     1      47.184   8.493  12.540  0.00  0.00    +0.000 N 
ATOM      5  H   UNL     1      47.479   7.648  13.017  0.00  0.00    +0.000 HD
BRANCH   3   6
ATOM      6  C   UNL     1      49.502   9.131  12.459  0.00  0.00    +0.000 A 
ATOM      7  C   UNL     1      50.377   9.190  11.385  0.00  0.00    +0.000 A 
ATOM      8  S   UNL     1      51.977   8.759  11.790  0.00  0.00    +0.000 S 
ATOM      9  C   UNL     1      51.554   8.513  13.420  0.00  0.00    +0.000 A 
ATOM     10  N   UNL     1      52.492   8.160  14.339  0.00  0.00    +0.000 NA
ATOM     11  C   UNL     1      52.040   8.035  15.541  0.00  0.00    +0.000 A 
ATOM     12  N   UNL     1      50.730   8.217  15.905  0.00  0.00    +0.000 N 
ATOM     13  C   UNL     1      49.737   8.506  15.006  0.00  0.00    +0.000 A 
ATOM     14  O   UNL     1      48.558   8.558  15.342  0.00  0.00    +0.000 OA
ATOM     15  C   UNL     1      50.206   8.711  13.647  0.00  0.00    +0.000 A 
ATOM     16  H   UNL     1      50.435   8.070  16.862  0.00  0.00    +0.000 HD
ENDBRANCH   3   6
ENDBRANCH   1   4
BRANCH   1  17
ATOM     17  C   UNL     1      44.957   7.388  12.531  0.00  0.00    +0.000 C 
BRANCH  17  18
ATOM     18  N   UNL     1      44.572   6.792  11.233  0.00  0.00    +0.000 NA
ATOM     19  C   UNL     1      43.191   6.284  11.246  0.00  0.00    +0.000 C 
ATOM     20  C   UNL     1      43.326   4.872  11.768  0.00  0.00    +0.000 C 
ATOM     21  C   UNL     1      44.540   4.346  10.987  0.00  0.00    +0.000 C 
ATOM     22  C   UNL     1      45.426   5.618  10.903  0.00  0.00    +0.000 C 
BRANCH  21  23
ATOM     23  C   UNL     1      45.230   3.220  11.774  0.00  0.00    +0.000 C 
BRANCH  23  24
ATOM     24  O   UNL     1      44.296   2.487  12.561  0.00  0.00    +0.000 OA
ATOM     25  H   UNL     1      43.446   2.485  12.078  0.00  0.00    +0.000 HD
ENDBRANCH  23  24
ENDBRANCH  21  23
BRANCH  21  26
ATOM     26  C   UNL     1      44.052   3.862   9.579  0.00  0.00    +0.000 C 
BRANCH  26  27
ATOM     27  C   UNL     1      45.104   3.223   8.701  0.00  0.00    +0.000 A 
ATOM     28  C   UNL     1      45.321   1.839   8.751  0.00  0.00    +0.000 A 
ATOM     29  C   UNL     1      46.355   1.257   8.020  0.00  0.00    +0.000 A 
ATOM     30  C   UNL     1      47.168   2.047   7.211  0.00  0.00    +0.000 A 
ATOM     31  C   UNL     1      46.930   3.416   7.112  0.00  0.00    +0.000 A 
ATOM     32  C   UNL     1      45.898   4.000   7.847  0.00  0.00    +0.000 A 
ENDBRANCH  26  27
ENDBRANCH  21  26
ENDBRANCH  17  18
ENDBRANCH   1  17
TORSDOF 8
ENDMDL
MODEL 8
REMARK VINA RESULT:    -6.818      3.427      9.222
REMARK INTER + INTRA:         -10.653
REMARK INTER:                  -9.859
REMARK INTRA:                  -0.794
REMARK UNBOUND:                -0.846
REMARK  Name = 
REMARK  8 active torsions:
REMARK  status: ('A' for Active; 'I' for Inactive)
REMARK    1  A    between atoms: C_2  and  C_20
REMARK    2  A    between atoms: N_3  and  C_4
REMARK    3  A    between atoms: C_4  and  C_5
REMARK    4  A    between atoms: C_5  and  N_6
REMARK    5  A    between atoms: C_9  and  C_10
REMARK    6  A    between atoms: C_9  and  C_12
REMARK    7  A    between atoms: C_10  and  O_11
REMARK    8  A    between atoms: C_12  and  C_13
REMARK                            x       y       z     vdW  Elec       q    Type
REMARK                         _______ _______ _______ _____ _____    ______ ____
ROOT
ATOM      1  C   UNL     1      47.557   3.520  16.400  0.00  0.00    +0.000 C 
ENDROOT
BRANCH   1   4
ATOM      2  O   UNL     1      47.131   3.194  13.643  0.00  0.00    +0.000 OA
ATOM      3  C   UNL     1      46.735   4.223  14.187  0.00  0.00    +0.000 C 
ATOM      4  N   UNL     1      46.909   4.467  15.526  0.00  0.00    +0.000 N 
ATOM      5  H   UNL     1      46.429   5.246  15.966  0.00  0.00    +0.000 HD
BRANCH   3   6
ATOM      6  C   UNL     1      46.083   5.287  13.421  0.00  0.00    +0.000 A 
ATOM      7  C   UNL     1      46.738   6.489  13.203  0.00  0.00    +0.000 A 
ATOM      8  S   UNL     1      45.832   7.596  12.275  0.00  0.00    +0.000 S 
ATOM      9  C   UNL     1      44.551   6.489  12.109  0.00  0.00    +0.000 A 
ATOM     10  N   UNL     1      43.448   6.803  11.378  0.00  0.00    +0.000 NA
ATOM     11  C   UNL     1      42.568   5.863  11.311  0.00  0.00    +0.000 A 
ATOM     12  N   UNL     1      42.684   4.640  11.923  0.00  0.00    +0.000 N 
ATOM     13  C   UNL     1      43.741   4.303  12.725  0.00  0.00    +0.000 A 
ATOM     14  O   UNL     1      43.769   3.245  13.346  0.00  0.00    +0.000 OA
ATOM     15  C   UNL     1      44.786   5.310  12.787  0.00  0.00    +0.000 A 
ATOM     16  H   UNL     1      41.939   3.958  11.858  0.00  0.00    +0.000 HD
ENDBRANCH   3   6
ENDBRANCH   1   4
BRANCH   1  17
ATOM     17  C   UNL     1      47.509   3.944  17.881  0.00  0.00    +0.000 C 
BRANCH  17  18
ATOM     18  N   UNL     1      48.720   3.556  18.636  0.00  0.00    +0.000 NA
ATOM     19  C   UNL     1      49.022   4.504  19.721  0.00  0.00    +0.000 C 
ATOM     20  C   UNL     1      49.870   5.563  19.055  0.00  0.00    +0.000 C 
ATOM     21  C   UNL     1      50.840   4.724  18.208  0.00  0.00    +0.000 C 
ATOM     22  C   UNL     1      49.925   3.553  17.762  0.00  0.00    +0.000 C 
BRANCH  21  23
ATOM     23  C   UNL     1      51.343   5.546  17.008  0.00  0.00    +0.000 C 
BRANCH  23  24
ATOM     24  O   UNL     1      50.266   5.959  16.173  0.00  0.00    +0.000 OA
ATOM     25  H   UNL     1      50.600   6.679  15.601  0.00  0.00    +0.000 HD
ENDBRANCH  23  24
ENDBRANCH  21  23
BRANCH  21  26
ATOM     26  C   UNL     1      52.017   4.250  19.126  0.00  0.00    +0.000 C 
BRANCH  26  27
ATOM     27  C   UNL     1      53.083   3.416  18.453  0.00  0.00    +0.000 A 
ATOM     28  C   UNL     1      54.305   3.994  18.084  0.00  0.00    +0.000 A 
ATOM     29  C   UNL     1      55.252   3.258  17.373  0.00  0.00    +0.000 A 
ATOM     30  C   UNL     1      54.999   1.928  17.045  0.00  0.00    +0.000 A 
ATOM     31  C   UNL     1      53.810   1.326  17.452  0.00  0.00    +0.000 A 
ATOM     32  C   UNL     1      52.861   2.064  18.158  0.00  0.00    +0.000 A 
ENDBRANCH  26  27
ENDBRANCH  21  26
ENDBRANCH  17  18
ENDBRANCH   1  17
TORSDOF 8
ENDMDL
MODEL 9
REMARK VINA RESULT:    -6.545      4.015      4.492
REMARK INTER + INTRA:         -10.260
REMARK INTER:                  -9.447
REMARK INTRA:                  -0.813
REMARK UNBOUND:                -0.846
REMARK  Name = 
REMARK  8 active torsions:
REMARK  status: ('A' for Active; 'I' for Inactive)
REMARK    1  A    between atoms: C_2  and  C_20
REMARK    2  A    between atoms: N_3  and  C_4
REMARK    3  A    between atoms: C_4  and  C_5
REMARK    4  A    between atoms: C_5  and  N_6
REMARK    5  A    between atoms: C_9  and  C_10
REMARK    6  A    between atoms: C_9  and  C_12
REMARK    7  A    between atoms: C_10  and  O_11
REMARK    8  A    between atoms: C_12  and  C_13
REMARK                            x       y       z     vdW  Elec       q    Type
REMARK                         _______ _______ _______ _____ _____    ______ ____
ROOT
ATOM      1  C   UNL     1      47.678   5.716  13.489  0.00  0.00    +0.000 C 
ENDROOT
BRANCH   1   4
ATOM      2  O   UNL     1      48.507   7.544  15.454  0.00  0.00    +0.000 OA
ATOM      3  C   UNL     1      48.770   7.779  14.276  0.00  0.00    +0.000 C 
ATOM      4  N   UNL     1      48.395   6.945  13.253  0.00  0.00    +0.000 N 
ATOM      5  H   UNL     1      48.768   7.089  12.320  0.00  0.00    +0.000 HD
BRANCH   3   6
ATOM      6  C   UNL     1      49.469   9.003  13.883  0.00  0.00    +0.000 A 
ATOM      7  C   UNL     1      48.782  10.019  13.235  0.00  0.00    +0.000 A 
ATOM      8  S   UNL     1      49.756  11.372  12.873  0.00  0.00    +0.000 S 
ATOM      9  C   UNL     1      51.116  10.654  13.602  0.00  0.00    +0.000 A 
ATOM     10  N   UNL     1      52.301  11.316  13.671  0.00  0.00    +0.000 NA
ATOM     11  C   UNL     1      53.239  10.669  14.275  0.00  0.00    +0.000 A 
ATOM     12  N   UNL     1      53.103   9.409  14.803  0.00  0.00    +0.000 N 
ATOM     13  C   UNL     1      51.951   8.675  14.697  0.00  0.00    +0.000 A 
ATOM     14  O   UNL     1      51.890   7.512  15.083  0.00  0.00    +0.000 OA
ATOM     15  C   UNL     1      50.848   9.385  14.074  0.00  0.00    +0.000 A 
ATOM     16  H   UNL     1      53.890   8.942  15.234  0.00  0.00    +0.000 HD
ENDBRANCH   3   6
ENDBRANCH   1   4
BRANCH   1  17
ATOM     17  C   UNL     1      46.206   5.787  13.035  0.00  0.00    +0.000 C 
BRANCH  17  18
ATOM     18  N   UNL     1      46.033   5.547  11.587  0.00  0.00    +0.000 NA
ATOM     19  C   UNL     1      44.938   6.353  11.021  0.00  0.00    +0.000 C 
ATOM     20  C   UNL     1      43.709   5.499  11.232  0.00  0.00    +0.000 C 
ATOM     21  C   UNL     1      44.199   4.105  10.809  0.00  0.00    +0.000 C 
ATOM     22  C   UNL     1      45.667   4.130  11.313  0.00  0.00    +0.000 C 
BRANCH  21  23
ATOM     23  C   UNL     1      43.372   3.017  11.513  0.00  0.00    +0.000 C 
BRANCH  23  24
ATOM     24  O   UNL     1      44.053   2.500  12.652  0.00  0.00    +0.000 OA
ATOM     25  H   UNL     1      43.809   1.557  12.735  0.00  0.00    +0.000 HD
ENDBRANCH  23  24
ENDBRANCH  21  23
BRANCH  21  26
ATOM     26  C   UNL     1      44.102   3.997   9.249  0.00  0.00    +0.000 C 
BRANCH  26  27
ATOM     27  C   UNL     1      45.229   3.254   8.569  0.00  0.00    +0.000 A 
ATOM     28  C   UNL     1      46.123   3.937   7.734  0.00  0.00    +0.000 A 
ATOM     29  C   UNL     1      47.103   3.242   7.025  0.00  0.00    +0.000 A 
ATOM     30  C   UNL     1      47.216   1.861   7.163  0.00  0.00    +0.000 A 
ATOM     31  C   UNL     1      46.367   1.177   8.030  0.00  0.00    +0.000 A 
ATOM     32  C   UNL     1      45.384   1.871   8.735  0.00  0.00    +0.000 A 
ENDBRANCH  26  27
ENDBRANCH  21  26
ENDBRANCH  17  18
ENDBRANCH   1  17
TORSDOF 8
ENDMDL
