MODEL 1
REMARK VINA RESULT:    -8.327      0.000      0.000
REMARK INTER + INTRA:         -12.011
REMARK INTER:                 -11.248
REMARK INTRA:                  -0.763
REMARK UNBOUND:                -0.763
REMARK  Name = 
REMARK  6 active torsions:
REMARK  status: ('A' for Active; 'I' for Inactive)
REMARK    1  A    between atoms: C_2  and  C_3
REMARK    2  A    between atoms: N_7  and  C_8
REMARK    3  A    between atoms: C_8  and  C_9
REMARK    4  A    between atoms: C_9  and  C_12
REMARK    5  A    between atoms: C_16  and  O_17
REMARK    6  A    between atoms: O_17  and  C_18
REMARK                            x       y       z     vdW  Elec       q    Type
REMARK                         _______ _______ _______ _____ _____    ______ ____
ROOT
ATOM      1  C   UNL     1      44.052   4.724  12.410  0.00  0.00    +0.000 C 
ATOM      2  F   UNL     1      43.088   5.453  13.046  0.00  0.00    +0.000 F 
ATOM      3  F   UNL     1      43.906   3.445  12.880  0.00  0.00    +0.000 F 
ENDROOT
BRANCH   1   4
ATOM      4  C   UNL     1      45.443   5.273  12.676  0.00  0.00    +0.000 A 
ATOM      5  C   UNL     1      46.013   6.238  11.835  0.00  0.00    +0.000 A 
ATOM      6  C   UNL     1      47.268   6.777  12.126  0.00  0.00    +0.000 A 
ATOM      7  C   UNL     1      47.976   6.354  13.255  0.00  0.00    +0.000 A 
ATOM      8  C   UNL     1      47.428   5.385  14.090  0.00  0.00    +0.000 A 
ATOM      9  C   UNL     1      46.167   4.853  13.803  0.00  0.00    +0.000 A 
BRANCH   8  10
ATOM     10  O   UNL     1      48.012   4.912  15.237  0.00  0.00    +0.000 OA
BRANCH  10  11
ATOM     11  C   UNL     1      47.219   4.140  16.168  0.00  0.00    +0.000 C 
ATOM     12  C   UNL     1      47.171   4.605  17.641  0.00  0.00    +0.000 C 
ATOM     13  N   UNL     1      47.418   3.218  18.084  0.00  0.00    +0.000 NA
ATOM     14  C   UNL     1      47.930   2.891  16.739  0.00  0.00    +0.000 C 
ATOM     15  H   UNL     1      46.573   2.707  18.335  0.00  0.00    +0.000 HD
ENDBRANCH  10  11
ENDBRANCH   8  10
ENDBRANCH   1   4
BRANCH   1  16
ATOM     16  C   UNL     1      43.763   4.714  10.889  0.00  0.00    +0.000 C 
BRANCH  16  21
ATOM     17  C   UNL     1      46.520   2.438   7.536  0.00  0.00    +0.000 A 
ATOM     18  C   UNL     1      45.941   1.500   8.355  0.00  0.00    +0.000 A 
ATOM     19  N   UNL     1      44.994   1.791   9.277  0.00  0.00    +0.000 NA
ATOM     20  C   UNL     1      44.608   3.071   9.371  0.00  0.00    +0.000 A 
ATOM     21  N   UNL     1      43.640   3.366  10.317  0.00  0.00    +0.000 N 
ATOM     22  N   UNL     1      45.121   4.055   8.615  0.00  0.00    +0.000 NA
ATOM     23  C   UNL     1      46.064   3.719   7.711  0.00  0.00    +0.000 A 
ATOM     24  H   UNL     1      43.604   2.601  10.985  0.00  0.00    +0.000 HD
BRANCH  17  26
ATOM     25  N   UNL     1      48.345   1.839   5.812  0.00  0.00    +0.000 NA
ATOM     26  C   UNL     1      47.526   2.117   6.585  0.00  0.00    +0.000 C 
ENDBRANCH  17  26
ENDBRANCH  16  21
ENDBRANCH   1  16
TORSDOF 6
ENDMDL
MODEL 2
REMARK VINA RESULT:    -7.607      2.679      7.872
REMARK INTER + INTRA:         -11.039
REMARK INTER:                 -10.591
REMARK INTRA:                  -0.448
REMARK UNBOUND:                -0.763
REMARK  Name = 
REMARK  6 active torsions:
REMARK  status: ('A' for Active; 'I' for Inactive)
REMARK    1  A    between atoms: C_2  and  C_3
REMARK    2  A    between atoms: N_7  and  C_8
REMARK    3  A    between atoms: C_8  and  C_9
REMARK    4  A    between atoms: C_9  and  C_12
REMARK    5  A    between atoms: C_16  and  O_17
REMARK    6  A    between atoms: O_17  and  C_18
REMARK                            x       y       z     vdW  Elec       q    Type
REMARK                         _______ _______ _______ _____ _____    ______ ____
ROOT
ATOM      1  C   UNL     1      45.062   5.961  11.564  0.00  0.00    +0.000 C 
ATOM      2  F   UNL     1      43.996   6.030  12.416  0.00  0.00    +0.000 F 
ATOM      3  F   UNL     1      45.043   7.142  10.869  0.00  0.00    +0.000 F 
ENDROOT
BRANCH   1   4
ATOM      4  C   UNL     1      44.972   4.756  10.643  0.00  0.00    +0.000 A 
ATOM      5  C   UNL     1      44.228   3.625  11.004  0.00  0.00    +0.000 A 
ATOM      6  C   UNL     1      44.106   2.549  10.121  0.00  0.00    +0.000 A 
ATOM      7  C   UNL     1      44.732   2.583   8.871  0.00  0.00    +0.000 A 
ATOM      8  C   UNL     1      45.486   3.695   8.507  0.00  0.00    +0.000 A 
ATOM      9  C   UNL     1      45.599   4.776   9.387  0.00  0.00    +0.000 A 
BRANCH   8  10
ATOM     10  O   UNL     1      46.121   3.857   7.303  0.00  0.00    +0.000 OA
BRANCH  10  11
ATOM     11  C   UNL     1      46.531   2.688   6.556  0.00  0.00    +0.000 C 
ATOM     12  C   UNL     1      47.796   1.935   7.023  0.00  0.00    +0.000 C 
ATOM     13  N   UNL     1      48.283   1.895   5.629  0.00  0.00    +0.000 NA
ATOM     14  C   UNL     1      47.357   2.992   5.286  0.00  0.00    +0.000 C 
ATOM     15  H   UNL     1      48.078   1.021   5.144  0.00  0.00    +0.000 HD
ENDBRANCH  10  11
ENDBRANCH   8  10
ENDBRANCH   1   4
BRANCH   1  16
ATOM     16  C   UNL     1      46.370   5.908  12.389  0.00  0.00    +0.000 C 
BRANCH  16  21
ATOM     17  C   UNL     1      48.234   5.120  16.854  0.00  0.00    +0.000 A 
ATOM     18  C   UNL     1      47.338   4.123  16.557  0.00  0.00    +0.000 A 
ATOM     19  N   UNL     1      46.775   3.959  15.337  0.00  0.00    +0.000 NA
ATOM     20  C   UNL     1      47.134   4.823  14.379  0.00  0.00    +0.000 A 
ATOM     21  N   UNL     1      46.554   4.655  13.133  0.00  0.00    +0.000 N 
ATOM     22  N   UNL     1      47.998   5.831  14.578  0.00  0.00    +0.000 NA
ATOM     23  C   UNL     1      48.534   5.958  15.810  0.00  0.00    +0.000 A 
ATOM     24  H   UNL     1      45.724   4.078  13.243  0.00  0.00    +0.000 HD
BRANCH  17  26
ATOM     25  N   UNL     1      49.267   5.409  19.201  0.00  0.00    +0.000 NA
ATOM     26  C   UNL     1      48.803   5.288  18.145  0.00  0.00    +0.000 C 
ENDBRANCH  17  26
ENDBRANCH  16  21
ENDBRANCH   1  16
TORSDOF 6
ENDMDL
MODEL 3
REMARK VINA RESULT:    -7.392      1.774      1.968
REMARK INTER + INTRA:         -10.749
REMARK INTER:                 -10.080
REMARK INTRA:                  -0.668
REMARK UNBOUND:                -0.763
REMARK  Name = 
REMARK  6 active torsions:
REMARK  status: ('A' for Active; 'I' for Inactive)
REMARK    1  A    between atoms: C_2  and  C_3
REMARK    2  A    between atoms: N_7  and  C_8
REMARK    3  A    between atoms: C_8  and  C_9
REMARK    4  A    between atoms: C_9  and  C_12
REMARK    5  A    between atoms: C_16  and  O_17
REMARK    6  A    between atoms: O_17  and  C_18
REMARK                            x       y       z     vdW  Elec       q    Type
REMARK                         _______ _______ _______ _____ _____    ______ ____
ROOT
ATOM      1  C   UNL     1      44.601   4.927  12.366  0.00  0.00    +0.000 C 
ATOM      2  F   UNL     1      43.688   5.498  13.205  0.00  0.00    +0.000 F 
ATOM      3  F   UNL     1      44.667   3.612  12.747  0.00  0.00    +0.000 F 
ENDROOT
BRANCH   1   4
ATOM      4  C   UNL     1      45.954   5.612  12.451  0.00  0.00    +0.000 A 
ATOM      5  C   UNL     1      46.410   6.443  11.419  0.00  0.00    +0.000 A 
ATOM      6  C   UNL     1      47.629   7.114  11.538  0.00  0.00    +0.000 A 
ATOM      7  C   UNL     1      48.414   6.958  12.684  0.00  0.00    +0.000 A 
ATOM      8  C   UNL     1      47.980   6.124  13.711  0.00  0.00    +0.000 A 
ATOM      9  C   UNL     1      46.754   5.461  13.595  0.00  0.00    +0.000 A 
BRANCH   8  10
ATOM     10  O   UNL     1      48.646   5.915  14.891  0.00  0.00    +0.000 OA
BRANCH  10  11
ATOM     11  C   UNL     1      49.395   7.000  15.483  0.00  0.00    +0.000 C 
ATOM     12  C   UNL     1      49.733   6.914  16.988  0.00  0.00    +0.000 C 
ATOM     13  N   UNL     1      49.287   8.311  17.165  0.00  0.00    +0.000 NA
ATOM     14  C   UNL     1      48.543   8.223  15.894  0.00  0.00    +0.000 C 
ATOM     15  H   UNL     1      50.045   8.993  17.149  0.00  0.00    +0.000 HD
ENDBRANCH  10  11
ENDBRANCH   8  10
ENDBRANCH   1   4
BRANCH   1  16
ATOM     16  C   UNL     1      44.064   4.982  10.916  0.00  0.00    +0.000 C 
BRANCH  16  21
ATOM     17  C   UNL     1      46.564   2.429   7.559  0.00  0.00    +0.000 A 
ATOM     18  C   UNL     1      45.877   1.558   8.368  0.00  0.00    +0.000 A 
ATOM     19  N   UNL     1      44.964   1.949   9.288  0.00  0.00    +0.000 NA
ATOM     20  C   UNL     1      44.725   3.264   9.389  0.00  0.00    +0.000 A 
ATOM     21  N   UNL     1      43.792   3.661  10.332  0.00  0.00    +0.000 N 
ATOM     22  N   UNL     1      45.352   4.188   8.644  0.00  0.00    +0.000 NA
ATOM     23  C   UNL     1      46.256   3.754   7.742  0.00  0.00    +0.000 A 
ATOM     24  H   UNL     1      43.665   2.900  10.994  0.00  0.00    +0.000 HD
BRANCH  17  26
ATOM     25  N   UNL     1      48.312   1.656   5.826  0.00  0.00    +0.000 NA
ATOM     26  C   UNL     1      47.533   2.003   6.611  0.00  0.00    +0.000 C 
ENDBRANCH  17  26
ENDBRANCH  16  21
ENDBRANCH   1  16
TORSDOF 6
ENDMDL
MODEL 4
REMARK VINA RESULT:    -7.269      2.279      3.726
REMARK INTER + INTRA:         -10.582
REMARK INTER:                  -9.847
REMARK INTRA:                  -0.735
REMARK UNBOUND:                -0.763
REMARK  Name = 
REMARK  6 active torsions:
REMARK  status: ('A' for Active; 'I' for Inactive)
REMARK    1  A    between atoms: C_2  and  C_3
REMARK    2  A    between atoms: N_7  and  C_8
REMARK    3  A    between atoms: C_8  and  C_9
REMARK    4  A    between atoms: C_9  and  C_12
REMARK    5  A    between atoms: C_16  and  O_17
REMARK    6  A    between atoms: O_17  and  C_18
REMARK                            x       y       z     vdW  Elec       q    Type
REMARK                         _______ _______ _______ _____ _____    ______ ____
ROOT
ATOM      1  C   UNL     1      43.990   4.903  12.448  0.00  0.00    +0.000 C 
ATOM      2  F   UNL     1      43.005   5.681  12.986  0.00  0.00    +0.000 F 
ATOM      3  F   UNL     1      43.726   3.633  12.888  0.00  0.00    +0.000 F 
ENDROOT
BRANCH   1   4
ATOM      4  C   UNL     1      45.373   5.375  12.864  0.00  0.00    +0.000 A 
ATOM      5  C   UNL     1      46.048   4.776  13.935  0.00  0.00    +0.000 A 
ATOM      6  C   UNL     1      47.344   5.179  14.268  0.00  0.00    +0.000 A 
ATOM      7  C   UNL     1      47.979   6.192  13.543  0.00  0.00    +0.000 A 
ATOM      8  C   UNL     1      47.312   6.805  12.485  0.00  0.00    +0.000 A 
ATOM      9  C   UNL     1      46.020   6.393  12.147  0.00  0.00    +0.000 A 
BRANCH   8  10
ATOM     10  O   UNL     1      47.839   7.786  11.685  0.00  0.00    +0.000 OA
BRANCH  10  11
ATOM     11  C   UNL     1      48.100   9.093  12.246  0.00  0.00    +0.000 C 
ATOM     12  C   UNL     1      47.024  10.186  12.073  0.00  0.00    +0.000 C 
ATOM     13  N   UNL     1      48.067  11.143  11.652  0.00  0.00    +0.000 NA
ATOM     14  C   UNL     1      48.970  10.014  11.359  0.00  0.00    +0.000 C 
ATOM     15  H   UNL     1      48.400  11.749  12.402  0.00  0.00    +0.000 HD
ENDBRANCH  10  11
ENDBRANCH   8  10
ENDBRANCH   1   4
BRANCH   1  16
ATOM     16  C   UNL     1      43.862   4.915  10.905  0.00  0.00    +0.000 C 
BRANCH  16  21
ATOM     17  C   UNL     1      46.517   2.439   7.612  0.00  0.00    +0.000 A 
ATOM     18  C   UNL     1      45.838   1.548   8.406  0.00  0.00    +0.000 A 
ATOM     19  N   UNL     1      44.892   1.911   9.303  0.00  0.00    +0.000 NA
ATOM     20  C   UNL     1      44.611   3.218   9.397  0.00  0.00    +0.000 A 
ATOM     21  N   UNL     1      43.644   3.587  10.317  0.00  0.00    +0.000 N 
ATOM     22  N   UNL     1      45.227   4.161   8.666  0.00  0.00    +0.000 NA
ATOM     23  C   UNL     1      46.165   3.753   7.786  0.00  0.00    +0.000 A 
ATOM     24  H   UNL     1      43.524   2.823  10.977  0.00  0.00    +0.000 HD
BRANCH  17  26
ATOM     25  N   UNL     1      48.350   1.716   5.946  0.00  0.00    +0.000 NA
ATOM     26  C   UNL     1      47.521   2.042   6.688  0.00  0.00    +0.000 C 
ENDBRANCH  17  26
ENDBRANCH  16  21
ENDBRANCH   1  16
TORSDOF 6
ENDMDL
MODEL 5
REMARK VINA RESULT:    -7.114      2.641      3.104
REMARK INTER + INTRA:         -10.373
REMARK INTER:                  -9.765
REMARK INTRA:                  -0.607
REMARK UNBOUND:                -0.763
REMARK  Name = 
REMARK  6 active torsions:
REMARK  status: ('A' for Active; 'I' for Inactive)
REMARK    1  A    between atoms: C_2  and  C_3
REMARK    2  A    between atoms: N_7  and  C_8
REMARK    3  A    between atoms: C_8  and  C_9
REMARK    4  A    between atoms: C_9  and  C_12
REMARK    5  A    between atoms: C_16  and  O_17
REMARK    6  A    between atoms: O_17  and  C_18
REMARK                            x       y       z     vdW  Elec       q    Type
REMARK                         _______ _______ _______ _____ _____    ______ ____
ROOT
ATOM      1  C   UNL     1      44.614   5.128  12.023  0.00  0.00    +0.000 C 
ATOM      2  F   UNL     1      43.720   4.830  13.012  0.00  0.00    +0.000 F 
ATOM      3  F   UNL     1      45.589   4.169  12.118  0.00  0.00    +0.000 F 
ENDROOT
BRANCH   1   4
ATOM      4  C   UNL     1      45.178   6.530  12.174  0.00  0.00    +0.000 A 
ATOM      5  C   UNL     1      44.560   7.627  11.559  0.00  0.00    +0.000 A 
ATOM      6  C   UNL     1      45.055   8.919  11.756  0.00  0.00    +0.000 A 
ATOM      7  C   UNL     1      46.178   9.132  12.561  0.00  0.00    +0.000 A 
ATOM      8  C   UNL     1      46.809   8.049  13.166  0.00  0.00    +0.000 A 
ATOM      9  C   UNL     1      46.307   6.758  12.976  0.00  0.00    +0.000 A 
BRANCH   8  10
ATOM     10  O   UNL     1      47.896   8.134  13.997  0.00  0.00    +0.000 OA
BRANCH  10  11
ATOM     11  C   UNL     1      49.173   8.540  13.453  0.00  0.00    +0.000 C 
ATOM     12  C   UNL     1      49.764   7.711  12.292  0.00  0.00    +0.000 C 
ATOM     13  N   UNL     1      51.072   7.687  12.977  0.00  0.00    +0.000 NA
ATOM     14  C   UNL     1      50.401   8.035  14.245  0.00  0.00    +0.000 C 
ATOM     15  H   UNL     1      51.724   8.400  12.651  0.00  0.00    +0.000 HD
ENDBRANCH  10  11
ENDBRANCH   8  10
ENDBRANCH   1   4
BRANCH   1  16
ATOM     16  C   UNL     1      43.921   4.974  10.647  0.00  0.00    +0.000 C 
BRANCH  16  21
ATOM     17  C   UNL     1      46.604   2.449   7.414  0.00  0.00    +0.000 A 
ATOM     18  C   UNL     1      46.062   1.579   8.328  0.00  0.00    +0.000 A 
ATOM     19  N   UNL     1      45.141   1.938   9.251  0.00  0.00    +0.000 NA
ATOM     20  C   UNL     1      44.741   3.217   9.248  0.00  0.00    +0.000 A 
ATOM     21  N   UNL     1      43.799   3.582  10.196  0.00  0.00    +0.000 N 
ATOM     22  N   UNL     1      45.217   4.138   8.396  0.00  0.00    +0.000 NA
ATOM     23  C   UNL     1      46.137   3.736   7.494  0.00  0.00    +0.000 A 
ATOM     24  H   UNL     1      43.794   2.876  10.927  0.00  0.00    +0.000 HD
BRANCH  17  26
ATOM     25  N   UNL     1      48.392   1.732   5.697  0.00  0.00    +0.000 NA
ATOM     26  C   UNL     1      47.584   2.059   6.462  0.00  0.00    +0.000 C 
ENDBRANCH  17  26
ENDBRANCH  16  21
ENDBRANCH   1  16
TORSDOF 6
ENDMDL
MODEL 6
REMARK VINA RESULT:    -6.701      2.632      7.689
REMARK INTER + INTRA:          -9.815
REMARK INTER:                  -9.335
REMARK INTRA:                  -0.480
REMARK UNBOUND:                -0.763
REMARK  Name = 
REMARK  6 active torsions:
REMARK  status: ('A' for Active; 'I' for Inactive)
REMARK    1  A    between atoms: C_2  and  C_3
REMARK    2  A    between atoms: N_7  and  C_8
REMARK    3  A    between atoms: C_8  and  C_9
REMARK    4  A    between atoms: C_9  and  C_12
REMARK    5  A    between atoms: C_16  and  O_17
REMARK    6  A    between atoms: O_17  and  C_18
REMARK                            x       y       z     vdW  Elec       q    Type
REMARK                         _______ _______ _______ _____ _____    ______ ____
ROOT
ATOM      1  C   UNL     1      46.376   6.766  11.929  0.00  0.00    +0.000 C 
ATOM      2  F   UNL     1      45.949   8.063  11.874  0.00  0.00    +0.000 F 
ATOM      3  F   UNL     1      47.315   6.654  10.936  0.00  0.00    +0.000 F 
ENDROOT
BRANCH   1   4
ATOM      4  C   UNL     1      45.231   5.785  11.743  0.00  0.00    +0.000 A 
ATOM      5  C   UNL     1      44.102   5.828  12.571  0.00  0.00    +0.000 A 
ATOM      6  C   UNL     1      43.031   4.958  12.350  0.00  0.00    +0.000 A 
ATOM      7  C   UNL     1      43.076   4.029  11.307  0.00  0.00    +0.000 A 
ATOM      8  C   UNL     1      44.199   3.967  10.486  0.00  0.00    +0.000 A 
ATOM      9  C   UNL     1      45.266   4.845  10.702  0.00  0.00    +0.000 A 
BRANCH   8  10
ATOM     10  O   UNL     1      44.347   3.121   9.417  0.00  0.00    +0.000 OA
BRANCH  10  11
ATOM     11  C   UNL     1      45.660   2.931   8.842  0.00  0.00    +0.000 C 
ATOM     12  C   UNL     1      45.870   3.323   7.363  0.00  0.00    +0.000 C 
ATOM     13  N   UNL     1      46.558   2.039   7.123  0.00  0.00    +0.000 NA
ATOM     14  C   UNL     1      45.946   1.494   8.349  0.00  0.00    +0.000 C 
ATOM     15  H   UNL     1      47.575   2.101   7.166  0.00  0.00    +0.000 HD
ENDBRANCH  10  11
ENDBRANCH   8  10
ENDBRANCH   1   4
BRANCH   1  16
ATOM     16  C   UNL     1      47.078   6.519  13.286  0.00  0.00    +0.000 C 
BRANCH  16  21
ATOM     17  C   UNL     1      48.157   4.533  17.636  0.00  0.00    +0.000 A 
ATOM     18  C   UNL     1      47.252   3.730  16.985  0.00  0.00    +0.000 A 
ATOM     19  N   UNL     1      46.877   3.912  15.698  0.00  0.00    +0.000 NA
ATOM     20  C   UNL     1      47.442   4.931  15.036  0.00  0.00    +0.000 A 
ATOM     21  N   UNL     1      47.055   5.115  13.720  0.00  0.00    +0.000 N 
ATOM     22  N   UNL     1      48.332   5.769  15.591  0.00  0.00    +0.000 NA
ATOM     23  C   UNL     1      48.674   5.552  16.878  0.00  0.00    +0.000 A 
ATOM     24  H   UNL     1      46.180   4.619  13.572  0.00  0.00    +0.000 HD
BRANCH  17  26
ATOM     25  N   UNL     1      48.815   4.191  20.107  0.00  0.00    +0.000 NA
ATOM     26  C   UNL     1      48.525   4.338  18.994  0.00  0.00    +0.000 C 
ENDBRANCH  17  26
ENDBRANCH  16  21
ENDBRANCH   1  16
TORSDOF 6
ENDMDL
MODEL 7
REMARK VINA RESULT:    -6.345      2.761      3.976
REMARK INTER + INTRA:          -9.334
REMARK INTER:                  -8.677
REMARK INTRA:                  -0.657
REMARK UNBOUND:                -0.763
REMARK  Name = 
REMARK  6 active torsions:
REMARK  status: ('A' for Active; 'I' for Inactive)
REMARK    1  A    between atoms: C_2  and  C_3
REMARK    2  A    between atoms: N_7  and  C_8
REMARK    3  A    between atoms: C_8  and  C_9
REMARK    4  A    between atoms: C_9  and  C_12
REMARK    5  A    between atoms: C_16  and  O_17
REMARK    6  A    between atoms: O_17  and  C_18
REMARK                            x       y       z     vdW  Elec       q    Type
REMARK                         _______ _______ _______ _____ _____    ______ ____
ROOT
ATOM      1  C   UNL     1      47.685   8.110  12.497  0.00  0.00    +0.000 C 
ATOM      2  F   UNL     1      48.096   7.069  11.713  0.00  0.00    +0.000 F 
ATOM      3  F   UNL     1      48.185   9.234  11.894  0.00  0.00    +0.000 F 
ENDROOT
BRANCH   1   4
ATOM      4  C   UNL     1      48.174   7.966  13.928  0.00  0.00    +0.000 A 
ATOM      5  C   UNL     1      48.374   9.091  14.739  0.00  0.00    +0.000 A 
ATOM      6  C   UNL     1      48.766   8.940  16.072  0.00  0.00    +0.000 A 
ATOM      7  C   UNL     1      48.973   7.667  16.609  0.00  0.00    +0.000 A 
ATOM      8  C   UNL     1      48.792   6.542  15.809  0.00  0.00    +0.000 A 
ATOM      9  C   UNL     1      48.389   6.694  14.479  0.00  0.00    +0.000 A 
BRANCH   8  10
ATOM     10  O   UNL     1      48.936   5.245  16.230  0.00  0.00    +0.000 OA
BRANCH  10  11
ATOM     11  C   UNL     1      47.768   4.396  16.318  0.00  0.00    +0.000 C 
ATOM     12  C   UNL     1      46.973   4.390  17.643  0.00  0.00    +0.000 C 
ATOM     13  N   UNL     1      46.942   2.914  17.614  0.00  0.00    +0.000 NA
ATOM     14  C   UNL     1      48.069   2.919  16.663  0.00  0.00    +0.000 C 
ATOM     15  H   UNL     1      46.082   2.525  17.227  0.00  0.00    +0.000 HD
ENDBRANCH  10  11
ENDBRANCH   8  10
ENDBRANCH   1   4
BRANCH   1  16
ATOM     16  C   UNL     1      46.140   8.192  12.464  0.00  0.00    +0.000 C 
BRANCH  16  21
ATOM     17  C   UNL     1      44.927   3.795  10.671  0.00  0.00    +0.000 A 
ATOM     18  C   UNL     1      45.121   3.691  12.026  0.00  0.00    +0.000 A 
ATOM     19  N   UNL     1      45.304   4.755  12.842  0.00  0.00    +0.000 NA
ATOM     20  C   UNL     1      45.280   5.969  12.275  0.00  0.00    +0.000 A 
ATOM     21  N   UNL     1      45.471   7.056  13.111  0.00  0.00    +0.000 N 
ATOM     22  N   UNL     1      45.102   6.166  10.959  0.00  0.00    +0.000 NA
ATOM     23  C   UNL     1      44.925   5.077  10.183  0.00  0.00    +0.000 A 
ATOM     24  H   UNL     1      45.893   6.724  13.974  0.00  0.00    +0.000 HD
BRANCH  17  26
ATOM     25  N   UNL     1      44.606   1.752   9.126  0.00  0.00    +0.000 NA
ATOM     26  C   UNL     1      44.753   2.665   9.827  0.00  0.00    +0.000 C 
ENDBRANCH  17  26
ENDBRANCH  16  21
ENDBRANCH   1  16
TORSDOF 6
ENDMDL
MODEL 8
REMARK VINA RESULT:    -6.154      2.967      7.458
REMARK INTER + INTRA:          -9.077
REMARK INTER:                  -8.398
REMARK INTRA:                  -0.678
REMARK UNBOUND:                -0.763
REMARK  Name = 
REMARK  6 active torsions:
REMARK  status: ('A' for Active; 'I' for Inactive)
REMARK    1  A    between atoms: C_2  and  C_3
REMARK    2  A    between atoms: N_7  and  C_8
REMARK    3  A    between atoms: C_8  and  C_9
REMARK    4  A    between atoms: C_9  and  C_12
REMARK    5  A    between atoms: C_16  and  O_17
REMARK    6  A    between atoms: O_17  and  C_18
REMARK                            x       y       z     vdW  Elec       q    Type
REMARK                         _______ _______ _______ _____ _____    ______ ____
ROOT
ATOM      1  C   UNL     1      47.661   6.322  13.974  0.00  0.00    +0.000 C 
ATOM      2  F   UNL     1      48.162   7.320  14.760  0.00  0.00    +0.000 F 
ATOM      3  F   UNL     1      48.725   5.876  13.235  0.00  0.00    +0.000 F 
ENDROOT
BRANCH   1   4
ATOM      4  C   UNL     1      46.523   6.812  13.095  0.00  0.00    +0.000 A 
ATOM      5  C   UNL     1      46.337   8.178  12.849  0.00  0.00    +0.000 A 
ATOM      6  C   UNL     1      45.323   8.610  11.991  0.00  0.00    +0.000 A 
ATOM      7  C   UNL     1      44.475   7.685  11.373  0.00  0.00    +0.000 A 
ATOM      8  C   UNL     1      44.641   6.325  11.621  0.00  0.00    +0.000 A 
ATOM      9  C   UNL     1      45.662   5.894  12.473  0.00  0.00    +0.000 A 
BRANCH   8  10
ATOM     10  O   UNL     1      43.893   5.325  11.055  0.00  0.00    +0.000 OA
BRANCH  10  11
ATOM     11  C   UNL     1      44.470   4.007  10.908  0.00  0.00    +0.000 C 
ATOM     12  C   UNL     1      44.397   3.332   9.521  0.00  0.00    +0.000 C 
ATOM     13  N   UNL     1      43.934   2.082  10.156  0.00  0.00    +0.000 NA
ATOM     14  C   UNL     1      43.551   2.848  11.358  0.00  0.00    +0.000 C 
ATOM     15  H   UNL     1      44.675   1.403  10.323  0.00  0.00    +0.000 HD
ENDBRANCH  10  11
ENDBRANCH   8  10
ENDBRANCH   1   4
BRANCH   1  16
ATOM     16  C   UNL     1      47.179   5.159  14.875  0.00  0.00    +0.000 C 
BRANCH  16  21
ATOM     17  C   UNL     1      50.389   2.396  17.343  0.00  0.00    +0.000 A 
ATOM     18  C   UNL     1      50.371   3.658  17.883  0.00  0.00    +0.000 A 
ATOM     19  N   UNL     1      49.475   4.611  17.536  0.00  0.00    +0.000 NA
ATOM     20  C   UNL     1      48.555   4.277  16.620  0.00  0.00    +0.000 A 
ATOM     21  N   UNL     1      47.640   5.255  16.266  0.00  0.00    +0.000 N 
ATOM     22  N   UNL     1      48.498   3.071  16.035  0.00  0.00    +0.000 NA
ATOM     23  C   UNL     1      49.414   2.153  16.410  0.00  0.00    +0.000 A 
ATOM     24  H   UNL     1      48.012   6.157  16.550  0.00  0.00    +0.000 HD
BRANCH  17  26
ATOM     25  N   UNL     1      52.145   0.620  17.993  0.00  0.00    +0.000 NA
ATOM     26  C   UNL     1      51.349   1.414  17.706  0.00  0.00    +0.000 C 
ENDBRANCH  17  26
ENDBRANCH  16  21
ENDBRANCH   1  16
TORSDOF 6
ENDMDL
MODEL 9
REMARK VINA RESULT:    -5.637      3.774      8.073
REMARK INTER + INTRA:          -8.378
REMARK INTER:                  -7.757
REMARK INTRA:                  -0.621
REMARK UNBOUND:                -0.763
REMARK  Name = 
REMARK  6 active torsions:
REMARK  status: ('A' for Active; 'I' for Inactive)
REMARK    1  A    between atoms: C_2  and  C_3
REMARK    2  A    between atoms: N_7  and  C_8
REMARK    3  A    between atoms: C_8  and  C_9
REMARK    4  A    between atoms: C_9  and  C_12
REMARK    5  A    between atoms: C_16  and  O_17
REMARK    6  A    between atoms: O_17  and  C_18
REMARK                            x       y       z     vdW  Elec       q    Type
REMARK                         _______ _______ _______ _____ _____    ______ ____
ROOT
ATOM      1  C   UNL     1      49.053   8.315  12.240  0.00  0.00    +0.000 C 
ATOM      2  F   UNL     1      49.433   9.485  11.647  0.00  0.00    +0.000 F 
ATOM      3  F   UNL     1      49.782   7.340  11.611  0.00  0.00    +0.000 F 
ENDROOT
BRANCH   1   4
ATOM      4  C   UNL     1      47.558   8.078  12.115  0.00  0.00    +0.000 A 
ATOM      5  C   UNL     1      46.636   9.070  12.476  0.00  0.00    +0.000 A 
ATOM      6  C   UNL     1      45.267   8.859  12.300  0.00  0.00    +0.000 A 
ATOM      7  C   UNL     1      44.797   7.654  11.770  0.00  0.00    +0.000 A 
ATOM      8  C   UNL     1      45.702   6.655  11.421  0.00  0.00    +0.000 A 
ATOM      9  C   UNL     1      47.073   6.870  11.588  0.00  0.00    +0.000 A 
BRANCH   8  10
ATOM     10  O   UNL     1      45.366   5.446  10.868  0.00  0.00    +0.000 OA
BRANCH  10  11
ATOM     11  C   UNL     1      44.587   4.505  11.642  0.00  0.00    +0.000 C 
ATOM     12  C   UNL     1      44.420   3.072  11.090  0.00  0.00    +0.000 C 
ATOM     13  N   UNL     1      42.972   3.135  11.373  0.00  0.00    +0.000 NA
ATOM     14  C   UNL     1      43.059   4.607  11.434  0.00  0.00    +0.000 C 
ATOM     15  H   UNL     1      42.704   2.705  12.258  0.00  0.00    +0.000 HD
ENDBRANCH  10  11
ENDBRANCH   8  10
ENDBRANCH   1   4
BRANCH   1  16
ATOM     16  C   UNL     1      49.469   8.341  13.730  0.00  0.00    +0.000 C 
BRANCH  16  21
ATOM     17  C   UNL     1      48.246   6.449  18.084  0.00  0.00    +0.000 A 
ATOM     18  C   UNL     1      48.365   5.433  17.169  0.00  0.00    +0.000 A 
ATOM     19  N   UNL     1      48.851   5.604  15.917  0.00  0.00    +0.000 NA
ATOM     20  C   UNL     1      49.242   6.840  15.578  0.00  0.00    +0.000 A 
ATOM     21  N   UNL     1      49.736   7.011  14.296  0.00  0.00    +0.000 N 
ATOM     22  N   UNL     1      49.158   7.894  16.405  0.00  0.00    +0.000 NA
ATOM     23  C   UNL     1      48.665   7.678  17.642  0.00  0.00    +0.000 A 
ATOM     24  H   UNL     1      49.439   6.220  13.731  0.00  0.00    +0.000 HD
BRANCH  17  26
ATOM     25  N   UNL     1      47.295   6.085  20.455  0.00  0.00    +0.000 NA
ATOM     26  C   UNL     1      47.717   6.256  19.388  0.00  0.00    +0.000 C 
ENDBRANCH  17  26
ENDBRANCH  16  21
ENDBRANCH   1  16
TORSDOF 6
ENDMDL
