MODEL 1
REMARK VINA RESULT:    -7.101      0.000      0.000
REMARK INTER + INTRA:          -9.539
REMARK INTER:                  -8.969
REMARK INTRA:                  -0.569
REMARK UNBOUND:                -0.569
REMARK  Name = 
REMARK  5 active torsions:
REMARK  status: ('A' for Active; 'I' for Inactive)
REMARK    1  A    between atoms: N_1  and  C_2
REMARK    2  A    between atoms: C_2  and  C_3
REMARK    3  A    between atoms: C_3  and  C_4
REMARK    4  A    between atoms: C_8  and  C_9
REMARK    5  A    between atoms: C_9  and  N_10
REMARK                            x       y       z     vdW  Elec       q    Type
REMARK                         _______ _______ _______ _____ _____    ______ ____
ROOT
ATOM      1  C   UNL     1      46.010   3.248   7.752  0.00  0.00    +0.000 A 
ATOM      2  C   UNL     1      45.801   1.903   8.036  0.00  0.00    +0.000 A 
ATOM      3  N   UNL     1      45.063   1.458   9.078  0.00  0.00    +0.000 NA
ATOM      4  C   UNL     1      44.489   2.395   9.864  0.00  0.00    +0.000 A 
ATOM      5  C   UNL     1      44.608   3.766   9.666  0.00  0.00    +0.000 A 
ATOM      6  C   UNL     1      45.415   4.186   8.602  0.00  0.00    +0.000 A 
ENDROOT
BRANCH   1   7
ATOM      7  C   UNL     1      46.775   3.680   6.528  0.00  0.00    +0.000 C 
BRANCH   7   8
ATOM      8  C   UNL     1      47.114   2.480   5.631  0.00  0.00    +0.000 C 
BRANCH   8   9
ATOM      9  N   UNL     1      48.530   2.131   5.716  0.00  0.00    +0.000 NA
ATOM     10  H   UNL     1      48.839   2.215   6.684  0.00  0.00    +0.000 HD
ATOM     11  H   UNL     1      49.084   2.805   5.186  0.00  0.00    +0.000 HD
ENDBRANCH   8   9
ENDBRANCH   7   8
ENDBRANCH   1   7
BRANCH   5  12
ATOM     12  C   UNL     1      43.855   4.742  10.527  0.00  0.00    +0.000 C 
BRANCH  12  13
ATOM     13  N   UNL     1      44.737   5.636  11.268  0.00  0.00    +0.000 N 
ATOM     14  C   UNL     1      44.861   6.981  11.014  0.00  0.00    +0.000 A 
ATOM     15  C   UNL     1      45.753   7.504  11.919  0.00  0.00    +0.000 A 
ATOM     16  C   UNL     1      46.212   6.439  12.738  0.00  0.00    +0.000 A 
ATOM     17  C   UNL     1      47.102   6.369  13.829  0.00  0.00    +0.000 A 
ATOM     18  C   UNL     1      47.338   5.132  14.421  0.00  0.00    +0.000 A 
ATOM     19  F   UNL     1      48.156   5.062  15.482  0.00  0.00    +0.000 F 
ATOM     20  C   UNL     1      46.752   3.969  13.946  0.00  0.00    +0.000 A 
ATOM     21  C   UNL     1      45.877   4.012  12.856  0.00  0.00    +0.000 A 
ATOM     22  C   UNL     1      45.599   5.265  12.283  0.00  0.00    +0.000 A 
ENDBRANCH  12  13
ENDBRANCH   5  12
TORSDOF 5
ENDMDL
MODEL 2
REMARK VINA RESULT:    -7.090      1.503      2.208
REMARK INTER + INTRA:          -9.524
REMARK INTER:                  -9.014
REMARK INTRA:                  -0.510
REMARK UNBOUND:                -0.569
REMARK  Name = 
REMARK  5 active torsions:
REMARK  status: ('A' for Active; 'I' for Inactive)
REMARK    1  A    between atoms: N_1  and  C_2
REMARK    2  A    between atoms: C_2  and  C_3
REMARK    3  A    between atoms: C_3  and  C_4
REMARK    4  A    between atoms: C_8  and  C_9
REMARK    5  A    between atoms: C_9  and  N_10
REMARK                            x       y       z     vdW  Elec       q    Type
REMARK                         _______ _______ _______ _____ _____    ______ ____
ROOT
ATOM      1  C   UNL     1      45.770   3.207   7.956  0.00  0.00    +0.000 A 
ATOM      2  C   UNL     1      45.004   2.093   8.283  0.00  0.00    +0.000 A 
ATOM      3  N   UNL     1      44.216   2.015   9.378  0.00  0.00    +0.000 NA
ATOM      4  C   UNL     1      44.171   3.103  10.178  0.00  0.00    +0.000 A 
ATOM      5  C   UNL     1      44.874   4.280   9.942  0.00  0.00    +0.000 A 
ATOM      6  C   UNL     1      45.711   4.305   8.821  0.00  0.00    +0.000 A 
ENDROOT
BRANCH   1   7
ATOM      7  C   UNL     1      46.566   3.263   6.678  0.00  0.00    +0.000 C 
BRANCH   7   8
ATOM      8  C   UNL     1      47.910   2.536   6.826  0.00  0.00    +0.000 C 
BRANCH   8   9
ATOM      9  N   UNL     1      48.325   1.918   5.569  0.00  0.00    +0.000 NA
ATOM     10  H   UNL     1      48.228   2.595   4.813  0.00  0.00    +0.000 HD
ATOM     11  H   UNL     1      47.695   1.148   5.339  0.00  0.00    +0.000 HD
ENDBRANCH   8   9
ENDBRANCH   7   8
ENDBRANCH   1   7
BRANCH   5  12
ATOM     12  C   UNL     1      44.691   5.482  10.827  0.00  0.00    +0.000 C 
BRANCH  12  13
ATOM     13  N   UNL     1      45.551   5.450  12.004  0.00  0.00    +0.000 N 
ATOM     14  C   UNL     1      45.309   4.678  13.114  0.00  0.00    +0.000 A 
ATOM     15  C   UNL     1      46.337   4.880  14.004  0.00  0.00    +0.000 A 
ATOM     16  C   UNL     1      47.223   5.829  13.432  0.00  0.00    +0.000 A 
ATOM     17  C   UNL     1      48.438   6.402  13.860  0.00  0.00    +0.000 A 
ATOM     18  C   UNL     1      49.068   7.328  13.035  0.00  0.00    +0.000 A 
ATOM     19  F   UNL     1      50.242   7.852  13.419  0.00  0.00    +0.000 F 
ATOM     20  C   UNL     1      48.518   7.725  11.826  0.00  0.00    +0.000 A 
ATOM     21  C   UNL     1      47.306   7.181  11.388  0.00  0.00    +0.000 A 
ATOM     22  C   UNL     1      46.689   6.212  12.196  0.00  0.00    +0.000 A 
ENDBRANCH  12  13
ENDBRANCH   5  12
TORSDOF 5
ENDMDL
MODEL 3
REMARK VINA RESULT:    -7.020      2.934      6.272
REMARK INTER + INTRA:          -9.436
REMARK INTER:                  -8.894
REMARK INTRA:                  -0.542
REMARK UNBOUND:                -0.569
REMARK  Name = 
REMARK  5 active torsions:
REMARK  status: ('A' for Active; 'I' for Inactive)
REMARK    1  A    between atoms: N_1  and  C_2
REMARK    2  A    between atoms: C_2  and  C_3
REMARK    3  A    between atoms: C_3  and  C_4
REMARK    4  A    between atoms: C_8  and  C_9
REMARK    5  A    between atoms: C_9  and  N_10
REMARK                            x       y       z     vdW  Elec       q    Type
REMARK                         _______ _______ _______ _____ _____    ______ ____
ROOT
ATOM      1  C   UNL     1      46.707   6.463  13.133  0.00  0.00    +0.000 A 
ATOM      2  C   UNL     1      46.742   7.849  13.032  0.00  0.00    +0.000 A 
ATOM      3  N   UNL     1      45.879   8.573  12.284  0.00  0.00    +0.000 NA
ATOM      4  C   UNL     1      44.924   7.888  11.619  0.00  0.00    +0.000 A 
ATOM      5  C   UNL     1      44.776   6.506  11.660  0.00  0.00    +0.000 A 
ATOM      6  C   UNL     1      45.715   5.789  12.411  0.00  0.00    +0.000 A 
ENDROOT
BRANCH   1   7
ATOM      7  C   UNL     1      47.646   5.720  14.047  0.00  0.00    +0.000 C 
BRANCH   7   8
ATOM      8  C   UNL     1      46.919   4.593  14.796  0.00  0.00    +0.000 C 
BRANCH   8   9
ATOM      9  N   UNL     1      47.455   3.281  14.437  0.00  0.00    +0.000 NA
ATOM     10  H   UNL     1      46.766   2.778  13.879  0.00  0.00    +0.000 HD
ATOM     11  H   UNL     1      47.593   2.724  15.281  0.00  0.00    +0.000 HD
ENDBRANCH   8   9
ENDBRANCH   7   8
ENDBRANCH   1   7
BRANCH   5  12
ATOM     12  C   UNL     1      43.624   5.829  10.970  0.00  0.00    +0.000 C 
BRANCH  12  13
ATOM     13  N   UNL     1      43.894   4.428  10.669  0.00  0.00    +0.000 N 
ATOM     14  C   UNL     1      43.380   3.374  11.385  0.00  0.00    +0.000 A 
ATOM     15  C   UNL     1      43.822   2.210  10.801  0.00  0.00    +0.000 A 
ATOM     16  C   UNL     1      44.656   2.563   9.709  0.00  0.00    +0.000 A 
ATOM     17  C   UNL     1      45.361   1.813   8.746  0.00  0.00    +0.000 A 
ATOM     18  C   UNL     1      46.106   2.491   7.785  0.00  0.00    +0.000 A 
ATOM     19  F   UNL     1      46.752   1.786   6.845  0.00  0.00    +0.000 F 
ATOM     20  C   UNL     1      46.198   3.874   7.772  0.00  0.00    +0.000 A 
ATOM     21  C   UNL     1      45.517   4.638   8.726  0.00  0.00    +0.000 A 
ATOM     22  C   UNL     1      44.728   3.961   9.670  0.00  0.00    +0.000 A 
ENDBRANCH  12  13
ENDBRANCH   5  12
TORSDOF 5
ENDMDL
MODEL 4
REMARK VINA RESULT:    -6.608      3.196      6.348
REMARK INTER + INTRA:          -8.916
REMARK INTER:                  -8.386
REMARK INTRA:                  -0.530
REMARK UNBOUND:                -0.569
REMARK  Name = 
REMARK  5 active torsions:
REMARK  status: ('A' for Active; 'I' for Inactive)
REMARK    1  A    between atoms: N_1  and  C_2
REMARK    2  A    between atoms: C_2  and  C_3
REMARK    3  A    between atoms: C_3  and  C_4
REMARK    4  A    between atoms: C_8  and  C_9
REMARK    5  A    between atoms: C_9  and  N_10
REMARK                            x       y       z     vdW  Elec       q    Type
REMARK                         _______ _______ _______ _____ _____    ______ ____
ROOT
ATOM      1  C   UNL     1      47.786   7.569  12.589  0.00  0.00    +0.000 A 
ATOM      2  C   UNL     1      48.467   6.615  13.336  0.00  0.00    +0.000 A 
ATOM      3  N   UNL     1      47.883   5.525  13.882  0.00  0.00    +0.000 NA
ATOM      4  C   UNL     1      46.560   5.365  13.658  0.00  0.00    +0.000 A 
ATOM      5  C   UNL     1      45.779   6.239  12.910  0.00  0.00    +0.000 A 
ATOM      6  C   UNL     1      46.413   7.377  12.398  0.00  0.00    +0.000 A 
ENDROOT
BRANCH   1   7
ATOM      7  C   UNL     1      48.510   8.719  11.939  0.00  0.00    +0.000 C 
BRANCH   7   8
ATOM      8  C   UNL     1      47.796  10.051  12.209  0.00  0.00    +0.000 C 
BRANCH   8   9
ATOM      9  N   UNL     1      48.017  10.509  13.578  0.00  0.00    +0.000 NA
ATOM     10  H   UNL     1      47.116  10.661  14.032  0.00  0.00    +0.000 HD
ATOM     11  H   UNL     1      48.482  11.418  13.567  0.00  0.00    +0.000 HD
ENDBRANCH   8   9
ENDBRANCH   7   8
ENDBRANCH   1   7
BRANCH   5  12
ATOM     12  C   UNL     1      44.335   5.936  12.623  0.00  0.00    +0.000 C 
BRANCH  12  13
ATOM     13  N   UNL     1      44.155   4.681  11.903  0.00  0.00    +0.000 N 
ATOM     14  C   UNL     1      43.481   3.595  12.404  0.00  0.00    +0.000 A 
ATOM     15  C   UNL     1      43.488   2.610  11.444  0.00  0.00    +0.000 A 
ATOM     16  C   UNL     1      44.216   3.100  10.329  0.00  0.00    +0.000 A 
ATOM     17  C   UNL     1      44.533   2.560   9.066  0.00  0.00    +0.000 A 
ATOM     18  C   UNL     1      45.285   3.327   8.181  0.00  0.00    +0.000 A 
ATOM     19  F   UNL     1      45.562   2.835   6.964  0.00  0.00    +0.000 F 
ATOM     20  C   UNL     1      45.756   4.586   8.520  0.00  0.00    +0.000 A 
ATOM     21  C   UNL     1      45.465   5.136   9.773  0.00  0.00    +0.000 A 
ATOM     22  C   UNL     1      44.668   4.385  10.653  0.00  0.00    +0.000 A 
ENDBRANCH  12  13
ENDBRANCH   5  12
TORSDOF 5
ENDMDL
MODEL 5
REMARK VINA RESULT:    -6.112      2.471      3.674
REMARK INTER + INTRA:          -8.289
REMARK INTER:                  -7.710
REMARK INTRA:                  -0.579
REMARK UNBOUND:                -0.569
REMARK  Name = 
REMARK  5 active torsions:
REMARK  status: ('A' for Active; 'I' for Inactive)
REMARK    1  A    between atoms: N_1  and  C_2
REMARK    2  A    between atoms: C_2  and  C_3
REMARK    3  A    between atoms: C_3  and  C_4
REMARK    4  A    between atoms: C_8  and  C_9
REMARK    5  A    between atoms: C_9  and  N_10
REMARK                            x       y       z     vdW  Elec       q    Type
REMARK                         _______ _______ _______ _____ _____    ______ ____
ROOT
ATOM      1  C   UNL     1      44.603   3.884   9.633  0.00  0.00    +0.000 A 
ATOM      2  C   UNL     1      43.935   2.750  10.083  0.00  0.00    +0.000 A 
ATOM      3  N   UNL     1      43.552   2.559  11.366  0.00  0.00    +0.000 NA
ATOM      4  C   UNL     1      43.828   3.552  12.240  0.00  0.00    +0.000 A 
ATOM      5  C   UNL     1      44.470   4.739  11.902  0.00  0.00    +0.000 A 
ATOM      6  C   UNL     1      44.888   4.879  10.574  0.00  0.00    +0.000 A 
ENDROOT
BRANCH   1   7
ATOM      7  C   UNL     1      44.931   4.072   8.175  0.00  0.00    +0.000 C 
BRANCH   7   8
ATOM      8  C   UNL     1      46.381   3.666   7.873  0.00  0.00    +0.000 C 
BRANCH   8   9
ATOM      9  N   UNL     1      46.772   4.047   6.518  0.00  0.00    +0.000 NA
ATOM     10  H   UNL     1      45.970   3.945   5.895  0.00  0.00    +0.000 HD
ATOM     11  H   UNL     1      47.481   3.402   6.169  0.00  0.00    +0.000 HD
ENDBRANCH   8   9
ENDBRANCH   7   8
ENDBRANCH   1   7
BRANCH   5  12
ATOM     12  C   UNL     1      44.650   5.837  12.914  0.00  0.00    +0.000 C 
BRANCH  12  13
ATOM     13  N   UNL     1      45.966   6.459  12.840  0.00  0.00    +0.000 N 
ATOM     14  C   UNL     1      47.144   5.801  13.098  0.00  0.00    +0.000 A 
ATOM     15  C   UNL     1      48.177   6.687  12.904  0.00  0.00    +0.000 A 
ATOM     16  C   UNL     1      47.611   7.938  12.542  0.00  0.00    +0.000 A 
ATOM     17  C   UNL     1      48.163   9.191  12.207  0.00  0.00    +0.000 A 
ATOM     18  C   UNL     1      47.302  10.238  11.894  0.00  0.00    +0.000 A 
ATOM     19  F   UNL     1      47.819  11.424  11.541  0.00  0.00    +0.000 F 
ATOM     20  C   UNL     1      45.924  10.092  11.938  0.00  0.00    +0.000 A 
ATOM     21  C   UNL     1      45.354   8.861  12.281  0.00  0.00    +0.000 A 
ATOM     22  C   UNL     1      46.219   7.788  12.553  0.00  0.00    +0.000 A 
ENDBRANCH  12  13
ENDBRANCH   5  12
TORSDOF 5
ENDMDL
MODEL 6
REMARK VINA RESULT:    -6.007      2.836      6.562
REMARK INTER + INTRA:          -8.156
REMARK INTER:                  -7.533
REMARK INTRA:                  -0.623
REMARK UNBOUND:                -0.569
REMARK  Name = 
REMARK  5 active torsions:
REMARK  status: ('A' for Active; 'I' for Inactive)
REMARK    1  A    between atoms: N_1  and  C_2
REMARK    2  A    between atoms: C_2  and  C_3
REMARK    3  A    between atoms: C_3  and  C_4
REMARK    4  A    between atoms: C_8  and  C_9
REMARK    5  A    between atoms: C_9  and  N_10
REMARK                            x       y       z     vdW  Elec       q    Type
REMARK                         _______ _______ _______ _____ _____    ______ ____
ROOT
ATOM      1  C   UNL     1      45.735   5.282  13.097  0.00  0.00    +0.000 A 
ATOM      2  C   UNL     1      46.282   6.536  12.846  0.00  0.00    +0.000 A 
ATOM      3  N   UNL     1      46.207   7.167  11.653  0.00  0.00    +0.000 NA
ATOM      4  C   UNL     1      45.539   6.530  10.666  0.00  0.00    +0.000 A 
ATOM      5  C   UNL     1      44.933   5.286  10.805  0.00  0.00    +0.000 A 
ATOM      6  C   UNL     1      45.070   4.647  12.042  0.00  0.00    +0.000 A 
ENDROOT
BRANCH   1   7
ATOM      7  C   UNL     1      45.783   4.668  14.472  0.00  0.00    +0.000 C 
BRANCH   7   8
ATOM      8  C   UNL     1      47.222   4.310  14.872  0.00  0.00    +0.000 C 
BRANCH   8   9
ATOM      9  N   UNL     1      47.636   3.033  14.294  0.00  0.00    +0.000 NA
ATOM     10  H   UNL     1      47.517   2.296  14.989  0.00  0.00    +0.000 HD
ATOM     11  H   UNL     1      48.633   3.059  14.080  0.00  0.00    +0.000 HD
ENDBRANCH   8   9
ENDBRANCH   7   8
ENDBRANCH   1   7
BRANCH   5  12
ATOM     12  C   UNL     1      44.123   4.690   9.687  0.00  0.00    +0.000 C 
BRANCH  12  13
ATOM     13  N   UNL     1      44.672   3.428   9.205  0.00  0.00    +0.000 N 
ATOM     14  C   UNL     1      44.279   2.193   9.661  0.00  0.00    +0.000 A 
ATOM     15  C   UNL     1      44.985   1.240   8.965  0.00  0.00    +0.000 A 
ATOM     16  C   UNL     1      45.860   1.914   8.074  0.00  0.00    +0.000 A 
ATOM     17  C   UNL     1      46.792   1.475   7.112  0.00  0.00    +0.000 A 
ATOM     18  C   UNL     1      47.505   2.426   6.389  0.00  0.00    +0.000 A 
ATOM     19  F   UNL     1      48.369   2.016   5.448  0.00  0.00    +0.000 F 
ATOM     20  C   UNL     1      47.348   3.785   6.612  0.00  0.00    +0.000 A 
ATOM     21  C   UNL     1      46.438   4.244   7.571  0.00  0.00    +0.000 A 
ATOM     22  C   UNL     1      45.683   3.289   8.272  0.00  0.00    +0.000 A 
ENDBRANCH  12  13
ENDBRANCH   5  12
TORSDOF 5
ENDMDL
MODEL 7
REMARK VINA RESULT:    -5.938      2.378      3.252
REMARK INTER + INTRA:          -8.070
REMARK INTER:                  -7.528
REMARK INTRA:                  -0.542
REMARK UNBOUND:                -0.569
REMARK  Name = 
REMARK  5 active torsions:
REMARK  status: ('A' for Active; 'I' for Inactive)
REMARK    1  A    between atoms: N_1  and  C_2
REMARK    2  A    between atoms: C_2  and  C_3
REMARK    3  A    between atoms: C_3  and  C_4
REMARK    4  A    between atoms: C_8  and  C_9
REMARK    5  A    between atoms: C_9  and  N_10
REMARK                            x       y       z     vdW  Elec       q    Type
REMARK                         _______ _______ _______ _____ _____    ______ ____
ROOT
ATOM      1  C   UNL     1      44.737   4.025   9.834  0.00  0.00    +0.000 A 
ATOM      2  C   UNL     1      43.800   3.071  10.216  0.00  0.00    +0.000 A 
ATOM      3  N   UNL     1      43.460   2.819  11.500  0.00  0.00    +0.000 NA
ATOM      4  C   UNL     1      44.066   3.564  12.450  0.00  0.00    +0.000 A 
ATOM      5  C   UNL     1      45.001   4.560  12.189  0.00  0.00    +0.000 A 
ATOM      6  C   UNL     1      45.357   4.761  10.850  0.00  0.00    +0.000 A 
ENDROOT
BRANCH   1   7
ATOM      7  C   UNL     1      45.013   4.315   8.382  0.00  0.00    +0.000 C 
BRANCH   7   8
ATOM      8  C   UNL     1      46.108   3.392   7.828  0.00  0.00    +0.000 C 
BRANCH   8   9
ATOM      9  N   UNL     1      46.879   4.050   6.776  0.00  0.00    +0.000 NA
ATOM     10  H   UNL     1      46.973   3.416   5.981  0.00  0.00    +0.000 HD
ATOM     11  H   UNL     1      47.829   4.228   7.105  0.00  0.00    +0.000 HD
ENDBRANCH   8   9
ENDBRANCH   7   8
ENDBRANCH   1   7
BRANCH   5  12
ATOM     12  C   UNL     1      45.554   5.414  13.296  0.00  0.00    +0.000 C 
BRANCH  12  13
ATOM     13  N   UNL     1      45.891   6.761  12.853  0.00  0.00    +0.000 N 
ATOM     14  C   UNL     1      44.965   7.744  12.603  0.00  0.00    +0.000 A 
ATOM     15  C   UNL     1      45.642   8.882  12.234  0.00  0.00    +0.000 A 
ATOM     16  C   UNL     1      47.028   8.578  12.231  0.00  0.00    +0.000 A 
ATOM     17  C   UNL     1      48.186   9.336  11.962  0.00  0.00    +0.000 A 
ATOM     18  C   UNL     1      49.428   8.714  12.051  0.00  0.00    +0.000 A 
ATOM     19  F   UNL     1      50.536   9.436  11.831  0.00  0.00    +0.000 F 
ATOM     20  C   UNL     1      49.552   7.369  12.363  0.00  0.00    +0.000 A 
ATOM     21  C   UNL     1      48.416   6.594  12.621  0.00  0.00    +0.000 A 
ATOM     22  C   UNL     1      47.163   7.228  12.576  0.00  0.00    +0.000 A 
ENDBRANCH  12  13
ENDBRANCH   5  12
TORSDOF 5
ENDMDL
MODEL 8
REMARK VINA RESULT:    -5.660      3.265      6.886
REMARK INTER + INTRA:          -7.719
REMARK INTER:                  -7.137
REMARK INTRA:                  -0.581
REMARK UNBOUND:                -0.569
REMARK  Name = 
REMARK  5 active torsions:
REMARK  status: ('A' for Active; 'I' for Inactive)
REMARK    1  A    between atoms: N_1  and  C_2
REMARK    2  A    between atoms: C_2  and  C_3
REMARK    3  A    between atoms: C_3  and  C_4
REMARK    4  A    between atoms: C_8  and  C_9
REMARK    5  A    between atoms: C_9  and  N_10
REMARK                            x       y       z     vdW  Elec       q    Type
REMARK                         _______ _______ _______ _____ _____    ______ ____
ROOT
ATOM      1  C   UNL     1      48.805   7.039  14.182  0.00  0.00    +0.000 A 
ATOM      2  C   UNL     1      49.494   7.648  13.139  0.00  0.00    +0.000 A 
ATOM      3  N   UNL     1      48.943   7.935  11.938  0.00  0.00    +0.000 NA
ATOM      4  C   UNL     1      47.640   7.620  11.772  0.00  0.00    +0.000 A 
ATOM      5  C   UNL     1      46.845   7.030  12.749  0.00  0.00    +0.000 A 
ATOM      6  C   UNL     1      47.463   6.709  13.963  0.00  0.00    +0.000 A 
ENDROOT
BRANCH   1   7
ATOM      7  C   UNL     1      49.453   6.818  15.524  0.00  0.00    +0.000 C 
BRANCH   7   8
ATOM      8  C   UNL     1      48.645   5.830  16.378  0.00  0.00    +0.000 C 
BRANCH   8   9
ATOM      9  N   UNL     1      48.089   6.478  17.564  0.00  0.00    +0.000 NA
ATOM     10  H   UNL     1      48.834   6.969  18.058  0.00  0.00    +0.000 HD
ATOM     11  H   UNL     1      47.742   5.770  18.212  0.00  0.00    +0.000 HD
ENDBRANCH   8   9
ENDBRANCH   7   8
ENDBRANCH   1   7
BRANCH   5  12
ATOM     12  C   UNL     1      45.376   6.803  12.520  0.00  0.00    +0.000 C 
BRANCH  12  13
ATOM     13  N   UNL     1      45.071   5.427  12.147  0.00  0.00    +0.000 N 
ATOM     14  C   UNL     1      44.617   4.473  13.026  0.00  0.00    +0.000 A 
ATOM     15  C   UNL     1      44.412   3.310  12.321  0.00  0.00    +0.000 A 
ATOM     16  C   UNL     1      44.778   3.552  10.972  0.00  0.00    +0.000 A 
ATOM     17  C   UNL     1      44.764   2.759   9.807  0.00  0.00    +0.000 A 
ATOM     18  C   UNL     1      45.203   3.319   8.611  0.00  0.00    +0.000 A 
ATOM     19  F   UNL     1      45.160   2.583   7.491  0.00  0.00    +0.000 F 
ATOM     20  C   UNL     1      45.683   4.618   8.544  0.00  0.00    +0.000 A 
ATOM     21  C   UNL     1      45.719   5.419   9.690  0.00  0.00    +0.000 A 
ATOM     22  C   UNL     1      45.235   4.873  10.890  0.00  0.00    +0.000 A 
ENDBRANCH  12  13
ENDBRANCH   5  12
TORSDOF 5
ENDMDL
MODEL 9
REMARK VINA RESULT:    -5.503      4.429      7.682
REMARK INTER + INTRA:          -7.520
REMARK INTER:                  -6.810
REMARK INTRA:                  -0.711
REMARK UNBOUND:                -0.569
REMARK  Name = 
REMARK  5 active torsions:
REMARK  status: ('A' for Active; 'I' for Inactive)
REMARK    1  A    between atoms: N_1  and  C_2
REMARK    2  A    between atoms: C_2  and  C_3
REMARK    3  A    between atoms: C_3  and  C_4
REMARK    4  A    between atoms: C_8  and  C_9
REMARK    5  A    between atoms: C_9  and  N_10
REMARK                            x       y       z     vdW  Elec       q    Type
REMARK                         _______ _______ _______ _____ _____    ______ ____
ROOT
ATOM      1  C   UNL     1      48.523   5.853  17.618  0.00  0.00    +0.000 A 
ATOM      2  C   UNL     1      48.762   7.086  18.215  0.00  0.00    +0.000 A 
ATOM      3  N   UNL     1      49.015   8.221  17.527  0.00  0.00    +0.000 NA
ATOM      4  C   UNL     1      49.012   8.132  16.179  0.00  0.00    +0.000 A 
ATOM      5  C   UNL     1      48.765   6.961  15.470  0.00  0.00    +0.000 A 
ATOM      6  C   UNL     1      48.550   5.799  16.220  0.00  0.00    +0.000 A 
ENDROOT
BRANCH   1   7
ATOM      7  C   UNL     1      48.167   4.641  18.439  0.00  0.00    +0.000 C 
BRANCH   7   8
ATOM      8  C   UNL     1      47.931   3.413  17.547  0.00  0.00    +0.000 C 
BRANCH   8   9
ATOM      9  N   UNL     1      46.570   2.901  17.692  0.00  0.00    +0.000 NA
ATOM     10  H   UNL     1      45.913   3.578  17.306  0.00  0.00    +0.000 HD
ATOM     11  H   UNL     1      46.337   2.817  18.682  0.00  0.00    +0.000 HD
ENDBRANCH   8   9
ENDBRANCH   7   8
ENDBRANCH   1   7
BRANCH   5  12
ATOM     12  C   UNL     1      48.681   6.966  13.969  0.00  0.00    +0.000 C 
BRANCH  12  13
ATOM     13  N   UNL     1      47.319   7.156  13.484  0.00  0.00    +0.000 N 
ATOM     14  C   UNL     1      46.728   8.383  13.308  0.00  0.00    +0.000 A 
ATOM     15  C   UNL     1      45.461   8.178  12.814  0.00  0.00    +0.000 A 
ATOM     16  C   UNL     1      45.260   6.777  12.709  0.00  0.00    +0.000 A 
ATOM     17  C   UNL     1      44.187   5.983  12.256  0.00  0.00    +0.000 A 
ATOM     18  C   UNL     1      44.320   4.598  12.290  0.00  0.00    +0.000 A 
ATOM     19  F   UNL     1      43.318   3.835  11.828  0.00  0.00    +0.000 F 
ATOM     20  C   UNL     1      45.460   3.983  12.785  0.00  0.00    +0.000 A 
ATOM     21  C   UNL     1      46.531   4.751  13.252  0.00  0.00    +0.000 A 
ATOM     22  C   UNL     1      46.421   6.150  13.179  0.00  0.00    +0.000 A 
ENDBRANCH  12  13
ENDBRANCH   5  12
TORSDOF 5
ENDMDL
