MODEL 1
REMARK VINA RESULT:    -8.176      0.000      0.000
REMARK INTER + INTRA:         -12.199
REMARK INTER:                 -11.044
REMARK INTRA:                  -1.155
REMARK UNBOUND:                -1.155
REMARK  Name = 
REMARK  7 active torsions:
REMARK  status: ('A' for Active; 'I' for Inactive)
REMARK    1  A    between atoms: C_1  and  C_2
REMARK    2  A    between atoms: C_2  and  C_3
REMARK    3  A    between atoms: C_7  and  C_8
REMARK    4  A    between atoms: C_8  and  C_9
REMARK    5  A    between atoms: C_9  and  N_10
REMARK    6  A    between atoms: N_10  and  C_11
REMARK    7  A    between atoms: C_14  and  C_15
REMARK                            x       y       z     vdW  Elec       q    Type
REMARK                         _______ _______ _______ _____ _____    ______ ____
ROOT
ATOM      1  C   UNL     1      43.094   4.661  11.083  0.00  0.00    +0.000 C 
ENDROOT
BRANCH   1   2
ATOM      2  N   UNL     1      43.847   5.051   9.885  0.00  0.00    +0.000 N 
ATOM      3  H   UNL     1      44.366   5.917  10.018  0.00  0.00    +0.000 HD
BRANCH   2   4
ATOM      4  C   UNL     1      44.657   4.062   9.294  0.00  0.00    +0.000 A 
ATOM      5  C   UNL     1      44.476   2.692   9.523  0.00  0.00    +0.000 A 
ATOM      6  C   UNL     1      45.269   1.733   8.883  0.00  0.00    +0.000 A 
ATOM      7  C   UNL     1      46.238   2.122   7.960  0.00  0.00    +0.000 A 
ATOM      8  C   UNL     1      46.406   3.481   7.680  0.00  0.00    +0.000 A 
ATOM      9  C   UNL     1      45.607   4.435   8.331  0.00  0.00    +0.000 A 
BRANCH   7  10
ATOM     10  C   UNL     1      47.057   1.055   7.322  0.00  0.00    +0.000 C 
ATOM     11  N   UNL     1      46.807  -0.238   7.683  0.00  0.00    +0.000 N 
ATOM     12  O   UNL     1      47.952   1.321   6.532  0.00  0.00    +0.000 OA
ATOM     13  H   UNL     1      46.269  -0.477   8.502  0.00  0.00    +0.000 HD
ATOM     14  H   UNL     1      47.465  -0.923   7.334  0.00  0.00    +0.000 HD
ENDBRANCH   7  10
ENDBRANCH   2   4
ENDBRANCH   1   2
BRANCH   1  15
ATOM     15  C   UNL     1      43.488   5.506  12.301  0.00  0.00    +0.000 C 
BRANCH  15  20
ATOM     16  C   UNL     1      47.126   6.029  13.394  0.00  0.00    +0.000 A 
ATOM     17  C   UNL     1      47.488   4.694  13.660  0.00  0.00    +0.000 A 
ATOM     18  C   UNL     1      46.593   3.641  13.459  0.00  0.00    +0.000 A 
ATOM     19  C   UNL     1      45.308   3.895  12.992  0.00  0.00    +0.000 A 
ATOM     20  C   UNL     1      44.917   5.205  12.702  0.00  0.00    +0.000 A 
ATOM     21  C   UNL     1      45.835   6.257  12.887  0.00  0.00    +0.000 A 
BRANCH  16  23
ATOM     22  C   UNL     1      48.655   6.915  15.162  0.00  0.00    +0.000 C 
ATOM     23  C   UNL     1      48.104   7.165  13.745  0.00  0.00    +0.000 C 
ATOM     24  C   UNL     1      49.225   7.277  12.705  0.00  0.00    +0.000 C 
ATOM     25  C   UNL     1      48.736   8.330  11.721  0.00  0.00    +0.000 C 
ATOM     26  O   UNL     1      47.606   8.991  12.304  0.00  0.00    +0.000 OA
ATOM     27  C   UNL     1      47.546   8.595  13.678  0.00  0.00    +0.000 C 
ENDBRANCH  16  23
ENDBRANCH  15  20
ENDBRANCH   1  15
TORSDOF 6
ENDMDL
MODEL 2
REMARK VINA RESULT:    -7.908      2.628      3.708
REMARK INTER + INTRA:         -11.837
REMARK INTER:                 -11.042
REMARK INTRA:                  -0.795
REMARK UNBOUND:                -1.155
REMARK  Name = 
REMARK  7 active torsions:
REMARK  status: ('A' for Active; 'I' for Inactive)
REMARK    1  A    between atoms: C_1  and  C_2
REMARK    2  A    between atoms: C_2  and  C_3
REMARK    3  A    between atoms: C_7  and  C_8
REMARK    4  A    between atoms: C_8  and  C_9
REMARK    5  A    between atoms: C_9  and  N_10
REMARK    6  A    between atoms: N_10  and  C_11
REMARK    7  A    between atoms: C_14  and  C_15
REMARK                            x       y       z     vdW  Elec       q    Type
REMARK                         _______ _______ _______ _____ _____    ______ ____
ROOT
ATOM      1  C   UNL     1      44.805   4.840  11.732  0.00  0.00    +0.000 C 
ENDROOT
BRANCH   1   2
ATOM      2  N   UNL     1      44.101   4.099  10.679  0.00  0.00    +0.000 N 
ATOM      3  H   UNL     1      43.260   4.580  10.363  0.00  0.00    +0.000 HD
BRANCH   2   4
ATOM      4  C   UNL     1      44.873   3.660   9.586  0.00  0.00    +0.000 A 
ATOM      5  C   UNL     1      45.508   4.539   8.699  0.00  0.00    +0.000 A 
ATOM      6  C   UNL     1      46.307   4.068   7.652  0.00  0.00    +0.000 A 
ATOM      7  C   UNL     1      46.527   2.701   7.492  0.00  0.00    +0.000 A 
ATOM      8  C   UNL     1      45.942   1.807   8.392  0.00  0.00    +0.000 A 
ATOM      9  C   UNL     1      45.138   2.290   9.438  0.00  0.00    +0.000 A 
BRANCH   7  10
ATOM     10  C   UNL     1      47.377   2.263   6.350  0.00  0.00    +0.000 C 
ATOM     11  N   UNL     1      47.381   3.041   5.228  0.00  0.00    +0.000 N 
ATOM     12  O   UNL     1      48.020   1.224   6.393  0.00  0.00    +0.000 OA
ATOM     13  H   UNL     1      46.684   3.749   5.057  0.00  0.00    +0.000 HD
ATOM     14  H   UNL     1      47.861   2.649   4.428  0.00  0.00    +0.000 HD
ENDBRANCH   7  10
ENDBRANCH   2   4
ENDBRANCH   1   2
BRANCH   1  15
ATOM     15  C   UNL     1      45.577   3.901  12.668  0.00  0.00    +0.000 C 
BRANCH  15  20
ATOM     16  C   UNL     1      47.671   4.895  15.724  0.00  0.00    +0.000 A 
ATOM     17  C   UNL     1      48.309   6.041  15.211  0.00  0.00    +0.000 A 
ATOM     18  C   UNL     1      48.046   6.509  13.921  0.00  0.00    +0.000 A 
ATOM     19  C   UNL     1      47.143   5.837  13.105  0.00  0.00    +0.000 A 
ATOM     20  C   UNL     1      46.478   4.704  13.583  0.00  0.00    +0.000 A 
ATOM     21  C   UNL     1      46.733   4.255  14.894  0.00  0.00    +0.000 A 
BRANCH  16  23
ATOM     22  C   UNL     1      47.239   5.061  18.180  0.00  0.00    +0.000 C 
ATOM     23  C   UNL     1      48.081   4.351  17.103  0.00  0.00    +0.000 C 
ATOM     24  C   UNL     1      47.930   2.827  17.170  0.00  0.00    +0.000 C 
ATOM     25  C   UNL     1      49.308   2.286  16.815  0.00  0.00    +0.000 C 
ATOM     26  O   UNL     1      50.238   3.375  16.860  0.00  0.00    +0.000 OA
ATOM     27  C   UNL     1      49.567   4.480  17.476  0.00  0.00    +0.000 C 
ENDBRANCH  16  23
ENDBRANCH  15  20
ENDBRANCH   1  15
TORSDOF 6
ENDMDL
MODEL 3
REMARK VINA RESULT:    -7.895      1.395      2.211
REMARK INTER + INTRA:         -11.819
REMARK INTER:                 -10.855
REMARK INTRA:                  -0.964
REMARK UNBOUND:                -1.155
REMARK  Name = 
REMARK  7 active torsions:
REMARK  status: ('A' for Active; 'I' for Inactive)
REMARK    1  A    between atoms: C_1  and  C_2
REMARK    2  A    between atoms: C_2  and  C_3
REMARK    3  A    between atoms: C_7  and  C_8
REMARK    4  A    between atoms: C_8  and  C_9
REMARK    5  A    between atoms: C_9  and  N_10
REMARK    6  A    between atoms: N_10  and  C_11
REMARK    7  A    between atoms: C_14  and  C_15
REMARK                            x       y       z     vdW  Elec       q    Type
REMARK                         _______ _______ _______ _____ _____    ______ ____
ROOT
ATOM      1  C   UNL     1      44.105   5.157  11.302  0.00  0.00    +0.000 C 
ENDROOT
BRANCH   1   2
ATOM      2  N   UNL     1      43.686   4.795   9.943  0.00  0.00    +0.000 N 
ATOM      3  H   UNL     1      43.399   5.606   9.398  0.00  0.00    +0.000 HD
BRANCH   2   4
ATOM      4  C   UNL     1      44.561   3.974   9.206  0.00  0.00    +0.000 A 
ATOM      5  C   UNL     1      45.524   4.482   8.325  0.00  0.00    +0.000 A 
ATOM      6  C   UNL     1      46.409   3.638   7.645  0.00  0.00    +0.000 A 
ATOM      7  C   UNL     1      46.380   2.262   7.864  0.00  0.00    +0.000 A 
ATOM      8  C   UNL     1      45.459   1.735   8.773  0.00  0.00    +0.000 A 
ATOM      9  C   UNL     1      44.573   2.591   9.448  0.00  0.00    +0.000 A 
BRANCH   7  10
ATOM     10  C   UNL     1      47.340   1.417   7.100  0.00  0.00    +0.000 C 
ATOM     11  N   UNL     1      48.428   2.033   6.550  0.00  0.00    +0.000 N 
ATOM     12  O   UNL     1      47.147   0.221   6.933  0.00  0.00    +0.000 OA
ATOM     13  H   UNL     1      48.488   3.034   6.446  0.00  0.00    +0.000 HD
ATOM     14  H   UNL     1      48.985   1.459   5.930  0.00  0.00    +0.000 HD
ENDBRANCH   7  10
ENDBRANCH   2   4
ENDBRANCH   1   2
BRANCH   1  15
ATOM     15  C   UNL     1      44.768   6.540  11.343  0.00  0.00    +0.000 C 
BRANCH  15  20
ATOM     16  C   UNL     1      48.356   7.346  12.430  0.00  0.00    +0.000 A 
ATOM     17  C   UNL     1      48.461   6.497  13.550  0.00  0.00    +0.000 A 
ATOM     18  C   UNL     1      47.413   5.655  13.929  0.00  0.00    +0.000 A 
ATOM     19  C   UNL     1      46.227   5.644  13.202  0.00  0.00    +0.000 A 
ATOM     20  C   UNL     1      46.091   6.460  12.076  0.00  0.00    +0.000 A 
ATOM     21  C   UNL     1      47.163   7.289  11.689  0.00  0.00    +0.000 A 
BRANCH  16  23
ATOM     22  C   UNL     1      50.508   7.651  11.196  0.00  0.00    +0.000 C 
ATOM     23  C   UNL     1      49.490   8.340  12.124  0.00  0.00    +0.000 C 
ATOM     24  C   UNL     1      48.945   9.637  11.514  0.00  0.00    +0.000 C 
ATOM     25  C   UNL     1      48.769  10.577  12.699  0.00  0.00    +0.000 C 
ATOM     26  O   UNL     1      49.444  10.003  13.825  0.00  0.00    +0.000 OA
ATOM     27  C   UNL     1      50.240   8.918  13.334  0.00  0.00    +0.000 C 
ENDBRANCH  16  23
ENDBRANCH  15  20
ENDBRANCH   1  15
TORSDOF 6
ENDMDL
MODEL 4
REMARK VINA RESULT:    -7.634      1.320      2.442
REMARK INTER + INTRA:         -11.467
REMARK INTER:                 -10.648
REMARK INTRA:                  -0.818
REMARK UNBOUND:                -1.155
REMARK  Name = 
REMARK  7 active torsions:
REMARK  status: ('A' for Active; 'I' for Inactive)
REMARK    1  A    between atoms: C_1  and  C_2
REMARK    2  A    between atoms: C_2  and  C_3
REMARK    3  A    between atoms: C_7  and  C_8
REMARK    4  A    between atoms: C_8  and  C_9
REMARK    5  A    between atoms: C_9  and  N_10
REMARK    6  A    between atoms: N_10  and  C_11
REMARK    7  A    between atoms: C_14  and  C_15
REMARK                            x       y       z     vdW  Elec       q    Type
REMARK                         _______ _______ _______ _____ _____    ______ ____
ROOT
ATOM      1  C   UNL     1      43.722   4.950  11.276  0.00  0.00    +0.000 C 
ENDROOT
BRANCH   1   2
ATOM      2  N   UNL     1      43.754   4.883   9.810  0.00  0.00    +0.000 N 
ATOM      3  H   UNL     1      43.894   5.796   9.384  0.00  0.00    +0.000 HD
BRANCH   2   4
ATOM      4  C   UNL     1      44.607   3.920   9.237  0.00  0.00    +0.000 A 
ATOM      5  C   UNL     1      44.436   2.542   9.424  0.00  0.00    +0.000 A 
ATOM      6  C   UNL     1      45.275   1.611   8.801  0.00  0.00    +0.000 A 
ATOM      7  C   UNL     1      46.282   2.036   7.937  0.00  0.00    +0.000 A 
ATOM      8  C   UNL     1      46.443   3.404   7.698  0.00  0.00    +0.000 A 
ATOM      9  C   UNL     1      45.598   4.330   8.332  0.00  0.00    +0.000 A 
BRANCH   7  10
ATOM     10  C   UNL     1      47.148   0.997   7.315  0.00  0.00    +0.000 C 
ATOM     11  N   UNL     1      46.896  -0.308   7.627  0.00  0.00    +0.000 N 
ATOM     12  O   UNL     1      48.080   1.296   6.582  0.00  0.00    +0.000 OA
ATOM     13  H   UNL     1      46.319  -0.576   8.409  0.00  0.00    +0.000 HD
ATOM     14  H   UNL     1      47.581  -0.975   7.296  0.00  0.00    +0.000 HD
ENDBRANCH   7  10
ENDBRANCH   2   4
ENDBRANCH   1   2
BRANCH   1  15
ATOM     15  C   UNL     1      45.134   5.035  11.871  0.00  0.00    +0.000 C 
BRANCH  15  20
ATOM     16  C   UNL     1      47.304   8.142  12.462  0.00  0.00    +0.000 A 
ATOM     17  C   UNL     1      46.364   9.148  12.161  0.00  0.00    +0.000 A 
ATOM     18  C   UNL     1      45.049   8.837  11.809  0.00  0.00    +0.000 A 
ATOM     19  C   UNL     1      44.638   7.510  11.741  0.00  0.00    +0.000 A 
ATOM     20  C   UNL     1      45.536   6.485  12.048  0.00  0.00    +0.000 A 
ATOM     21  C   UNL     1      46.855   6.810  12.424  0.00  0.00    +0.000 A 
BRANCH  16  23
ATOM     22  C   UNL     1      49.267   9.394  11.553  0.00  0.00    +0.000 C 
ATOM     23  C   UNL     1      48.770   8.528  12.726  0.00  0.00    +0.000 C 
ATOM     24  C   UNL     1      48.925   9.243  14.073  0.00  0.00    +0.000 C 
ATOM     25  C   UNL     1      49.291   8.140  15.056  0.00  0.00    +0.000 C 
ATOM     26  O   UNL     1      49.633   6.970  14.304  0.00  0.00    +0.000 OA
ATOM     27  C   UNL     1      49.757   7.368  12.934  0.00  0.00    +0.000 C 
ENDBRANCH  16  23
ENDBRANCH  15  20
ENDBRANCH   1  15
TORSDOF 6
ENDMDL
MODEL 5
REMARK VINA RESULT:    -7.344      1.590      2.197
REMARK INTER + INTRA:         -11.075
REMARK INTER:                 -10.499
REMARK INTRA:                  -0.576
REMARK UNBOUND:                -1.155
REMARK  Name = 
REMARK  7 active torsions:
REMARK  status: ('A' for Active; 'I' for Inactive)
REMARK    1  A    between atoms: C_1  and  C_2
REMARK    2  A    between atoms: C_2  and  C_3
REMARK    3  A    between atoms: C_7  and  C_8
REMARK    4  A    between atoms: C_8  and  C_9
REMARK    5  A    between atoms: C_9  and  N_10
REMARK    6  A    between atoms: N_10  and  C_11
REMARK    7  A    between atoms: C_14  and  C_15
REMARK                            x       y       z     vdW  Elec       q    Type
REMARK                         _______ _______ _______ _____ _____    ______ ____
ROOT
ATOM      1  C   UNL     1      44.249   5.654  11.203  0.00  0.00    +0.000 C 
ENDROOT
BRANCH   1   2
ATOM      2  N   UNL     1      43.776   5.052   9.950  0.00  0.00    +0.000 N 
ATOM      3  H   UNL     1      43.490   5.752   9.269  0.00  0.00    +0.000 HD
BRANCH   2   4
ATOM      4  C   UNL     1      44.608   4.081   9.360  0.00  0.00    +0.000 A 
ATOM      5  C   UNL     1      44.533   2.718   9.677  0.00  0.00    +0.000 A 
ATOM      6  C   UNL     1      45.342   1.774   9.036  0.00  0.00    +0.000 A 
ATOM      7  C   UNL     1      46.219   2.165   8.027  0.00  0.00    +0.000 A 
ATOM      8  C   UNL     1      46.279   3.513   7.660  0.00  0.00    +0.000 A 
ATOM      9  C   UNL     1      45.465   4.453   8.312  0.00  0.00    +0.000 A 
BRANCH   7  10
ATOM     10  C   UNL     1      47.062   1.115   7.393  0.00  0.00    +0.000 C 
ATOM     11  N   UNL     1      48.026   1.521   6.515  0.00  0.00    +0.000 N 
ATOM     12  O   UNL     1      46.878  -0.074   7.613  0.00  0.00    +0.000 OA
ATOM     13  H   UNL     1      48.041   2.447   6.117  0.00  0.00    +0.000 HD
ATOM     14  H   UNL     1      48.490   0.780   6.003  0.00  0.00    +0.000 HD
ENDBRANCH   7  10
ENDBRANCH   2   4
ENDBRANCH   1   2
BRANCH   1  15
ATOM     15  C   UNL     1      45.718   6.085  11.107  0.00  0.00    +0.000 C 
BRANCH  15  20
ATOM     16  C   UNL     1      47.872   6.477  14.256  0.00  0.00    +0.000 A 
ATOM     17  C   UNL     1      47.612   5.239  14.877  0.00  0.00    +0.000 A 
ATOM     18  C   UNL     1      46.789   4.281  14.280  0.00  0.00    +0.000 A 
ATOM     19  C   UNL     1      46.197   4.539  13.048  0.00  0.00    +0.000 A 
ATOM     20  C   UNL     1      46.443   5.748  12.394  0.00  0.00    +0.000 A 
ATOM     21  C   UNL     1      47.294   6.698  12.994  0.00  0.00    +0.000 A 
BRANCH  16  23
ATOM     22  C   UNL     1      48.046   8.922  14.746  0.00  0.00    +0.000 C 
ATOM     23  C   UNL     1      48.687   7.545  15.006  0.00  0.00    +0.000 C 
ATOM     24  C   UNL     1      48.778   7.229  16.503  0.00  0.00    +0.000 C 
ATOM     25  C   UNL     1      50.087   6.468  16.659  0.00  0.00    +0.000 C 
ATOM     26  O   UNL     1      50.832   6.614  15.444  0.00  0.00    +0.000 OA
ATOM     27  C   UNL     1      50.184   7.628  14.668  0.00  0.00    +0.000 C 
ENDBRANCH  16  23
ENDBRANCH  15  20
ENDBRANCH   1  15
TORSDOF 6
ENDMDL
MODEL 6
REMARK VINA RESULT:    -6.511      4.930      8.108
REMARK INTER + INTRA:          -9.949
REMARK INTER:                  -9.322
REMARK INTRA:                  -0.628
REMARK UNBOUND:                -1.155
REMARK  Name = 
REMARK  7 active torsions:
REMARK  status: ('A' for Active; 'I' for Inactive)
REMARK    1  A    between atoms: C_1  and  C_2
REMARK    2  A    between atoms: C_2  and  C_3
REMARK    3  A    between atoms: C_7  and  C_8
REMARK    4  A    between atoms: C_8  and  C_9
REMARK    5  A    between atoms: C_9  and  N_10
REMARK    6  A    between atoms: N_10  and  C_11
REMARK    7  A    between atoms: C_14  and  C_15
REMARK                            x       y       z     vdW  Elec       q    Type
REMARK                         _______ _______ _______ _____ _____    ______ ____
ROOT
ATOM      1  C   UNL     1      47.915   5.260  15.864  0.00  0.00    +0.000 C 
ENDROOT
BRANCH   1   2
ATOM      2  N   UNL     1      48.207   4.731  17.202  0.00  0.00    +0.000 N 
ATOM      3  H   UNL     1      47.396   4.285  17.627  0.00  0.00    +0.000 HD
BRANCH   2   4
ATOM      4  C   UNL     1      49.354   3.924  17.329  0.00  0.00    +0.000 A 
ATOM      5  C   UNL     1      50.591   4.420  17.760  0.00  0.00    +0.000 A 
ATOM      6  C   UNL     1      51.699   3.580  17.921  0.00  0.00    +0.000 A 
ATOM      7  C   UNL     1      51.583   2.210  17.694  0.00  0.00    +0.000 A 
ATOM      8  C   UNL     1      50.347   1.684  17.308  0.00  0.00    +0.000 A 
ATOM      9  C   UNL     1      49.243   2.537  17.147  0.00  0.00    +0.000 A 
BRANCH   7  10
ATOM     10  C   UNL     1      52.801   1.372  17.870  0.00  0.00    +0.000 C 
ATOM     11  N   UNL     1      52.990   0.338  16.998  0.00  0.00    +0.000 N 
ATOM     12  O   UNL     1      53.589   1.570  18.785  0.00  0.00    +0.000 OA
ATOM     13  H   UNL     1      52.254  -0.012  16.406  0.00  0.00    +0.000 HD
ATOM     14  H   UNL     1      53.752  -0.289  17.225  0.00  0.00    +0.000 HD
ENDBRANCH   7  10
ENDBRANCH   2   4
ENDBRANCH   1   2
BRANCH   1  15
ATOM     15  C   UNL     1      47.141   4.248  15.010  0.00  0.00    +0.000 C 
BRANCH  15  20
ATOM     16  C   UNL     1      45.205   5.041  11.796  0.00  0.00    +0.000 A 
ATOM     17  C   UNL     1      45.965   6.130  11.325  0.00  0.00    +0.000 A 
ATOM     18  C   UNL     1      47.098   6.580  12.006  0.00  0.00    +0.000 A 
ATOM     19  C   UNL     1      47.499   5.957  13.183  0.00  0.00    +0.000 A 
ATOM     20  C   UNL     1      46.781   4.864  13.674  0.00  0.00    +0.000 A 
ATOM     21  C   UNL     1      45.652   4.404  12.966  0.00  0.00    +0.000 A 
BRANCH  16  23
ATOM     22  C   UNL     1      42.846   5.746  11.368  0.00  0.00    +0.000 C 
ATOM     23  C   UNL     1      43.899   4.660  11.077  0.00  0.00    +0.000 C 
ATOM     24  C   UNL     1      44.125   4.468   9.573  0.00  0.00    +0.000 C 
ATOM     25  C   UNL     1      44.368   2.975   9.406  0.00  0.00    +0.000 C 
ATOM     26  O   UNL     1      43.999   2.326  10.629  0.00  0.00    +0.000 OA
ATOM     27  C   UNL     1      43.301   3.288  11.426  0.00  0.00    +0.000 C 
ENDBRANCH  16  23
ENDBRANCH  15  20
ENDBRANCH   1  15
TORSDOF 6
ENDMDL
MODEL 7
REMARK VINA RESULT:    -6.437      3.455      5.738
REMARK INTER + INTRA:          -9.850
REMARK INTER:                  -8.764
REMARK INTRA:                  -1.085
REMARK UNBOUND:                -1.155
REMARK  Name = 
REMARK  7 active torsions:
REMARK  status: ('A' for Active; 'I' for Inactive)
REMARK    1  A    between atoms: C_1  and  C_2
REMARK    2  A    between atoms: C_2  and  C_3
REMARK    3  A    between atoms: C_7  and  C_8
REMARK    4  A    between atoms: C_8  and  C_9
REMARK    5  A    between atoms: C_9  and  N_10
REMARK    6  A    between atoms: N_10  and  C_11
REMARK    7  A    between atoms: C_14  and  C_15
REMARK                            x       y       z     vdW  Elec       q    Type
REMARK                         _______ _______ _______ _____ _____    ______ ____
ROOT
ATOM      1  C   UNL     1      48.410   7.273  13.506  0.00  0.00    +0.000 C 
ENDROOT
BRANCH   1   2
ATOM      2  N   UNL     1      46.945   7.371  13.518  0.00  0.00    +0.000 N 
ATOM      3  H   UNL     1      46.616   8.276  13.187  0.00  0.00    +0.000 HD
BRANCH   2   4
ATOM      4  C   UNL     1      46.233   6.320  12.909  0.00  0.00    +0.000 A 
ATOM      5  C   UNL     1      45.682   6.416  11.625  0.00  0.00    +0.000 A 
ATOM      6  C   UNL     1      45.021   5.334  11.032  0.00  0.00    +0.000 A 
ATOM      7  C   UNL     1      44.933   4.112  11.695  0.00  0.00    +0.000 A 
ATOM      8  C   UNL     1      45.516   3.978  12.958  0.00  0.00    +0.000 A 
ATOM      9  C   UNL     1      46.174   5.070  13.546  0.00  0.00    +0.000 A 
BRANCH   7  10
ATOM     10  C   UNL     1      44.206   3.003  11.016  0.00  0.00    +0.000 C 
ATOM     11  N   UNL     1      44.850   2.351  10.004  0.00  0.00    +0.000 N 
ATOM     12  O   UNL     1      43.059   2.709  11.320  0.00  0.00    +0.000 OA
ATOM     13  H   UNL     1      45.675   2.721   9.559  0.00  0.00    +0.000 HD
ATOM     14  H   UNL     1      44.284   1.696   9.478  0.00  0.00    +0.000 HD
ENDBRANCH   7  10
ENDBRANCH   2   4
ENDBRANCH   1   2
BRANCH   1  15
ATOM     15  C   UNL     1      49.044   8.104  14.629  0.00  0.00    +0.000 C 
BRANCH  15  20
ATOM     16  C   UNL     1      49.724   5.211  17.053  0.00  0.00    +0.000 A 
ATOM     17  C   UNL     1      51.113   5.371  17.229  0.00  0.00    +0.000 A 
ATOM     18  C   UNL     1      51.814   6.409  16.609  0.00  0.00    +0.000 A 
ATOM     19  C   UNL     1      51.144   7.312  15.790  0.00  0.00    +0.000 A 
ATOM     20  C   UNL     1      49.764   7.196  15.604  0.00  0.00    +0.000 A 
ATOM     21  C   UNL     1      49.064   6.159  16.252  0.00  0.00    +0.000 A 
BRANCH  16  23
ATOM     22  C   UNL     1      48.891   4.195  19.179  0.00  0.00    +0.000 C 
ATOM     23  C   UNL     1      49.019   3.984  17.658  0.00  0.00    +0.000 C 
ATOM     24  C   UNL     1      47.659   3.740  16.996  0.00  0.00    +0.000 C 
ATOM     25  C   UNL     1      47.942   2.730  15.893  0.00  0.00    +0.000 C 
ATOM     26  O   UNL     1      49.256   2.200  16.103  0.00  0.00    +0.000 OA
ATOM     27  C   UNL     1      49.680   2.620  17.404  0.00  0.00    +0.000 C 
ENDBRANCH  16  23
ENDBRANCH  15  20
ENDBRANCH   1  15
TORSDOF 6
ENDMDL
MODEL 8
REMARK VINA RESULT:    -5.787      3.631      6.088
REMARK INTER + INTRA:          -8.972
REMARK INTER:                  -7.883
REMARK INTRA:                  -1.089
REMARK UNBOUND:                -1.155
REMARK  Name = 
REMARK  7 active torsions:
REMARK  status: ('A' for Active; 'I' for Inactive)
REMARK    1  A    between atoms: C_1  and  C_2
REMARK    2  A    between atoms: C_2  and  C_3
REMARK    3  A    between atoms: C_7  and  C_8
REMARK    4  A    between atoms: C_8  and  C_9
REMARK    5  A    between atoms: C_9  and  N_10
REMARK    6  A    between atoms: N_10  and  C_11
REMARK    7  A    between atoms: C_14  and  C_15
REMARK                            x       y       z     vdW  Elec       q    Type
REMARK                         _______ _______ _______ _____ _____    ______ ____
ROOT
ATOM      1  C   UNL     1      48.788   7.482  13.228  0.00  0.00    +0.000 C 
ENDROOT
BRANCH   1   2
ATOM      2  N   UNL     1      47.376   7.876  13.153  0.00  0.00    +0.000 N 
ATOM      3  H   UNL     1      47.228   8.667  12.530  0.00  0.00    +0.000 HD
BRANCH   2   4
ATOM      4  C   UNL     1      46.444   6.851  12.901  0.00  0.00    +0.000 A 
ATOM      5  C   UNL     1      45.182   7.090  12.341  0.00  0.00    +0.000 A 
ATOM      6  C   UNL     1      44.298   6.042  12.060  0.00  0.00    +0.000 A 
ATOM      7  C   UNL     1      44.674   4.720  12.294  0.00  0.00    +0.000 A 
ATOM      8  C   UNL     1      45.945   4.454  12.809  0.00  0.00    +0.000 A 
ATOM      9  C   UNL     1      46.824   5.513  13.091  0.00  0.00    +0.000 A 
BRANCH   7  10
ATOM     10  C   UNL     1      43.684   3.652  11.986  0.00  0.00    +0.000 C 
ATOM     11  N   UNL     1      43.831   2.450  12.619  0.00  0.00    +0.000 N 
ATOM     12  O   UNL     1      42.792   3.821  11.166  0.00  0.00    +0.000 OA
ATOM     13  H   UNL     1      44.682   2.189  13.093  0.00  0.00    +0.000 HD
ATOM     14  H   UNL     1      43.227   1.708  12.290  0.00  0.00    +0.000 HD
ENDBRANCH   7  10
ENDBRANCH   2   4
ENDBRANCH   1   2
BRANCH   1  15
ATOM     15  C   UNL     1      49.535   8.250  14.326  0.00  0.00    +0.000 C 
BRANCH  15  20
ATOM     16  C   UNL     1      49.224   5.626  17.105  0.00  0.00    +0.000 A 
ATOM     17  C   UNL     1      50.588   5.408  17.379  0.00  0.00    +0.000 A 
ATOM     18  C   UNL     1      51.590   6.115  16.710  0.00  0.00    +0.000 A 
ATOM     19  C   UNL     1      51.254   7.056  15.742  0.00  0.00    +0.000 A 
ATOM     20  C   UNL     1      49.911   7.312  15.453  0.00  0.00    +0.000 A 
ATOM     21  C   UNL     1      48.908   6.609  16.151  0.00  0.00    +0.000 A 
BRANCH  16  23
ATOM     22  C   UNL     1      47.396   3.974  16.686  0.00  0.00    +0.000 C 
ATOM     23  C   UNL     1      48.163   4.739  17.781  0.00  0.00    +0.000 C 
ATOM     24  C   UNL     1      48.798   3.792  18.805  0.00  0.00    +0.000 C 
ATOM     25  C   UNL     1      48.681   4.525  20.135  0.00  0.00    +0.000 C 
ATOM     26  O   UNL     1      47.785   5.628  19.955  0.00  0.00    +0.000 OA
ATOM     27  C   UNL     1      47.147   5.455  18.686  0.00  0.00    +0.000 C 
ENDBRANCH  16  23
ENDBRANCH  15  20
ENDBRANCH   1  15
TORSDOF 6
ENDMDL
MODEL 9
REMARK VINA RESULT:    -5.491      3.477      4.999
REMARK INTER + INTRA:          -8.572
REMARK INTER:                  -8.254
REMARK INTRA:                  -0.317
REMARK UNBOUND:                -1.155
REMARK  Name = 
REMARK  7 active torsions:
REMARK  status: ('A' for Active; 'I' for Inactive)
REMARK    1  A    between atoms: C_1  and  C_2
REMARK    2  A    between atoms: C_2  and  C_3
REMARK    3  A    between atoms: C_7  and  C_8
REMARK    4  A    between atoms: C_8  and  C_9
REMARK    5  A    between atoms: C_9  and  N_10
REMARK    6  A    between atoms: N_10  and  C_11
REMARK    7  A    between atoms: C_14  and  C_15
REMARK                            x       y       z     vdW  Elec       q    Type
REMARK                         _______ _______ _______ _____ _____    ______ ____
ROOT
ATOM      1  C   UNL     1      47.296   5.494  14.317  0.00  0.00    +0.000 C 
ENDROOT
BRANCH   1   2
ATOM      2  N   UNL     1      46.061   5.957  13.673  0.00  0.00    +0.000 N 
ATOM      3  H   UNL     1      46.062   6.961  13.510  0.00  0.00    +0.000 HD
BRANCH   2   4
ATOM      4  C   UNL     1      45.644   5.258  12.523  0.00  0.00    +0.000 A 
ATOM      5  C   UNL     1      45.811   5.757  11.225  0.00  0.00    +0.000 A 
ATOM      6  C   UNL     1      45.428   5.014  10.102  0.00  0.00    +0.000 A 
ATOM      7  C   UNL     1      44.907   3.730  10.250  0.00  0.00    +0.000 A 
ATOM      8  C   UNL     1      44.774   3.192  11.533  0.00  0.00    +0.000 A 
ATOM      9  C   UNL     1      45.158   3.947  12.653  0.00  0.00    +0.000 A 
BRANCH   7  10
ATOM     10  C   UNL     1      44.507   2.997   9.018  0.00  0.00    +0.000 C 
ATOM     11  N   UNL     1      44.262   3.733   7.894  0.00  0.00    +0.000 N 
ATOM     12  O   UNL     1      44.362   1.783   9.014  0.00  0.00    +0.000 OA
ATOM     13  H   UNL     1      44.122   4.731   7.920  0.00  0.00    +0.000 HD
ATOM     14  H   UNL     1      43.866   3.220   7.116  0.00  0.00    +0.000 HD
ENDBRANCH   7  10
ENDBRANCH   2   4
ENDBRANCH   1   2
BRANCH   1  15
ATOM     15  C   UNL     1      47.111   4.124  14.982  0.00  0.00    +0.000 C 
BRANCH  15  20
ATOM     16  C   UNL     1      48.358   5.234  18.435  0.00  0.00    +0.000 A 
ATOM     17  C   UNL     1      48.901   4.017  18.893  0.00  0.00    +0.000 A 
ATOM     18  C   UNL     1      48.900   2.870  18.096  0.00  0.00    +0.000 A 
ATOM     19  C   UNL     1      48.348   2.907  16.820  0.00  0.00    +0.000 A 
ATOM     20  C   UNL     1      47.813   4.099  16.324  0.00  0.00    +0.000 A 
ATOM     21  C   UNL     1      47.840   5.256  17.128  0.00  0.00    +0.000 A 
BRANCH  16  23
ATOM     22  C   UNL     1      47.340   6.067  20.560  0.00  0.00    +0.000 C 
ATOM     23  C   UNL     1      48.274   6.436  19.392  0.00  0.00    +0.000 C 
ATOM     24  C   UNL     1      49.664   6.857  19.882  0.00  0.00    +0.000 C 
ATOM     25  C   UNL     1      50.094   7.960  18.924  0.00  0.00    +0.000 C 
ATOM     26  O   UNL     1      48.946   8.360  18.165  0.00  0.00    +0.000 OA
ATOM     27  C   UNL     1      47.800   7.765  18.784  0.00  0.00    +0.000 C 
ENDBRANCH  16  23
ENDBRANCH  15  20
ENDBRANCH   1  15
TORSDOF 6
ENDMDL
