MODEL 1
REMARK VINA RESULT:    -7.773      0.000      0.000
REMARK INTER + INTRA:         -13.123
REMARK INTER:                 -11.863
REMARK INTRA:                  -1.260
REMARK UNBOUND:                -1.260
REMARK  Name = 
REMARK  11 active torsions:
REMARK  status: ('A' for Active; 'I' for Inactive)
REMARK    1  A    between atoms: C_1  and  O_2
REMARK    2  A    between atoms: O_2  and  C_3
REMARK    3  A    between atoms: C_3  and  C_4
REMARK    4  A    between atoms: C_4  and  N_5
REMARK    5  A    between atoms: C_4  and  C_19
REMARK    6  A    between atoms: C_6  and  C_8
REMARK    7  A    between atoms: C_22  and  C_23
REMARK    8  A    between atoms: C_23  and  N_24
REMARK    9  A    between atoms: N_24  and  C_25
REMARK   10  A    between atoms: C_25  and  C_26
REMARK   11  A    between atoms: C_25  and  C_27
REMARK                            x       y       z     vdW  Elec       q    Type
REMARK                         _______ _______ _______ _____ _____    ______ ____
ROOT
ATOM      1  C   UNL     1      48.064   7.965  13.474  0.00  0.00    +0.000 C 
ENDROOT
BRANCH   1   2
ATOM      2  C   UNL     1      46.906   7.239  12.803  0.00  0.00    +0.000 A 
ATOM      3  C   UNL     1      46.854   5.836  12.849  0.00  0.00    +0.000 A 
ATOM      4  C   UNL     1      45.823   5.138  12.216  0.00  0.00    +0.000 A 
ATOM      5  C   UNL     1      44.824   5.828  11.519  0.00  0.00    +0.000 A 
ATOM      6  C   UNL     1      44.874   7.224  11.467  0.00  0.00    +0.000 A 
ATOM      7  C   UNL     1      45.910   7.921  12.090  0.00  0.00    +0.000 A 
BRANCH   5   8
ATOM      8  C   UNL     1      43.761   5.088  10.747  0.00  0.00    +0.000 C 
BRANCH   8   9
ATOM      9  N   UNL     1      44.172   4.787   9.374  0.00  0.00    +0.000 NA
ATOM     10  H   UNL     1      45.111   5.171   9.243  0.00  0.00    +0.000 HD
BRANCH   9  11
ATOM     11  C   UNL     1      44.278   3.319   9.137  0.00  0.00    +0.000 C 
ATOM     12  C   UNL     1      44.119   2.545  10.454  0.00  0.00    +0.000 C 
BRANCH  11  13
ATOM     13  C   UNL     1      45.523   2.908   8.337  0.00  0.00    +0.000 A 
ATOM     14  N   UNL     1      46.131   3.825   7.558  0.00  0.00    +0.000 NA
ATOM     15  C   UNL     1      47.155   3.392   6.797  0.00  0.00    +0.000 A 
ATOM     16  C   UNL     1      47.584   2.088   6.773  0.00  0.00    +0.000 A 
ATOM     17  C   UNL     1      46.907   1.227   7.603  0.00  0.00    +0.000 A 
ATOM     18  N   UNL     1      45.880   1.603   8.389  0.00  0.00    +0.000 NA
ENDBRANCH  11  13
ENDBRANCH   9  11
ENDBRANCH   8   9
ENDBRANCH   5   8
ENDBRANCH   1   2
BRANCH   1  19
ATOM     19  N   UNL     1      47.976   7.745  14.910  0.00  0.00    +0.000 N 
ATOM     20  C   UNL     1      48.642   8.533  15.812  0.00  0.00    +0.000 C 
ATOM     21  O   UNL     1      49.306   9.507  15.468  0.00  0.00    +0.000 OA
ATOM     22  H   UNL     1      47.540   6.884  15.221  0.00  0.00    +0.000 HD
BRANCH  20  23
ATOM     23  C   UNL     1      48.481   8.182  17.224  0.00  0.00    +0.000 A 
ATOM     24  C   UNL     1      48.326   9.180  18.173  0.00  0.00    +0.000 A 
ATOM     25  S   UNL     1      48.156   8.588  19.763  0.00  0.00    +0.000 S 
ATOM     26  C   UNL     1      48.356   6.979  19.241  0.00  0.00    +0.000 A 
ATOM     27  N   UNL     1      48.388   5.953  20.132  0.00  0.00    +0.000 NA
ATOM     28  C   UNL     1      48.611   4.783  19.618  0.00  0.00    +0.000 A 
ATOM     29  N   UNL     1      48.699   3.691  20.417  0.00  0.00    +0.000 N 
ATOM     30  N   UNL     1      48.762   4.569  18.274  0.00  0.00    +0.000 N 
ATOM     31  C   UNL     1      48.687   5.565  17.327  0.00  0.00    +0.000 A 
ATOM     32  O   UNL     1      48.760   5.317  16.125  0.00  0.00    +0.000 OA
ATOM     33  C   UNL     1      48.498   6.894  17.871  0.00  0.00    +0.000 A 
ATOM     34  H   UNL     1      48.359   3.866  21.359  0.00  0.00    +0.000 HD
ATOM     35  H   UNL     1      48.418   2.795  20.046  0.00  0.00    +0.000 HD
ATOM     36  H   UNL     1      48.944   3.643  17.927  0.00  0.00    +0.000 HD
ENDBRANCH  20  23
ENDBRANCH   1  19
BRANCH   1  37
ATOM     37  C   UNL     1      49.458   7.582  12.917  0.00  0.00    +0.000 C 
BRANCH  37  39
ATOM     38  C   UNL     1      49.617   9.673  11.821  0.00  0.00    +0.000 C 
ATOM     39  O   UNL     1      49.696   8.263  11.681  0.00  0.00    +0.000 OA
ENDBRANCH  37  39
ENDBRANCH   1  37
TORSDOF 9
ENDMDL
MODEL 2
REMARK VINA RESULT:    -7.593      1.893      2.454
REMARK INTER + INTRA:         -12.848
REMARK INTER:                 -11.435
REMARK INTRA:                  -1.413
REMARK UNBOUND:                -1.260
REMARK  Name = 
REMARK  11 active torsions:
REMARK  status: ('A' for Active; 'I' for Inactive)
REMARK    1  A    between atoms: C_1  and  O_2
REMARK    2  A    between atoms: O_2  and  C_3
REMARK    3  A    between atoms: C_3  and  C_4
REMARK    4  A    between atoms: C_4  and  N_5
REMARK    5  A    between atoms: C_4  and  C_19
REMARK    6  A    between atoms: C_6  and  C_8
REMARK    7  A    between atoms: C_22  and  C_23
REMARK    8  A    between atoms: C_23  and  N_24
REMARK    9  A    between atoms: N_24  and  C_25
REMARK   10  A    between atoms: C_25  and  C_26
REMARK   11  A    between atoms: C_25  and  C_27
REMARK                            x       y       z     vdW  Elec       q    Type
REMARK                         _______ _______ _______ _____ _____    ______ ____
ROOT
ATOM      1  C   UNL     1      48.001   8.631  14.288  0.00  0.00    +0.000 C 
ENDROOT
BRANCH   1   2
ATOM      2  C   UNL     1      47.091   7.817  13.379  0.00  0.00    +0.000 A 
ATOM      3  C   UNL     1      45.891   8.384  12.918  0.00  0.00    +0.000 A 
ATOM      4  C   UNL     1      45.020   7.653  12.108  0.00  0.00    +0.000 A 
ATOM      5  C   UNL     1      45.325   6.336  11.746  0.00  0.00    +0.000 A 
ATOM      6  C   UNL     1      46.516   5.765  12.207  0.00  0.00    +0.000 A 
ATOM      7  C   UNL     1      47.382   6.492  13.025  0.00  0.00    +0.000 A 
BRANCH   5   8
ATOM      8  C   UNL     1      44.350   5.498  10.958  0.00  0.00    +0.000 C 
BRANCH   8   9
ATOM      9  N   UNL     1      44.873   5.116   9.645  0.00  0.00    +0.000 NA
ATOM     10  H   UNL     1      45.893   5.099   9.712  0.00  0.00    +0.000 HD
BRANCH   9  11
ATOM     11  C   UNL     1      44.450   3.739   9.260  0.00  0.00    +0.000 C 
ATOM     12  C   UNL     1      44.094   2.914  10.505  0.00  0.00    +0.000 C 
BRANCH  11  13
ATOM     13  C   UNL     1      45.436   3.027   8.322  0.00  0.00    +0.000 A 
ATOM     14  N   UNL     1      45.760   1.741   8.567  0.00  0.00    +0.000 NA
ATOM     15  C   UNL     1      46.705   1.192   7.781  0.00  0.00    +0.000 A 
ATOM     16  C   UNL     1      47.344   1.873   6.774  0.00  0.00    +0.000 A 
ATOM     17  C   UNL     1      46.946   3.176   6.596  0.00  0.00    +0.000 A 
ATOM     18  N   UNL     1      46.003   3.777   7.348  0.00  0.00    +0.000 NA
ENDBRANCH  11  13
ENDBRANCH   9  11
ENDBRANCH   8   9
ENDBRANCH   5   8
ENDBRANCH   1   2
BRANCH   1  19
ATOM     19  N   UNL     1      48.980   7.734  14.884  0.00  0.00    +0.000 N 
ATOM     20  C   UNL     1      49.129   7.613  16.241  0.00  0.00    +0.000 C 
ATOM     21  O   UNL     1      48.408   8.210  17.036  0.00  0.00    +0.000 OA
ATOM     22  H   UNL     1      49.669   7.323  14.264  0.00  0.00    +0.000 HD
BRANCH  20  23
ATOM     23  C   UNL     1      50.168   6.691  16.700  0.00  0.00    +0.000 A 
ATOM     24  C   UNL     1      51.468   7.139  16.873  0.00  0.00    +0.000 A 
ATOM     25  S   UNL     1      52.542   5.928  17.409  0.00  0.00    +0.000 S 
ATOM     26  C   UNL     1      51.317   4.746  17.357  0.00  0.00    +0.000 A 
ATOM     27  N   UNL     1      51.589   3.444  17.635  0.00  0.00    +0.000 NA
ATOM     28  C   UNL     1      50.588   2.629  17.498  0.00  0.00    +0.000 A 
ATOM     29  N   UNL     1      50.753   1.301  17.714  0.00  0.00    +0.000 N 
ATOM     30  N   UNL     1      49.330   3.038  17.144  0.00  0.00    +0.000 N 
ATOM     31  C   UNL     1      48.992   4.350  16.901  0.00  0.00    +0.000 A 
ATOM     32  O   UNL     1      47.834   4.680  16.653  0.00  0.00    +0.000 OA
ATOM     33  C   UNL     1      50.099   5.280  16.988  0.00  0.00    +0.000 A 
ATOM     34  H   UNL     1      51.626   1.086  18.187  0.00  0.00    +0.000 HD
ATOM     35  H   UNL     1      49.967   0.765  18.054  0.00  0.00    +0.000 HD
ATOM     36  H   UNL     1      48.590   2.365  17.040  0.00  0.00    +0.000 HD
ENDBRANCH  20  23
ENDBRANCH   1  19
BRANCH   1  37
ATOM     37  C   UNL     1      48.676   9.839  13.591  0.00  0.00    +0.000 C 
BRANCH  37  39
ATOM     38  C   UNL     1      49.977   9.382  11.668  0.00  0.00    +0.000 C 
ATOM     39  O   UNL     1      49.960   9.457  13.084  0.00  0.00    +0.000 OA
ENDBRANCH  37  39
ENDBRANCH   1  37
TORSDOF 9
ENDMDL
MODEL 3
REMARK VINA RESULT:    -7.519      2.617      3.098
REMARK INTER + INTRA:         -12.735
REMARK INTER:                 -11.292
REMARK INTRA:                  -1.443
REMARK UNBOUND:                -1.260
REMARK  Name = 
REMARK  11 active torsions:
REMARK  status: ('A' for Active; 'I' for Inactive)
REMARK    1  A    between atoms: C_1  and  O_2
REMARK    2  A    between atoms: O_2  and  C_3
REMARK    3  A    between atoms: C_3  and  C_4
REMARK    4  A    between atoms: C_4  and  N_5
REMARK    5  A    between atoms: C_4  and  C_19
REMARK    6  A    between atoms: C_6  and  C_8
REMARK    7  A    between atoms: C_22  and  C_23
REMARK    8  A    between atoms: C_23  and  N_24
REMARK    9  A    between atoms: N_24  and  C_25
REMARK   10  A    between atoms: C_25  and  C_26
REMARK   11  A    between atoms: C_25  and  C_27
REMARK                            x       y       z     vdW  Elec       q    Type
REMARK                         _______ _______ _______ _____ _____    ______ ____
ROOT
ATOM      1  C   UNL     1      49.031   7.665  14.877  0.00  0.00    +0.000 C 
ENDROOT
BRANCH   1   2
ATOM      2  C   UNL     1      47.934   6.883  14.168  0.00  0.00    +0.000 A 
ATOM      3  C   UNL     1      47.191   7.505  13.152  0.00  0.00    +0.000 A 
ATOM      4  C   UNL     1      46.157   6.826  12.504  0.00  0.00    +0.000 A 
ATOM      5  C   UNL     1      45.838   5.511  12.863  0.00  0.00    +0.000 A 
ATOM      6  C   UNL     1      46.571   4.890  13.878  0.00  0.00    +0.000 A 
ATOM      7  C   UNL     1      47.598   5.571  14.532  0.00  0.00    +0.000 A 
BRANCH   5   8
ATOM      8  C   UNL     1      44.662   4.798  12.246  0.00  0.00    +0.000 C 
BRANCH   8   9
ATOM      9  N   UNL     1      44.509   5.098  10.821  0.00  0.00    +0.000 NA
ATOM     10  H   UNL     1      45.426   5.380  10.465  0.00  0.00    +0.000 HD
BRANCH   9  11
ATOM     11  C   UNL     1      44.105   3.892  10.042  0.00  0.00    +0.000 C 
ATOM     12  C   UNL     1      43.604   2.784  10.980  0.00  0.00    +0.000 C 
BRANCH  11  13
ATOM     13  C   UNL     1      45.171   3.410   9.048  0.00  0.00    +0.000 A 
ATOM     14  N   UNL     1      45.722   4.300   8.197  0.00  0.00    +0.000 NA
ATOM     15  C   UNL     1      46.575   3.813   7.276  0.00  0.00    +0.000 A 
ATOM     16  C   UNL     1      46.889   2.481   7.162  0.00  0.00    +0.000 A 
ATOM     17  C   UNL     1      46.283   1.650   8.074  0.00  0.00    +0.000 A 
ATOM     18  N   UNL     1      45.426   2.081   9.020  0.00  0.00    +0.000 NA
ENDBRANCH  11  13
ENDBRANCH   9  11
ENDBRANCH   8   9
ENDBRANCH   5   8
ENDBRANCH   1   2
BRANCH   1  19
ATOM     19  N   UNL     1      50.000   6.719  15.411  0.00  0.00    +0.000 N 
ATOM     20  C   UNL     1      50.357   6.708  16.734  0.00  0.00    +0.000 C 
ATOM     21  O   UNL     1      49.839   7.455  17.560  0.00  0.00    +0.000 OA
ATOM     22  H   UNL     1      50.534   6.176  14.742  0.00  0.00    +0.000 HD
BRANCH  20  23
ATOM     23  C   UNL     1      51.360   5.717  17.128  0.00  0.00    +0.000 A 
ATOM     24  C   UNL     1      52.693   6.081  17.227  0.00  0.00    +0.000 A 
ATOM     25  S   UNL     1      53.717   4.800  17.694  0.00  0.00    +0.000 S 
ATOM     26  C   UNL     1      52.418   3.698  17.708  0.00  0.00    +0.000 A 
ATOM     27  N   UNL     1      52.622   2.379  17.963  0.00  0.00    +0.000 NA
ATOM     28  C   UNL     1      51.565   1.631  17.880  0.00  0.00    +0.000 A 
ATOM     29  N   UNL     1      51.657   0.293  18.080  0.00  0.00    +0.000 N 
ATOM     30  N   UNL     1      50.318   2.121  17.602  0.00  0.00    +0.000 N 
ATOM     31  C   UNL     1      50.050   3.454  17.386  0.00  0.00    +0.000 A 
ATOM     32  O   UNL     1      48.903   3.859  17.206  0.00  0.00    +0.000 OA
ATOM     33  C   UNL     1      51.217   4.311  17.412  0.00  0.00    +0.000 A 
ATOM     34  H   UNL     1      52.541   0.019  18.501  0.00  0.00    +0.000 HD
ATOM     35  H   UNL     1      50.860  -0.195  18.463  0.00  0.00    +0.000 HD
ATOM     36  H   UNL     1      49.531   1.498  17.538  0.00  0.00    +0.000 HD
ENDBRANCH  20  23
ENDBRANCH   1  19
BRANCH   1  37
ATOM     37  C   UNL     1      49.707   8.745  13.996  0.00  0.00    +0.000 C 
BRANCH  37  39
ATOM     38  C   UNL     1      50.788   8.172  11.971  0.00  0.00    +0.000 C 
ATOM     39  O   UNL     1      50.887   8.213  13.386  0.00  0.00    +0.000 OA
ENDBRANCH  37  39
ENDBRANCH   1  37
TORSDOF 9
ENDMDL
MODEL 4
REMARK VINA RESULT:    -7.082      1.867      2.230
REMARK INTER + INTRA:         -12.067
REMARK INTER:                 -10.610
REMARK INTRA:                  -1.457
REMARK UNBOUND:                -1.260
REMARK  Name = 
REMARK  11 active torsions:
REMARK  status: ('A' for Active; 'I' for Inactive)
REMARK    1  A    between atoms: C_1  and  O_2
REMARK    2  A    between atoms: O_2  and  C_3
REMARK    3  A    between atoms: C_3  and  C_4
REMARK    4  A    between atoms: C_4  and  N_5
REMARK    5  A    between atoms: C_4  and  C_19
REMARK    6  A    between atoms: C_6  and  C_8
REMARK    7  A    between atoms: C_22  and  C_23
REMARK    8  A    between atoms: C_23  and  N_24
REMARK    9  A    between atoms: N_24  and  C_25
REMARK   10  A    between atoms: C_25  and  C_26
REMARK   11  A    between atoms: C_25  and  C_27
REMARK                            x       y       z     vdW  Elec       q    Type
REMARK                         _______ _______ _______ _____ _____    ______ ____
ROOT
ATOM      1  C   UNL     1      47.570   8.588  13.903  0.00  0.00    +0.000 C 
ENDROOT
BRANCH   1   2
ATOM      2  C   UNL     1      46.625   7.713  13.090  0.00  0.00    +0.000 A 
ATOM      3  C   UNL     1      46.801   6.319  13.097  0.00  0.00    +0.000 A 
ATOM      4  C   UNL     1      45.972   5.491  12.338  0.00  0.00    +0.000 A 
ATOM      5  C   UNL     1      44.953   6.038  11.550  0.00  0.00    +0.000 A 
ATOM      6  C   UNL     1      44.778   7.425  11.535  0.00  0.00    +0.000 A 
ATOM      7  C   UNL     1      45.613   8.254  12.286  0.00  0.00    +0.000 A 
BRANCH   5   8
ATOM      8  C   UNL     1      44.115   5.169  10.647  0.00  0.00    +0.000 C 
BRANCH   8   9
ATOM      9  N   UNL     1      44.785   4.866   9.381  0.00  0.00    +0.000 NA
ATOM     10  H   UNL     1      45.793   4.943   9.539  0.00  0.00    +0.000 HD
BRANCH   9  11
ATOM     11  C   UNL     1      44.531   3.463   8.942  0.00  0.00    +0.000 C 
ATOM     12  C   UNL     1      44.264   2.557  10.152  0.00  0.00    +0.000 C 
BRANCH  11  13
ATOM     13  C   UNL     1      45.601   2.908   7.990  0.00  0.00    +0.000 A 
ATOM     14  N   UNL     1      46.111   1.682   8.225  0.00  0.00    +0.000 NA
ATOM     15  C   UNL     1      47.118   1.279   7.427  0.00  0.00    +0.000 A 
ATOM     16  C   UNL     1      47.643   2.052   6.419  0.00  0.00    +0.000 A 
ATOM     17  C   UNL     1      47.057   3.284   6.253  0.00  0.00    +0.000 A 
ATOM     18  N   UNL     1      46.044   3.737   7.017  0.00  0.00    +0.000 NA
ENDBRANCH  11  13
ENDBRANCH   9  11
ENDBRANCH   8   9
ENDBRANCH   5   8
ENDBRANCH   1   2
BRANCH   1  19
ATOM     19  N   UNL     1      48.157   7.776  14.958  0.00  0.00    +0.000 N 
ATOM     20  C   UNL     1      48.374   8.264  16.220  0.00  0.00    +0.000 C 
ATOM     21  O   UNL     1      48.033   9.396  16.553  0.00  0.00    +0.000 OA
ATOM     22  H   UNL     1      48.560   6.886  14.687  0.00  0.00    +0.000 HD
BRANCH  20  23
ATOM     23  C   UNL     1      48.993   7.344  17.175  0.00  0.00    +0.000 A 
ATOM     24  C   UNL     1      48.330   7.006  18.343  0.00  0.00    +0.000 A 
ATOM     25  S   UNL     1      49.202   5.928  19.336  0.00  0.00    +0.000 S 
ATOM     26  C   UNL     1      50.527   5.934  18.267  0.00  0.00    +0.000 A 
ATOM     27  N   UNL     1      51.668   5.256  18.562  0.00  0.00    +0.000 NA
ATOM     28  C   UNL     1      52.629   5.392  17.701  0.00  0.00    +0.000 A 
ATOM     29  N   UNL     1      53.825   4.788  17.911  0.00  0.00    +0.000 N 
ATOM     30  N   UNL     1      52.509   6.123  16.550  0.00  0.00    +0.000 N 
ATOM     31  C   UNL     1      51.360   6.786  16.181  0.00  0.00    +0.000 A 
ATOM     32  O   UNL     1      51.275   7.375  15.104  0.00  0.00    +0.000 OA
ATOM     33  C   UNL     1      50.285   6.706  17.148  0.00  0.00    +0.000 A 
ATOM     34  H   UNL     1      53.786   4.087  18.646  0.00  0.00    +0.000 HD
ATOM     35  H   UNL     1      54.372   4.505  17.111  0.00  0.00    +0.000 HD
ATOM     36  H   UNL     1      53.288   6.207  15.920  0.00  0.00    +0.000 HD
ENDBRANCH  20  23
ENDBRANCH   1  19
BRANCH   1  37
ATOM     37  C   UNL     1      48.652   9.305  13.057  0.00  0.00    +0.000 C 
BRANCH  37  39
ATOM     38  C   UNL     1      50.186   8.093  11.724  0.00  0.00    +0.000 C 
ATOM     39  O   UNL     1      48.864   8.598  11.831  0.00  0.00    +0.000 OA
ENDBRANCH  37  39
ENDBRANCH   1  37
TORSDOF 9
ENDMDL
MODEL 5
REMARK VINA RESULT:    -6.868      3.359      9.244
REMARK INTER + INTRA:         -11.741
REMARK INTER:                 -10.567
REMARK INTRA:                  -1.174
REMARK UNBOUND:                -1.260
REMARK  Name = 
REMARK  11 active torsions:
REMARK  status: ('A' for Active; 'I' for Inactive)
REMARK    1  A    between atoms: C_1  and  O_2
REMARK    2  A    between atoms: O_2  and  C_3
REMARK    3  A    between atoms: C_3  and  C_4
REMARK    4  A    between atoms: C_4  and  N_5
REMARK    5  A    between atoms: C_4  and  C_19
REMARK    6  A    between atoms: C_6  and  C_8
REMARK    7  A    between atoms: C_22  and  C_23
REMARK    8  A    between atoms: C_23  and  N_24
REMARK    9  A    between atoms: N_24  and  C_25
REMARK   10  A    between atoms: C_25  and  C_26
REMARK   11  A    between atoms: C_25  and  C_27
REMARK                            x       y       z     vdW  Elec       q    Type
REMARK                         _______ _______ _______ _____ _____    ______ ____
ROOT
ATOM      1  C   UNL     1      45.106   6.644  11.552  0.00  0.00    +0.000 C 
ENDROOT
BRANCH   1   2
ATOM      2  C   UNL     1      46.383   7.042  12.280  0.00  0.00    +0.000 A 
ATOM      3  C   UNL     1      47.559   6.306  12.060  0.00  0.00    +0.000 A 
ATOM      4  C   UNL     1      48.739   6.626  12.736  0.00  0.00    +0.000 A 
ATOM      5  C   UNL     1      48.767   7.686  13.650  0.00  0.00    +0.000 A 
ATOM      6  C   UNL     1      47.598   8.418  13.875  0.00  0.00    +0.000 A 
ATOM      7  C   UNL     1      46.416   8.092  13.208  0.00  0.00    +0.000 A 
BRANCH   5   8
ATOM      8  C   UNL     1      50.003   7.981  14.462  0.00  0.00    +0.000 C 
BRANCH   8   9
ATOM      9  N   UNL     1      50.381   6.866  15.333  0.00  0.00    +0.000 NA
ATOM     10  H   UNL     1      51.336   7.037  15.656  0.00  0.00    +0.000 HD
BRANCH   9  11
ATOM     11  C   UNL     1      49.526   6.803  16.554  0.00  0.00    +0.000 C 
ATOM     12  C   UNL     1      50.278   7.362  17.771  0.00  0.00    +0.000 C 
BRANCH  11  13
ATOM     13  C   UNL     1      48.905   5.421  16.806  0.00  0.00    +0.000 A 
ATOM     14  N   UNL     1      48.138   4.865  15.846  0.00  0.00    +0.000 NA
ATOM     15  C   UNL     1      47.532   3.702  16.151  0.00  0.00    +0.000 A 
ATOM     16  C   UNL     1      47.649   3.083  17.371  0.00  0.00    +0.000 A 
ATOM     17  C   UNL     1      48.453   3.722  18.284  0.00  0.00    +0.000 A 
ATOM     18  N   UNL     1      49.088   4.883  18.034  0.00  0.00    +0.000 NA
ENDBRANCH  11  13
ENDBRANCH   9  11
ENDBRANCH   8   9
ENDBRANCH   5   8
ENDBRANCH   1   2
BRANCH   1  19
ATOM     19  N   UNL     1      45.370   5.432  10.789  0.00  0.00    +0.000 N 
ATOM     20  C   UNL     1      44.379   4.755  10.129  0.00  0.00    +0.000 C 
ATOM     21  O   UNL     1      43.220   5.160  10.091  0.00  0.00    +0.000 OA
ATOM     22  H   UNL     1      46.283   5.005  10.900  0.00  0.00    +0.000 HD
BRANCH  20  23
ATOM     23  C   UNL     1      44.783   3.539   9.421  0.00  0.00    +0.000 A 
ATOM     24  C   UNL     1      44.182   2.328   9.724  0.00  0.00    +0.000 A 
ATOM     25  S   UNL     1      44.780   1.022   8.805  0.00  0.00    +0.000 S 
ATOM     26  C   UNL     1      45.913   2.023   8.022  0.00  0.00    +0.000 A 
ATOM     27  N   UNL     1      46.810   1.509   7.141  0.00  0.00    +0.000 NA
ATOM     28  C   UNL     1      47.663   2.361   6.660  0.00  0.00    +0.000 A 
ATOM     29  N   UNL     1      48.626   1.952   5.798  0.00  0.00    +0.000 N 
ATOM     30  N   UNL     1      47.649   3.694   6.971  0.00  0.00    +0.000 N 
ATOM     31  C   UNL     1      46.730   4.273   7.818  0.00  0.00    +0.000 A 
ATOM     32  O   UNL     1      46.713   5.487   8.015  0.00  0.00    +0.000 OA
ATOM     33  C   UNL     1      45.800   3.341   8.419  0.00  0.00    +0.000 A 
ATOM     34  H   UNL     1      48.454   1.021   5.430  0.00  0.00    +0.000 HD
ATOM     35  H   UNL     1      48.964   2.604   5.105  0.00  0.00    +0.000 HD
ATOM     36  H   UNL     1      48.339   4.312   6.581  0.00  0.00    +0.000 HD
ENDBRANCH  20  23
ENDBRANCH   1  19
BRANCH   1  37
ATOM     37  C   UNL     1      43.874   6.485  12.477  0.00  0.00    +0.000 C 
BRANCH  37  39
ATOM     38  C   UNL     1      43.209   4.418  13.417  0.00  0.00    +0.000 C 
ATOM     39  O   UNL     1      44.135   5.492  13.475  0.00  0.00    +0.000 OA
ENDBRANCH  37  39
ENDBRANCH   1  37
TORSDOF 9
ENDMDL
MODEL 6
REMARK VINA RESULT:    -6.716      2.659      3.131
REMARK INTER + INTRA:         -11.509
REMARK INTER:                 -10.017
REMARK INTRA:                  -1.492
REMARK UNBOUND:                -1.260
REMARK  Name = 
REMARK  11 active torsions:
REMARK  status: ('A' for Active; 'I' for Inactive)
REMARK    1  A    between atoms: C_1  and  O_2
REMARK    2  A    between atoms: O_2  and  C_3
REMARK    3  A    between atoms: C_3  and  C_4
REMARK    4  A    between atoms: C_4  and  N_5
REMARK    5  A    between atoms: C_4  and  C_19
REMARK    6  A    between atoms: C_6  and  C_8
REMARK    7  A    between atoms: C_22  and  C_23
REMARK    8  A    between atoms: C_23  and  N_24
REMARK    9  A    between atoms: N_24  and  C_25
REMARK   10  A    between atoms: C_25  and  C_26
REMARK   11  A    between atoms: C_25  and  C_27
REMARK                            x       y       z     vdW  Elec       q    Type
REMARK                         _______ _______ _______ _____ _____    ______ ____
ROOT
ATOM      1  C   UNL     1      49.995   8.452  12.759  0.00  0.00    +0.000 C 
ENDROOT
BRANCH   1   2
ATOM      2  C   UNL     1      48.733   7.609  12.629  0.00  0.00    +0.000 A 
ATOM      3  C   UNL     1      47.638   8.116  11.910  0.00  0.00    +0.000 A 
ATOM      4  C   UNL     1      46.455   7.381  11.798  0.00  0.00    +0.000 A 
ATOM      5  C   UNL     1      46.340   6.127  12.408  0.00  0.00    +0.000 A 
ATOM      6  C   UNL     1      47.425   5.622  13.130  0.00  0.00    +0.000 A 
ATOM      7  C   UNL     1      48.603   6.360  13.250  0.00  0.00    +0.000 A 
BRANCH   5   8
ATOM      8  C   UNL     1      45.038   5.366  12.384  0.00  0.00    +0.000 C 
BRANCH   8   9
ATOM      9  N   UNL     1      44.268   5.612  11.163  0.00  0.00    +0.000 NA
ATOM     10  H   UNL     1      44.898   6.042  10.482  0.00  0.00    +0.000 HD
BRANCH   9  11
ATOM     11  C   UNL     1      43.784   4.342  10.549  0.00  0.00    +0.000 C 
ATOM     12  C   UNL     1      43.336   3.352  11.634  0.00  0.00    +0.000 C 
BRANCH  11  13
ATOM     13  C   UNL     1      44.764   3.730   9.536  0.00  0.00    +0.000 A 
ATOM     14  N   UNL     1      45.362   4.538   8.637  0.00  0.00    +0.000 NA
ATOM     15  C   UNL     1      46.132   3.944   7.705  0.00  0.00    +0.000 A 
ATOM     16  C   UNL     1      46.316   2.585   7.627  0.00  0.00    +0.000 A 
ATOM     17  C   UNL     1      45.669   1.844   8.587  0.00  0.00    +0.000 A 
ATOM     18  N   UNL     1      44.892   2.383   9.546  0.00  0.00    +0.000 NA
ENDBRANCH  11  13
ENDBRANCH   9  11
ENDBRANCH   8   9
ENDBRANCH   5   8
ENDBRANCH   1   2
BRANCH   1  19
ATOM     19  N   UNL     1      50.930   7.751  13.627  0.00  0.00    +0.000 N 
ATOM     20  C   UNL     1      51.135   8.122  14.930  0.00  0.00    +0.000 C 
ATOM     21  O   UNL     1      50.501   9.029  15.462  0.00  0.00    +0.000 OA
ATOM     22  H   UNL     1      51.555   7.083  13.190  0.00  0.00    +0.000 HD
BRANCH  20  23
ATOM     23  C   UNL     1      52.121   7.342  15.679  0.00  0.00    +0.000 A 
ATOM     24  C   UNL     1      53.466   7.668  15.604  0.00  0.00    +0.000 A 
ATOM     25  S   UNL     1      54.467   6.651  16.537  0.00  0.00    +0.000 S 
ATOM     26  C   UNL     1      53.141   5.697  17.016  0.00  0.00    +0.000 A 
ATOM     27  N   UNL     1      53.317   4.589  17.783  0.00  0.00    +0.000 NA
ATOM     28  C   UNL     1      52.239   3.909  18.026  0.00  0.00    +0.000 A 
ATOM     29  N   UNL     1      52.301   2.766  18.752  0.00  0.00    +0.000 N 
ATOM     30  N   UNL     1      50.997   4.288  17.589  0.00  0.00    +0.000 N 
ATOM     31  C   UNL     1      50.760   5.426  16.853  0.00  0.00    +0.000 A 
ATOM     32  O   UNL     1      49.619   5.763  16.540  0.00  0.00    +0.000 OA
ATOM     33  C   UNL     1      51.949   6.179  16.513  0.00  0.00    +0.000 A 
ATOM     34  H   UNL     1      53.187   2.656  19.236  0.00  0.00    +0.000 HD
ATOM     35  H   UNL     1      51.501   2.503  19.311  0.00  0.00    +0.000 HD
ATOM     36  H   UNL     1      50.194   3.720  17.795  0.00  0.00    +0.000 HD
ENDBRANCH  20  23
ENDBRANCH   1  19
BRANCH   1  37
ATOM     37  C   UNL     1      50.642   8.835  11.405  0.00  0.00    +0.000 C 
BRANCH  37  39
ATOM     38  C   UNL     1      50.523  11.055  12.215  0.00  0.00    +0.000 C 
ATOM     39  O   UNL     1      50.355  10.202  11.093  0.00  0.00    +0.000 OA
ENDBRANCH  37  39
ENDBRANCH   1  37
TORSDOF 9
ENDMDL
MODEL 7
REMARK VINA RESULT:    -6.655      3.655      4.906
REMARK INTER + INTRA:         -11.416
REMARK INTER:                 -10.075
REMARK INTRA:                  -1.341
REMARK UNBOUND:                -1.260
REMARK  Name = 
REMARK  11 active torsions:
REMARK  status: ('A' for Active; 'I' for Inactive)
REMARK    1  A    between atoms: C_1  and  O_2
REMARK    2  A    between atoms: O_2  and  C_3
REMARK    3  A    between atoms: C_3  and  C_4
REMARK    4  A    between atoms: C_4  and  N_5
REMARK    5  A    between atoms: C_4  and  C_19
REMARK    6  A    between atoms: C_6  and  C_8
REMARK    7  A    between atoms: C_22  and  C_23
REMARK    8  A    between atoms: C_23  and  N_24
REMARK    9  A    between atoms: N_24  and  C_25
REMARK   10  A    between atoms: C_25  and  C_26
REMARK   11  A    between atoms: C_25  and  C_27
REMARK                            x       y       z     vdW  Elec       q    Type
REMARK                         _______ _______ _______ _____ _____    ______ ____
ROOT
ATOM      1  C   UNL     1      49.405   6.593  17.485  0.00  0.00    +0.000 C 
ENDROOT
BRANCH   1   2
ATOM      2  C   UNL     1      48.581   6.101  16.302  0.00  0.00    +0.000 A 
ATOM      3  C   UNL     1      47.869   4.895  16.415  0.00  0.00    +0.000 A 
ATOM      4  C   UNL     1      47.129   4.399  15.338  0.00  0.00    +0.000 A 
ATOM      5  C   UNL     1      47.091   5.095  14.124  0.00  0.00    +0.000 A 
ATOM      6  C   UNL     1      47.803   6.293  14.007  0.00  0.00    +0.000 A 
ATOM      7  C   UNL     1      48.550   6.783  15.079  0.00  0.00    +0.000 A 
BRANCH   5   8
ATOM      8  C   UNL     1      46.382   4.525  12.922  0.00  0.00    +0.000 C 
BRANCH   8   9
ATOM      9  N   UNL     1      46.139   5.531  11.886  0.00  0.00    +0.000 NA
ATOM     10  H   UNL     1      46.921   5.491  11.228  0.00  0.00    +0.000 HD
BRANCH   9  11
ATOM     11  C   UNL     1      44.909   5.229  11.099  0.00  0.00    +0.000 C 
ATOM     12  C   UNL     1      43.771   4.778  12.026  0.00  0.00    +0.000 C 
BRANCH  11  13
ATOM     13  C   UNL     1      45.145   4.276   9.919  0.00  0.00    +0.000 A 
ATOM     14  N   UNL     1      44.934   2.955  10.093  0.00  0.00    +0.000 NA
ATOM     15  C   UNL     1      45.253   2.148   9.063  0.00  0.00    +0.000 A 
ATOM     16  C   UNL     1      45.782   2.601   7.879  0.00  0.00    +0.000 A 
ATOM     17  C   UNL     1      45.959   3.962   7.793  0.00  0.00    +0.000 A 
ATOM     18  N   UNL     1      45.653   4.818   8.787  0.00  0.00    +0.000 NA
ENDBRANCH  11  13
ENDBRANCH   9  11
ENDBRANCH   8   9
ENDBRANCH   5   8
ENDBRANCH   1   2
BRANCH   1  19
ATOM     19  N   UNL     1      50.592   5.757  17.600  0.00  0.00    +0.000 N 
ATOM     20  C   UNL     1      50.744   4.841  18.606  0.00  0.00    +0.000 C 
ATOM     21  O   UNL     1      49.866   4.627  19.438  0.00  0.00    +0.000 OA
ATOM     22  H   UNL     1      51.382   5.992  17.009  0.00  0.00    +0.000 HD
BRANCH  20  23
ATOM     23  C   UNL     1      51.997   4.085  18.613  0.00  0.00    +0.000 A 
ATOM     24  C   UNL     1      53.149   4.656  19.130  0.00  0.00    +0.000 A 
ATOM     25  S   UNL     1      54.512   3.634  19.051  0.00  0.00    +0.000 S 
ATOM     26  C   UNL     1      53.620   2.420  18.256  0.00  0.00    +0.000 A 
ATOM     27  N   UNL     1      54.220   1.278  17.829  0.00  0.00    +0.000 NA
ATOM     28  C   UNL     1      53.450   0.460  17.180  0.00  0.00    +0.000 A 
ATOM     29  N   UNL     1      53.950  -0.695  16.676  0.00  0.00    +0.000 N 
ATOM     30  N   UNL     1      52.117   0.691  16.967  0.00  0.00    +0.000 N 
ATOM     31  C   UNL     1      51.452   1.808  17.422  0.00  0.00    +0.000 A 
ATOM     32  O   UNL     1      50.240   1.941  17.268  0.00  0.00    +0.000 OA
ATOM     33  C   UNL     1      52.294   2.771  18.101  0.00  0.00    +0.000 A 
ATOM     34  H   UNL     1      54.866  -0.922  17.052  0.00  0.00    +0.000 HD
ATOM     35  H   UNL     1      53.337  -1.494  16.597  0.00  0.00    +0.000 HD
ATOM     36  H   UNL     1      51.566   0.031  16.447  0.00  0.00    +0.000 HD
ENDBRANCH  20  23
ENDBRANCH   1  19
BRANCH   1  37
ATOM     37  C   UNL     1      49.765   8.099  17.421  0.00  0.00    +0.000 C 
BRANCH  37  39
ATOM     38  C   UNL     1      51.728   9.060  16.514  0.00  0.00    +0.000 C 
ATOM     39  O   UNL     1      51.180   8.270  17.558  0.00  0.00    +0.000 OA
ENDBRANCH  37  39
ENDBRANCH   1  37
TORSDOF 9
ENDMDL
MODEL 8
REMARK VINA RESULT:    -6.573      4.683      8.893
REMARK INTER + INTRA:         -11.292
REMARK INTER:                  -9.483
REMARK INTRA:                  -1.809
REMARK UNBOUND:                -1.260
REMARK  Name = 
REMARK  11 active torsions:
REMARK  status: ('A' for Active; 'I' for Inactive)
REMARK    1  A    between atoms: C_1  and  O_2
REMARK    2  A    between atoms: O_2  and  C_3
REMARK    3  A    between atoms: C_3  and  C_4
REMARK    4  A    between atoms: C_4  and  N_5
REMARK    5  A    between atoms: C_4  and  C_19
REMARK    6  A    between atoms: C_6  and  C_8
REMARK    7  A    between atoms: C_22  and  C_23
REMARK    8  A    between atoms: C_23  and  N_24
REMARK    9  A    between atoms: N_24  and  C_25
REMARK   10  A    between atoms: C_25  and  C_26
REMARK   11  A    between atoms: C_25  and  C_27
REMARK                            x       y       z     vdW  Elec       q    Type
REMARK                         _______ _______ _______ _____ _____    ______ ____
ROOT
ATOM      1  C   UNL     1      45.137   6.214  12.146  0.00  0.00    +0.000 C 
ENDROOT
BRANCH   1   2
ATOM      2  C   UNL     1      46.241   7.250  11.988  0.00  0.00    +0.000 A 
ATOM      3  C   UNL     1      47.534   6.830  11.636  0.00  0.00    +0.000 A 
ATOM      4  C   UNL     1      48.577   7.753  11.514  0.00  0.00    +0.000 A 
ATOM      5  C   UNL     1      48.349   9.114  11.747  0.00  0.00    +0.000 A 
ATOM      6  C   UNL     1      47.064   9.535  12.103  0.00  0.00    +0.000 A 
ATOM      7  C   UNL     1      46.026   8.613  12.235  0.00  0.00    +0.000 A 
BRANCH   5   8
ATOM      8  C   UNL     1      49.482  10.109  11.720  0.00  0.00    +0.000 C 
BRANCH   8   9
ATOM      9  N   UNL     1      50.785   9.480  11.941  0.00  0.00    +0.000 NA
ATOM     10  H   UNL     1      50.672   8.475  11.792  0.00  0.00    +0.000 HD
BRANCH   9  11
ATOM     11  C   UNL     1      51.798   9.943  10.949  0.00  0.00    +0.000 C 
ATOM     12  C   UNL     1      51.246  11.107  10.114  0.00  0.00    +0.000 C 
BRANCH  11  13
ATOM     13  C   UNL     1      52.393   8.813  10.096  0.00  0.00    +0.000 A 
ATOM     14  N   UNL     1      52.806   9.088   8.842  0.00  0.00    +0.000 NA
ATOM     15  C   UNL     1      53.225   8.046   8.098  0.00  0.00    +0.000 A 
ATOM     16  C   UNL     1      53.235   6.748   8.548  0.00  0.00    +0.000 A 
ATOM     17  C   UNL     1      52.800   6.566   9.838  0.00  0.00    +0.000 A 
ATOM     18  N   UNL     1      52.375   7.569  10.631  0.00  0.00    +0.000 NA
ENDBRANCH  11  13
ENDBRANCH   9  11
ENDBRANCH   8   9
ENDBRANCH   5   8
ENDBRANCH   1   2
BRANCH   1  19
ATOM     19  N   UNL     1      45.390   5.125  11.212  0.00  0.00    +0.000 N 
ATOM     20  C   UNL     1      44.382   4.510  10.518  0.00  0.00    +0.000 C 
ATOM     21  O   UNL     1      43.213   4.876  10.596  0.00  0.00    +0.000 OA
ATOM     22  H   UNL     1      46.319   4.719  11.216  0.00  0.00    +0.000 HD
BRANCH  20  23
ATOM     23  C   UNL     1      44.779   3.415   9.631  0.00  0.00    +0.000 A 
ATOM     24  C   UNL     1      44.249   2.148   9.812  0.00  0.00    +0.000 A 
ATOM     25  S   UNL     1      44.826   1.000   8.692  0.00  0.00    +0.000 S 
ATOM     26  C   UNL     1      45.860   2.146   7.972  0.00  0.00    +0.000 A 
ATOM     27  N   UNL     1      46.709   1.791   6.972  0.00  0.00    +0.000 NA
ATOM     28  C   UNL     1      47.491   2.737   6.550  0.00  0.00    +0.000 A 
ATOM     29  N   UNL     1      48.403   2.488   5.579  0.00  0.00    +0.000 N 
ATOM     30  N   UNL     1      47.449   4.018   7.034  0.00  0.00    +0.000 N 
ATOM     31  C   UNL     1      46.575   4.439   8.010  0.00  0.00    +0.000 A 
ATOM     32  O   UNL     1      46.526   5.615   8.365  0.00  0.00    +0.000 OA
ATOM     33  C   UNL     1      45.726   3.395   8.545  0.00  0.00    +0.000 A 
ATOM     34  H   UNL     1      48.239   1.604   5.104  0.00  0.00    +0.000 HD
ATOM     35  H   UNL     1      48.664   3.239   4.955  0.00  0.00    +0.000 HD
ATOM     36  H   UNL     1      48.085   4.712   6.682  0.00  0.00    +0.000 HD
ENDBRANCH  20  23
ENDBRANCH   1  19
BRANCH   1  37
ATOM     37  C   UNL     1      44.956   5.698  13.596  0.00  0.00    +0.000 C 
BRANCH  37  39
ATOM     38  C   UNL     1      46.799   4.508  14.482  0.00  0.00    +0.000 C 
ATOM     39  O   UNL     1      45.590   4.423  13.745  0.00  0.00    +0.000 OA
ENDBRANCH  37  39
ENDBRANCH   1  37
TORSDOF 9
ENDMDL
MODEL 9
REMARK VINA RESULT:    -6.532      3.149      8.578
REMARK INTER + INTRA:         -11.229
REMARK INTER:                 -10.437
REMARK INTRA:                  -0.792
REMARK UNBOUND:                -1.260
REMARK  Name = 
REMARK  11 active torsions:
REMARK  status: ('A' for Active; 'I' for Inactive)
REMARK    1  A    between atoms: C_1  and  O_2
REMARK    2  A    between atoms: O_2  and  C_3
REMARK    3  A    between atoms: C_3  and  C_4
REMARK    4  A    between atoms: C_4  and  N_5
REMARK    5  A    between atoms: C_4  and  C_19
REMARK    6  A    between atoms: C_6  and  C_8
REMARK    7  A    between atoms: C_22  and  C_23
REMARK    8  A    between atoms: C_23  and  N_24
REMARK    9  A    between atoms: N_24  and  C_25
REMARK   10  A    between atoms: C_25  and  C_26
REMARK   11  A    between atoms: C_25  and  C_27
REMARK                            x       y       z     vdW  Elec       q    Type
REMARK                         _______ _______ _______ _____ _____    ______ ____
ROOT
ATOM      1  C   UNL     1      46.354   8.206  12.029  0.00  0.00    +0.000 C 
ENDROOT
BRANCH   1   2
ATOM      2  C   UNL     1      47.593   8.149  12.912  0.00  0.00    +0.000 A 
ATOM      3  C   UNL     1      48.750   7.511  12.434  0.00  0.00    +0.000 A 
ATOM      4  C   UNL     1      49.893   7.414  13.231  0.00  0.00    +0.000 A 
ATOM      5  C   UNL     1      49.902   7.947  14.525  0.00  0.00    +0.000 A 
ATOM      6  C   UNL     1      48.751   8.577  15.007  0.00  0.00    +0.000 A 
ATOM      7  C   UNL     1      47.606   8.666  14.215  0.00  0.00    +0.000 A 
BRANCH   5   8
ATOM      8  C   UNL     1      51.090   7.763  15.435  0.00  0.00    +0.000 C 
BRANCH   8   9
ATOM      9  N   UNL     1      51.217   6.387  15.920  0.00  0.00    +0.000 NA
ATOM     10  H   UNL     1      52.207   6.217  16.111  0.00  0.00    +0.000 HD
BRANCH   9  11
ATOM     11  C   UNL     1      50.496   6.187  17.210  0.00  0.00    +0.000 C 
ATOM     12  C   UNL     1      51.492   6.047  18.371  0.00  0.00    +0.000 C 
BRANCH  11  13
ATOM     13  C   UNL     1      49.450   5.063  17.168  0.00  0.00    +0.000 A 
ATOM     14  N   UNL     1      48.516   5.076  16.196  0.00  0.00    +0.000 NA
ATOM     15  C   UNL     1      47.559   4.131  16.260  0.00  0.00    +0.000 A 
ATOM     16  C   UNL     1      47.490   3.187  17.255  0.00  0.00    +0.000 A 
ATOM     17  C   UNL     1      48.487   3.250  18.200  0.00  0.00    +0.000 A 
ATOM     18  N   UNL     1      49.471   4.169  18.184  0.00  0.00    +0.000 NA
ENDBRANCH  11  13
ENDBRANCH   9  11
ENDBRANCH   8   9
ENDBRANCH   5   8
ENDBRANCH   1   2
BRANCH   1  19
ATOM     19  N   UNL     1      45.931   6.843  11.739  0.00  0.00    +0.000 N 
ATOM     20  C   UNL     1      44.650   6.541  11.360  0.00  0.00    +0.000 C 
ATOM     21  O   UNL     1      43.796   7.406  11.184  0.00  0.00    +0.000 OA
ATOM     22  H   UNL     1      46.570   6.097  11.990  0.00  0.00    +0.000 HD
BRANCH  20  23
ATOM     23  C   UNL     1      44.359   5.126  11.122  0.00  0.00    +0.000 A 
ATOM     24  C   UNL     1      43.521   4.436  11.982  0.00  0.00    +0.000 A 
ATOM     25  S   UNL     1      43.301   2.800  11.553  0.00  0.00    +0.000 S 
ATOM     26  C   UNL     1      44.377   2.945  10.242  0.00  0.00    +0.000 A 
ATOM     27  N   UNL     1      44.701   1.867   9.480  0.00  0.00    +0.000 NA
ATOM     28  C   UNL     1      45.581   2.090   8.553  0.00  0.00    +0.000 A 
ATOM     29  N   UNL     1      46.005   1.080   7.755  0.00  0.00    +0.000 N 
ATOM     30  N   UNL     1      46.123   3.325   8.314  0.00  0.00    +0.000 N 
ATOM     31  C   UNL     1      45.791   4.457   9.023  0.00  0.00    +0.000 A 
ATOM     32  O   UNL     1      46.252   5.558   8.729  0.00  0.00    +0.000 OA
ATOM     33  C   UNL     1      44.855   4.233  10.105  0.00  0.00    +0.000 A 
ATOM     34  H   UNL     1      45.416   0.254   7.821  0.00  0.00    +0.000 HD
ATOM     35  H   UNL     1      46.293   1.296   6.811  0.00  0.00    +0.000 HD
ATOM     36  H   UNL     1      46.811   3.444   7.590  0.00  0.00    +0.000 HD
ENDBRANCH  20  23
ENDBRANCH   1  19
BRANCH   1  37
ATOM     37  C   UNL     1      45.197   9.054  12.616  0.00  0.00    +0.000 C 
BRANCH  37  39
ATOM     38  C   UNL     1      44.109  10.819  11.476  0.00  0.00    +0.000 C 
ATOM     39  O   UNL     1      45.290  10.402  12.143  0.00  0.00    +0.000 OA
ENDBRANCH  37  39
ENDBRANCH   1  37
TORSDOF 9
ENDMDL
