MODEL 1
REMARK VINA RESULT:    -7.811      0.000      0.000
REMARK INTER + INTRA:         -12.189
REMARK INTER:                 -11.007
REMARK INTRA:                  -1.182
REMARK UNBOUND:                -1.182
REMARK  Name = 
REMARK  8 active torsions:
REMARK  status: ('A' for Active; 'I' for Inactive)
REMARK    1  A    between atoms: C_1  and  C_2
REMARK    2  A    between atoms: C_2  and  C_3
REMARK    3  A    between atoms: C_3  and  N_4
REMARK    4  A    between atoms: C_3  and  C_17
REMARK    5  A    between atoms: C_5  and  C_7
REMARK    6  A    between atoms: C_20  and  C_21
REMARK    7  A    between atoms: C_21  and  N_22
REMARK    8  A    between atoms: C_23  and  C_25
REMARK                            x       y       z     vdW  Elec       q    Type
REMARK                         _______ _______ _______ _____ _____    ______ ____
ROOT
ATOM      1  C   UNL     1      47.718   7.758  13.483  0.00  0.00    +0.000 C 
ENDROOT
BRANCH   1   2
ATOM      2  C   UNL     1      46.671   6.901  12.780  0.00  0.00    +0.000 A 
ATOM      3  C   UNL     1      46.702   5.506  12.937  0.00  0.00    +0.000 A 
ATOM      4  C   UNL     1      45.803   4.678  12.251  0.00  0.00    +0.000 A 
ATOM      5  C   UNL     1      44.843   5.222  11.389  0.00  0.00    +0.000 A 
ATOM      6  C   UNL     1      44.770   6.618  11.274  0.00  0.00    +0.000 A 
ATOM      7  C   UNL     1      45.676   7.447  11.955  0.00  0.00    +0.000 A 
BRANCH   5   8
ATOM      8  C   UNL     1      43.926   4.327  10.589  0.00  0.00    +0.000 C 
BRANCH   8   9
ATOM      9  N   UNL     1      44.647   3.367   9.790  0.00  0.00    +0.000 N 
ATOM     10  C   UNL     1      45.405   3.758   8.705  0.00  0.00    +0.000 C 
ATOM     11  O   UNL     1      45.484   4.928   8.345  0.00  0.00    +0.000 OA
ATOM     12  H   UNL     1      44.695   2.411  10.113  0.00  0.00    +0.000 HD
BRANCH  10  13
ATOM     13  C   UNL     1      46.101   2.685   8.023  0.00  0.00    +0.000 A 
ATOM     14  C   UNL     1      46.955   2.684   6.932  0.00  0.00    +0.000 A 
ATOM     15  C   UNL     1      47.357   1.345   6.684  0.00  0.00    +0.000 A 
ATOM     16  C   UNL     1      46.747   0.555   7.625  0.00  0.00    +0.000 A 
ATOM     17  N   UNL     1      45.994   1.365   8.433  0.00  0.00    +0.000 N 
ATOM     18  H   UNL     1      45.436   1.067   9.223  0.00  0.00    +0.000 HD
ENDBRANCH  10  13
ENDBRANCH   8   9
ENDBRANCH   5   8
ENDBRANCH   1   2
BRANCH   1  19
ATOM     19  N   UNL     1      47.874   7.317  14.864  0.00  0.00    +0.000 N 
ATOM     20  C   UNL     1      49.108   6.997  15.392  0.00  0.00    +0.000 C 
ATOM     21  O   UNL     1      50.137   7.035  14.730  0.00  0.00    +0.000 OA
ATOM     22  H   UNL     1      47.052   7.273  15.446  0.00  0.00    +0.000 HD
BRANCH  20  23
ATOM     23  C   UNL     1      49.101   6.642  16.814  0.00  0.00    +0.000 A 
ATOM     24  C   UNL     1      49.503   7.503  17.824  0.00  0.00    +0.000 A 
ATOM     25  S   UNL     1      49.451   6.795  19.378  0.00  0.00    +0.000 S 
ATOM     26  C   UNL     1      48.911   5.310  18.747  0.00  0.00    +0.000 A 
ATOM     27  N   UNL     1      48.686   4.244  19.563  0.00  0.00    +0.000 NA
ATOM     28  C   UNL     1      48.301   3.177  18.943  0.00  0.00    +0.000 A 
ATOM     29  N   UNL     1      48.108   3.085  17.589  0.00  0.00    +0.000 N 
ATOM     30  C   UNL     1      48.250   4.155  16.732  0.00  0.00    +0.000 A 
ATOM     31  O   UNL     1      47.915   4.059  15.558  0.00  0.00    +0.000 OA
ATOM     32  C   UNL     1      48.748   5.360  17.375  0.00  0.00    +0.000 A 
ATOM     33  H   UNL     1      47.759   2.236  17.170  0.00  0.00    +0.000 HD
ENDBRANCH  20  23
ENDBRANCH   1  19
BRANCH   1  35
ATOM     34  C   UNL     1      48.651  10.159  13.343  0.00  0.00    +0.000 C 
ATOM     35  C   UNL     1      47.414   9.273  13.443  0.00  0.00    +0.000 C 
ENDBRANCH   1  35
TORSDOF 7
ENDMDL
MODEL 2
REMARK VINA RESULT:    -7.809      1.486      2.058
REMARK INTER + INTRA:         -12.187
REMARK INTER:                 -10.861
REMARK INTRA:                  -1.326
REMARK UNBOUND:                -1.182
REMARK  Name = 
REMARK  8 active torsions:
REMARK  status: ('A' for Active; 'I' for Inactive)
REMARK    1  A    between atoms: C_1  and  C_2
REMARK    2  A    between atoms: C_2  and  C_3
REMARK    3  A    between atoms: C_3  and  N_4
REMARK    4  A    between atoms: C_3  and  C_17
REMARK    5  A    between atoms: C_5  and  C_7
REMARK    6  A    between atoms: C_20  and  C_21
REMARK    7  A    between atoms: C_21  and  N_22
REMARK    8  A    between atoms: C_23  and  C_25
REMARK                            x       y       z     vdW  Elec       q    Type
REMARK                         _______ _______ _______ _____ _____    ______ ____
ROOT
ATOM      1  C   UNL     1      47.826   7.349  13.837  0.00  0.00    +0.000 C 
ENDROOT
BRANCH   1   2
ATOM      2  C   UNL     1      46.773   6.631  13.000  0.00  0.00    +0.000 A 
ATOM      3  C   UNL     1      46.588   5.248  13.161  0.00  0.00    +0.000 A 
ATOM      4  C   UNL     1      45.683   4.538  12.360  0.00  0.00    +0.000 A 
ATOM      5  C   UNL     1      44.933   5.193  11.375  0.00  0.00    +0.000 A 
ATOM      6  C   UNL     1      45.072   6.583  11.249  0.00  0.00    +0.000 A 
ATOM      7  C   UNL     1      45.985   7.291  12.045  0.00  0.00    +0.000 A 
BRANCH   5   8
ATOM      8  C   UNL     1      44.016   4.416  10.458  0.00  0.00    +0.000 C 
BRANCH   8   9
ATOM      9  N   UNL     1      44.723   3.446   9.659  0.00  0.00    +0.000 N 
ATOM     10  C   UNL     1      45.511   3.829   8.593  0.00  0.00    +0.000 C 
ATOM     11  O   UNL     1      45.630   5.001   8.251  0.00  0.00    +0.000 OA
ATOM     12  H   UNL     1      44.737   2.486   9.969  0.00  0.00    +0.000 HD
BRANCH  10  13
ATOM     13  C   UNL     1      46.187   2.745   7.909  0.00  0.00    +0.000 A 
ATOM     14  C   UNL     1      47.009   2.726   6.793  0.00  0.00    +0.000 A 
ATOM     15  C   UNL     1      47.404   1.384   6.555  0.00  0.00    +0.000 A 
ATOM     16  C   UNL     1      46.823   0.608   7.527  0.00  0.00    +0.000 A 
ATOM     17  N   UNL     1      46.093   1.432   8.343  0.00  0.00    +0.000 N 
ATOM     18  H   UNL     1      45.559   1.147   9.153  0.00  0.00    +0.000 HD
ENDBRANCH  10  13
ENDBRANCH   8   9
ENDBRANCH   5   8
ENDBRANCH   1   2
BRANCH   1  19
ATOM     19  N   UNL     1      47.873   6.772  15.175  0.00  0.00    +0.000 N 
ATOM     20  C   UNL     1      49.067   6.497  15.809  0.00  0.00    +0.000 C 
ATOM     21  O   UNL     1      50.154   6.692  15.279  0.00  0.00    +0.000 OA
ATOM     22  H   UNL     1      47.001   6.596  15.649  0.00  0.00    +0.000 HD
BRANCH  20  23
ATOM     23  C   UNL     1      48.940   5.987  17.178  0.00  0.00    +0.000 A 
ATOM     24  C   UNL     1      49.234   4.682  17.542  0.00  0.00    +0.000 A 
ATOM     25  S   UNL     1      48.929   4.354  19.191  0.00  0.00    +0.000 S 
ATOM     26  C   UNL     1      48.374   5.940  19.463  0.00  0.00    +0.000 A 
ATOM     27  N   UNL     1      47.930   6.325  20.691  0.00  0.00    +0.000 NA
ATOM     28  C   UNL     1      47.519   7.549  20.743  0.00  0.00    +0.000 A 
ATOM     29  N   UNL     1      47.524   8.422  19.687  0.00  0.00    +0.000 N 
ATOM     30  C   UNL     1      48.032   8.103  18.446  0.00  0.00    +0.000 A 
ATOM     31  O   UNL     1      48.156   8.966  17.585  0.00  0.00    +0.000 OA
ATOM     32  C   UNL     1      48.444   6.715  18.320  0.00  0.00    +0.000 A 
ATOM     33  H   UNL     1      47.234   9.381  19.804  0.00  0.00    +0.000 HD
ENDBRANCH  20  23
ENDBRANCH   1  19
BRANCH   1  35
ATOM     34  C   UNL     1      48.887   9.699  13.745  0.00  0.00    +0.000 C 
ATOM     35  C   UNL     1      47.615   8.878  13.928  0.00  0.00    +0.000 C 
ENDBRANCH   1  35
TORSDOF 7
ENDMDL
MODEL 3
REMARK VINA RESULT:    -7.484      2.249      4.353
REMARK INTER + INTRA:         -11.728
REMARK INTER:                 -10.283
REMARK INTRA:                  -1.446
REMARK UNBOUND:                -1.182
REMARK  Name = 
REMARK  8 active torsions:
REMARK  status: ('A' for Active; 'I' for Inactive)
REMARK    1  A    between atoms: C_1  and  C_2
REMARK    2  A    between atoms: C_2  and  C_3
REMARK    3  A    between atoms: C_3  and  N_4
REMARK    4  A    between atoms: C_3  and  C_17
REMARK    5  A    between atoms: C_5  and  C_7
REMARK    6  A    between atoms: C_20  and  C_21
REMARK    7  A    between atoms: C_21  and  N_22
REMARK    8  A    between atoms: C_23  and  C_25
REMARK                            x       y       z     vdW  Elec       q    Type
REMARK                         _______ _______ _______ _____ _____    ______ ____
ROOT
ATOM      1  C   UNL     1      47.124   5.141  15.028  0.00  0.00    +0.000 C 
ENDROOT
BRANCH   1   2
ATOM      2  C   UNL     1      46.208   4.880  13.838  0.00  0.00    +0.000 A 
ATOM      3  C   UNL     1      46.151   3.593  13.278  0.00  0.00    +0.000 A 
ATOM      4  C   UNL     1      45.378   3.330  12.139  0.00  0.00    +0.000 A 
ATOM      5  C   UNL     1      44.635   4.347  11.528  0.00  0.00    +0.000 A 
ATOM      6  C   UNL     1      44.642   5.620  12.116  0.00  0.00    +0.000 A 
ATOM      7  C   UNL     1      45.424   5.885  13.252  0.00  0.00    +0.000 A 
BRANCH   5   8
ATOM      8  C   UNL     1      43.864   4.084  10.254  0.00  0.00    +0.000 C 
BRANCH   8   9
ATOM      9  N   UNL     1      44.624   3.320   9.295  0.00  0.00    +0.000 N 
ATOM     10  C   UNL     1      45.529   3.925   8.448  0.00  0.00    +0.000 C 
ATOM     11  O   UNL     1      45.716   5.138   8.443  0.00  0.00    +0.000 OA
ATOM     12  H   UNL     1      44.578   2.312   9.338  0.00  0.00    +0.000 HD
BRANCH  10  13
ATOM     13  C   UNL     1      46.243   3.023   7.566  0.00  0.00    +0.000 A 
ATOM     14  C   UNL     1      46.801   3.207   6.311  0.00  0.00    +0.000 A 
ATOM     15  C   UNL     1      47.388   1.981   5.902  0.00  0.00    +0.000 A 
ATOM     16  C   UNL     1      47.181   1.073   6.910  0.00  0.00    +0.000 A 
ATOM     17  N   UNL     1      46.494   1.705   7.913  0.00  0.00    +0.000 N 
ATOM     18  H   UNL     1      46.206   1.291   8.790  0.00  0.00    +0.000 HD
ENDBRANCH  10  13
ENDBRANCH   8   9
ENDBRANCH   5   8
ENDBRANCH   1   2
BRANCH   1  19
ATOM     19  N   UNL     1      48.317   5.854  14.589  0.00  0.00    +0.000 N 
ATOM     20  C   UNL     1      48.891   6.852  15.349  0.00  0.00    +0.000 C 
ATOM     21  O   UNL     1      48.420   7.218  16.418  0.00  0.00    +0.000 OA
ATOM     22  H   UNL     1      48.739   5.584  13.714  0.00  0.00    +0.000 HD
BRANCH  20  23
ATOM     23  C   UNL     1      50.127   7.418  14.799  0.00  0.00    +0.000 A 
ATOM     24  C   UNL     1      51.343   7.402  15.464  0.00  0.00    +0.000 A 
ATOM     25  S   UNL     1      52.593   8.193  14.609  0.00  0.00    +0.000 S 
ATOM     26  C   UNL     1      51.542   8.601  13.335  0.00  0.00    +0.000 A 
ATOM     27  N   UNL     1      51.984   9.318  12.266  0.00  0.00    +0.000 NA
ATOM     28  C   UNL     1      51.072   9.573  11.387  0.00  0.00    +0.000 A 
ATOM     29  N   UNL     1      49.766   9.165  11.474  0.00  0.00    +0.000 N 
ATOM     30  C   UNL     1      49.289   8.374  12.497  0.00  0.00    +0.000 A 
ATOM     31  O   UNL     1      48.157   7.910  12.446  0.00  0.00    +0.000 OA
ATOM     32  C   UNL     1      50.263   8.119  13.545  0.00  0.00    +0.000 A 
ATOM     33  H   UNL     1      49.111   9.355  10.730  0.00  0.00    +0.000 HD
ENDBRANCH  20  23
ENDBRANCH   1  19
BRANCH   1  35
ATOM     34  C   UNL     1      47.145   3.873  17.275  0.00  0.00    +0.000 C 
ATOM     35  C   UNL     1      47.526   3.862  15.798  0.00  0.00    +0.000 C 
ENDBRANCH   1  35
TORSDOF 7
ENDMDL
MODEL 4
REMARK VINA RESULT:    -7.195      2.534      3.683
REMARK INTER + INTRA:         -11.322
REMARK INTER:                 -10.146
REMARK INTRA:                  -1.176
REMARK UNBOUND:                -1.182
REMARK  Name = 
REMARK  8 active torsions:
REMARK  status: ('A' for Active; 'I' for Inactive)
REMARK    1  A    between atoms: C_1  and  C_2
REMARK    2  A    between atoms: C_2  and  C_3
REMARK    3  A    between atoms: C_3  and  N_4
REMARK    4  A    between atoms: C_3  and  C_17
REMARK    5  A    between atoms: C_5  and  C_7
REMARK    6  A    between atoms: C_20  and  C_21
REMARK    7  A    between atoms: C_21  and  N_22
REMARK    8  A    between atoms: C_23  and  C_25
REMARK                            x       y       z     vdW  Elec       q    Type
REMARK                         _______ _______ _______ _____ _____    ______ ____
ROOT
ATOM      1  C   UNL     1      47.115   4.890  15.172  0.00  0.00    +0.000 C 
ENDROOT
BRANCH   1   2
ATOM      2  C   UNL     1      46.235   4.772  13.933  0.00  0.00    +0.000 A 
ATOM      3  C   UNL     1      46.050   3.515  13.334  0.00  0.00    +0.000 A 
ATOM      4  C   UNL     1      45.309   3.375  12.152  0.00  0.00    +0.000 A 
ATOM      5  C   UNL     1      44.727   4.490  11.537  0.00  0.00    +0.000 A 
ATOM      6  C   UNL     1      44.859   5.739  12.162  0.00  0.00    +0.000 A 
ATOM      7  C   UNL     1      45.609   5.879  13.340  0.00  0.00    +0.000 A 
BRANCH   5   8
ATOM      8  C   UNL     1      43.994   4.353  10.222  0.00  0.00    +0.000 C 
BRANCH   8   9
ATOM      9  N   UNL     1      44.693   3.510   9.284  0.00  0.00    +0.000 N 
ATOM     10  C   UNL     1      45.650   4.020   8.430  0.00  0.00    +0.000 C 
ATOM     11  O   UNL     1      45.937   5.213   8.402  0.00  0.00    +0.000 OA
ATOM     12  H   UNL     1      44.564   2.510   9.347  0.00  0.00    +0.000 HD
BRANCH  10  13
ATOM     13  C   UNL     1      46.292   3.044   7.572  0.00  0.00    +0.000 A 
ATOM     14  C   UNL     1      46.844   3.148   6.306  0.00  0.00    +0.000 A 
ATOM     15  C   UNL     1      47.344   1.874   5.933  0.00  0.00    +0.000 A 
ATOM     16  C   UNL     1      47.093   1.016   6.974  0.00  0.00    +0.000 A 
ATOM     17  N   UNL     1      46.462   1.725   7.962  0.00  0.00    +0.000 N 
ATOM     18  H   UNL     1      46.159   1.361   8.856  0.00  0.00    +0.000 HD
ENDBRANCH  10  13
ENDBRANCH   8   9
ENDBRANCH   5   8
ENDBRANCH   1   2
BRANCH   1  19
ATOM     19  N   UNL     1      48.270   5.731  14.882  0.00  0.00    +0.000 N 
ATOM     20  C   UNL     1      48.800   6.590  15.822  0.00  0.00    +0.000 C 
ATOM     21  O   UNL     1      48.320   6.720  16.941  0.00  0.00    +0.000 OA
ATOM     22  H   UNL     1      48.697   5.656  13.973  0.00  0.00    +0.000 HD
BRANCH  20  23
ATOM     23  C   UNL     1      50.003   7.311  15.395  0.00  0.00    +0.000 A 
ATOM     24  C   UNL     1      49.986   8.386  14.518  0.00  0.00    +0.000 A 
ATOM     25  S   UNL     1      51.543   8.985  14.150  0.00  0.00    +0.000 S 
ATOM     26  C   UNL     1      52.289   7.812  15.131  0.00  0.00    +0.000 A 
ATOM     27  N   UNL     1      53.644   7.753  15.243  0.00  0.00    +0.000 NA
ATOM     28  C   UNL     1      54.070   6.799  16.003  0.00  0.00    +0.000 A 
ATOM     29  N   UNL     1      53.266   5.911  16.670  0.00  0.00    +0.000 N 
ATOM     30  C   UNL     1      51.890   5.977  16.649  0.00  0.00    +0.000 A 
ATOM     31  O   UNL     1      51.223   5.259  17.384  0.00  0.00    +0.000 OA
ATOM     32  C   UNL     1      51.364   6.992  15.752  0.00  0.00    +0.000 A 
ATOM     33  H   UNL     1      53.659   5.217  17.288  0.00  0.00    +0.000 HD
ENDBRANCH  20  23
ENDBRANCH   1  19
BRANCH   1  35
ATOM     34  C   UNL     1      47.313   3.344  17.228  0.00  0.00    +0.000 C 
ATOM     35  C   UNL     1      47.581   3.529  15.739  0.00  0.00    +0.000 C 
ENDBRANCH   1  35
TORSDOF 7
ENDMDL
MODEL 5
REMARK VINA RESULT:    -7.176      3.467      8.162
REMARK INTER + INTRA:         -11.295
REMARK INTER:                 -10.036
REMARK INTRA:                  -1.259
REMARK UNBOUND:                -1.182
REMARK  Name = 
REMARK  8 active torsions:
REMARK  status: ('A' for Active; 'I' for Inactive)
REMARK    1  A    between atoms: C_1  and  C_2
REMARK    2  A    between atoms: C_2  and  C_3
REMARK    3  A    between atoms: C_3  and  N_4
REMARK    4  A    between atoms: C_3  and  C_17
REMARK    5  A    between atoms: C_5  and  C_7
REMARK    6  A    between atoms: C_20  and  C_21
REMARK    7  A    between atoms: C_21  and  N_22
REMARK    8  A    between atoms: C_23  and  C_25
REMARK                            x       y       z     vdW  Elec       q    Type
REMARK                         _______ _______ _______ _____ _____    ______ ____
ROOT
ATOM      1  C   UNL     1      48.334   7.678  12.515  0.00  0.00    +0.000 C 
ENDROOT
BRANCH   1   2
ATOM      2  C   UNL     1      48.839   7.188  13.867  0.00  0.00    +0.000 A 
ATOM      3  C   UNL     1      48.042   6.317  14.628  0.00  0.00    +0.000 A 
ATOM      4  C   UNL     1      48.437   5.902  15.907  0.00  0.00    +0.000 A 
ATOM      5  C   UNL     1      49.645   6.343  16.462  0.00  0.00    +0.000 A 
ATOM      6  C   UNL     1      50.472   7.166  15.683  0.00  0.00    +0.000 A 
ATOM      7  C   UNL     1      50.071   7.589  14.405  0.00  0.00    +0.000 A 
BRANCH   5   8
ATOM      8  C   UNL     1      50.035   5.960  17.871  0.00  0.00    +0.000 C 
BRANCH   8   9
ATOM      9  N   UNL     1      51.025   4.912  17.905  0.00  0.00    +0.000 N 
ATOM     10  C   UNL     1      50.666   3.580  17.865  0.00  0.00    +0.000 C 
ATOM     11  O   UNL     1      49.495   3.216  17.826  0.00  0.00    +0.000 OA
ATOM     12  H   UNL     1      51.999   5.168  17.831  0.00  0.00    +0.000 HD
BRANCH  10  13
ATOM     13  C   UNL     1      51.773   2.645  17.870  0.00  0.00    +0.000 A 
ATOM     14  C   UNL     1      53.143   2.835  17.971  0.00  0.00    +0.000 A 
ATOM     15  C   UNL     1      53.771   1.563  17.925  0.00  0.00    +0.000 A 
ATOM     16  C   UNL     1      52.780   0.622  17.801  0.00  0.00    +0.000 A 
ATOM     17  N   UNL     1      51.578   1.277  17.772  0.00  0.00    +0.000 N 
ATOM     18  H   UNL     1      50.666   0.845  17.696  0.00  0.00    +0.000 HD
ENDBRANCH  10  13
ENDBRANCH   8   9
ENDBRANCH   5   8
ENDBRANCH   1   2
BRANCH   1  19
ATOM     19  N   UNL     1      47.588   6.615  11.850  0.00  0.00    +0.000 N 
ATOM     20  C   UNL     1      46.261   6.765  11.501  0.00  0.00    +0.000 C 
ATOM     21  O   UNL     1      45.625   7.781  11.752  0.00  0.00    +0.000 OA
ATOM     22  H   UNL     1      48.073   5.762  11.623  0.00  0.00    +0.000 HD
BRANCH  20  23
ATOM     23  C   UNL     1      45.679   5.632  10.776  0.00  0.00    +0.000 A 
ATOM     24  C   UNL     1      45.752   5.480   9.400  0.00  0.00    +0.000 A 
ATOM     25  S   UNL     1      44.927   4.099   8.825  0.00  0.00    +0.000 S 
ATOM     26  C   UNL     1      44.427   3.674  10.396  0.00  0.00    +0.000 A 
ATOM     27  N   UNL     1      43.651   2.576  10.609  0.00  0.00    +0.000 NA
ATOM     28  C   UNL     1      43.329   2.390  11.847  0.00  0.00    +0.000 A 
ATOM     29  N   UNL     1      43.724   3.191  12.887  0.00  0.00    +0.000 N 
ATOM     30  C   UNL     1      44.570   4.268  12.731  0.00  0.00    +0.000 A 
ATOM     31  O   UNL     1      45.015   4.854  13.710  0.00  0.00    +0.000 OA
ATOM     32  C   UNL     1      44.904   4.557  11.346  0.00  0.00    +0.000 A 
ATOM     33  H   UNL     1      43.480   2.965  13.839  0.00  0.00    +0.000 HD
ENDBRANCH  20  23
ENDBRANCH   1  19
BRANCH   1  35
ATOM     34  C   UNL     1      49.443   9.713  11.383  0.00  0.00    +0.000 C 
ATOM     35  C   UNL     1      49.450   8.202  11.583  0.00  0.00    +0.000 C 
ENDBRANCH   1  35
TORSDOF 7
ENDMDL
MODEL 6
REMARK VINA RESULT:    -6.698      2.192      3.362
REMARK INTER + INTRA:         -10.621
REMARK INTER:                  -9.582
REMARK INTRA:                  -1.039
REMARK UNBOUND:                -1.182
REMARK  Name = 
REMARK  8 active torsions:
REMARK  status: ('A' for Active; 'I' for Inactive)
REMARK    1  A    between atoms: C_1  and  C_2
REMARK    2  A    between atoms: C_2  and  C_3
REMARK    3  A    between atoms: C_3  and  N_4
REMARK    4  A    between atoms: C_3  and  C_17
REMARK    5  A    between atoms: C_5  and  C_7
REMARK    6  A    between atoms: C_20  and  C_21
REMARK    7  A    between atoms: C_21  and  N_22
REMARK    8  A    between atoms: C_23  and  C_25
REMARK                            x       y       z     vdW  Elec       q    Type
REMARK                         _______ _______ _______ _____ _____    ______ ____
ROOT
ATOM      1  C   UNL     1      47.178   4.438  15.650  0.00  0.00    +0.000 C 
ENDROOT
BRANCH   1   2
ATOM      2  C   UNL     1      46.641   4.886  14.295  0.00  0.00    +0.000 A 
ATOM      3  C   UNL     1      45.472   4.297  13.785  0.00  0.00    +0.000 A 
ATOM      4  C   UNL     1      44.988   4.629  12.513  0.00  0.00    +0.000 A 
ATOM      5  C   UNL     1      45.657   5.562  11.712  0.00  0.00    +0.000 A 
ATOM      6  C   UNL     1      46.792   6.196  12.239  0.00  0.00    +0.000 A 
ATOM      7  C   UNL     1      47.282   5.857  13.510  0.00  0.00    +0.000 A 
BRANCH   5   8
ATOM      8  C   UNL     1      45.180   5.862  10.309  0.00  0.00    +0.000 C 
BRANCH   8   9
ATOM      9  N   UNL     1      45.818   5.030   9.319  0.00  0.00    +0.000 N 
ATOM     10  C   UNL     1      45.247   3.847   8.896  0.00  0.00    +0.000 C 
ATOM     11  O   UNL     1      44.190   3.427   9.355  0.00  0.00    +0.000 OA
ATOM     12  H   UNL     1      46.632   5.389   8.841  0.00  0.00    +0.000 HD
BRANCH  10  13
ATOM     13  C   UNL     1      45.987   3.140   7.870  0.00  0.00    +0.000 A 
ATOM     14  C   UNL     1      46.453   3.537   6.627  0.00  0.00    +0.000 A 
ATOM     15  C   UNL     1      47.124   2.437   6.032  0.00  0.00    +0.000 A 
ATOM     16  C   UNL     1      47.060   1.392   6.918  0.00  0.00    +0.000 A 
ATOM     17  N   UNL     1      46.378   1.819   8.026  0.00  0.00    +0.000 N 
ATOM     18  H   UNL     1      46.180   1.270   8.853  0.00  0.00    +0.000 HD
ENDBRANCH  10  13
ENDBRANCH   8   9
ENDBRANCH   5   8
ENDBRANCH   1   2
BRANCH   1  19
ATOM     19  N   UNL     1      47.935   5.521  16.265  0.00  0.00    +0.000 N 
ATOM     20  C   UNL     1      47.762   5.870  17.589  0.00  0.00    +0.000 C 
ATOM     21  O   UNL     1      46.947   5.316  18.315  0.00  0.00    +0.000 OA
ATOM     22  H   UNL     1      48.619   6.004  15.704  0.00  0.00    +0.000 HD
BRANCH  20  23
ATOM     23  C   UNL     1      48.652   6.931  18.072  0.00  0.00    +0.000 A 
ATOM     24  C   UNL     1      48.438   8.281  17.837  0.00  0.00    +0.000 A 
ATOM     25  S   UNL     1      49.674   9.282  18.462  0.00  0.00    +0.000 S 
ATOM     26  C   UNL     1      50.544   7.940  19.045  0.00  0.00    +0.000 A 
ATOM     27  N   UNL     1      51.737   8.103  19.680  0.00  0.00    +0.000 NA
ATOM     28  C   UNL     1      52.295   6.997  20.047  0.00  0.00    +0.000 A 
ATOM     29  N   UNL     1      51.763   5.749  19.850  0.00  0.00    +0.000 N 
ATOM     30  C   UNL     1      50.525   5.537  19.281  0.00  0.00    +0.000 A 
ATOM     31  O   UNL     1      50.030   4.417  19.271  0.00  0.00    +0.000 OA
ATOM     32  C   UNL     1      49.890   6.749  18.790  0.00  0.00    +0.000 A 
ATOM     33  H   UNL     1      52.225   4.925  20.204  0.00  0.00    +0.000 HD
ENDBRANCH  20  23
ENDBRANCH   1  19
BRANCH   1  35
ATOM     34  C   UNL     1      48.331   2.529  16.946  0.00  0.00    +0.000 C 
ATOM     35  C   UNL     1      48.041   3.158  15.587  0.00  0.00    +0.000 C 
ENDBRANCH   1  35
TORSDOF 7
ENDMDL
MODEL 7
REMARK VINA RESULT:    -6.617      3.438      5.116
REMARK INTER + INTRA:         -10.506
REMARK INTER:                  -9.072
REMARK INTRA:                  -1.434
REMARK UNBOUND:                -1.182
REMARK  Name = 
REMARK  8 active torsions:
REMARK  status: ('A' for Active; 'I' for Inactive)
REMARK    1  A    between atoms: C_1  and  C_2
REMARK    2  A    between atoms: C_2  and  C_3
REMARK    3  A    between atoms: C_3  and  N_4
REMARK    4  A    between atoms: C_3  and  C_17
REMARK    5  A    between atoms: C_5  and  C_7
REMARK    6  A    between atoms: C_20  and  C_21
REMARK    7  A    between atoms: C_21  and  N_22
REMARK    8  A    between atoms: C_23  and  C_25
REMARK                            x       y       z     vdW  Elec       q    Type
REMARK                         _______ _______ _______ _____ _____    ______ ____
ROOT
ATOM      1  C   UNL     1      48.612   7.231  14.726  0.00  0.00    +0.000 C 
ENDROOT
BRANCH   1   2
ATOM      2  C   UNL     1      47.693   6.666  13.648  0.00  0.00    +0.000 A 
ATOM      3  C   UNL     1      47.374   7.453  12.530  0.00  0.00    +0.000 A 
ATOM      4  C   UNL     1      46.476   6.999  11.554  0.00  0.00    +0.000 A 
ATOM      5  C   UNL     1      45.873   5.741  11.667  0.00  0.00    +0.000 A 
ATOM      6  C   UNL     1      46.233   4.927  12.751  0.00  0.00    +0.000 A 
ATOM      7  C   UNL     1      47.125   5.385  13.732  0.00  0.00    +0.000 A 
BRANCH   5   8
ATOM      8  C   UNL     1      44.845   5.282  10.657  0.00  0.00    +0.000 C 
BRANCH   8   9
ATOM      9  N   UNL     1      45.443   4.654   9.505  0.00  0.00    +0.000 N 
ATOM     10  C   UNL     1      45.298   3.303   9.265  0.00  0.00    +0.000 C 
ATOM     11  O   UNL     1      44.681   2.562  10.025  0.00  0.00    +0.000 OA
ATOM     12  H   UNL     1      45.867   5.242   8.802  0.00  0.00    +0.000 HD
BRANCH  10  13
ATOM     13  C   UNL     1      45.924   2.824   8.049  0.00  0.00    +0.000 A 
ATOM     14  C   UNL     1      46.105   3.415   6.808  0.00  0.00    +0.000 A 
ATOM     15  C   UNL     1      46.791   2.494   5.974  0.00  0.00    +0.000 A 
ATOM     16  C   UNL     1      47.019   1.362   6.716  0.00  0.00    +0.000 A 
ATOM     17  N   UNL     1      46.499   1.565   7.967  0.00  0.00    +0.000 N 
ATOM     18  H   UNL     1      46.523   0.909   8.736  0.00  0.00    +0.000 HD
ENDBRANCH  10  13
ENDBRANCH   8   9
ENDBRANCH   5   8
ENDBRANCH   1   2
BRANCH   1  19
ATOM     19  N   UNL     1      49.955   7.411  14.187  0.00  0.00    +0.000 N 
ATOM     20  C   UNL     1      50.519   8.662  14.041  0.00  0.00    +0.000 C 
ATOM     21  O   UNL     1      49.921   9.691  14.325  0.00  0.00    +0.000 OA
ATOM     22  H   UNL     1      50.484   6.590  13.941  0.00  0.00    +0.000 HD
BRANCH  20  23
ATOM     23  C   UNL     1      51.902   8.665  13.554  0.00  0.00    +0.000 A 
ATOM     24  C   UNL     1      52.993   9.009  14.337  0.00  0.00    +0.000 A 
ATOM     25  S   UNL     1      54.474   8.986  13.485  0.00  0.00    +0.000 S 
ATOM     26  C   UNL     1      53.699   8.539  12.037  0.00  0.00    +0.000 A 
ATOM     27  N   UNL     1      54.409   8.370  10.887  0.00  0.00    +0.000 NA
ATOM     28  C   UNL     1      53.687   8.054   9.863  0.00  0.00    +0.000 A 
ATOM     29  N   UNL     1      52.327   7.877   9.888  0.00  0.00    +0.000 N 
ATOM     30  C   UNL     1      51.577   7.961  11.041  0.00  0.00    +0.000 A 
ATOM     31  O   UNL     1      50.394   7.642  11.036  0.00  0.00    +0.000 OA
ATOM     32  C   UNL     1      52.336   8.383  12.207  0.00  0.00    +0.000 A 
ATOM     33  H   UNL     1      51.827   7.581   9.064  0.00  0.00    +0.000 HD
ENDBRANCH  20  23
ENDBRANCH   1  19
BRANCH   1  35
ATOM     34  C   UNL     1      49.242   7.098  17.224  0.00  0.00    +0.000 C 
ATOM     35  C   UNL     1      48.669   6.373  16.011  0.00  0.00    +0.000 C 
ENDBRANCH   1  35
TORSDOF 7
ENDMDL
MODEL 8
REMARK VINA RESULT:    -6.372      1.839      2.647
REMARK INTER + INTRA:         -10.161
REMARK INTER:                  -8.807
REMARK INTRA:                  -1.354
REMARK UNBOUND:                -1.182
REMARK  Name = 
REMARK  8 active torsions:
REMARK  status: ('A' for Active; 'I' for Inactive)
REMARK    1  A    between atoms: C_1  and  C_2
REMARK    2  A    between atoms: C_2  and  C_3
REMARK    3  A    between atoms: C_3  and  N_4
REMARK    4  A    between atoms: C_3  and  C_17
REMARK    5  A    between atoms: C_5  and  C_7
REMARK    6  A    between atoms: C_20  and  C_21
REMARK    7  A    between atoms: C_21  and  N_22
REMARK    8  A    between atoms: C_23  and  C_25
REMARK                            x       y       z     vdW  Elec       q    Type
REMARK                         _______ _______ _______ _____ _____    ______ ____
ROOT
ATOM      1  C   UNL     1      49.736   8.576  14.542  0.00  0.00    +0.000 C 
ENDROOT
BRANCH   1   2
ATOM      2  C   UNL     1      48.520   8.351  13.651  0.00  0.00    +0.000 A 
ATOM      3  C   UNL     1      47.294   8.946  13.992  0.00  0.00    +0.000 A 
ATOM      4  C   UNL     1      46.136   8.705  13.241  0.00  0.00    +0.000 A 
ATOM      5  C   UNL     1      46.170   7.863  12.123  0.00  0.00    +0.000 A 
ATOM      6  C   UNL     1      47.403   7.312  11.744  0.00  0.00    +0.000 A 
ATOM      7  C   UNL     1      48.561   7.546  12.502  0.00  0.00    +0.000 A 
BRANCH   5   8
ATOM      8  C   UNL     1      44.906   7.540  11.359  0.00  0.00    +0.000 C 
BRANCH   8   9
ATOM      9  N   UNL     1      45.020   6.324  10.590  0.00  0.00    +0.000 N 
ATOM     10  C   UNL     1      44.197   5.243  10.826  0.00  0.00    +0.000 C 
ATOM     11  O   UNL     1      43.348   5.244  11.713  0.00  0.00    +0.000 OA
ATOM     12  H   UNL     1      45.630   6.320   9.785  0.00  0.00    +0.000 HD
BRANCH  10  13
ATOM     13  C   UNL     1      44.406   4.108   9.950  0.00  0.00    +0.000 A 
ATOM     14  C   UNL     1      44.558   2.756  10.209  0.00  0.00    +0.000 A 
ATOM     15  C   UNL     1      44.732   2.083   8.972  0.00  0.00    +0.000 A 
ATOM     16  C   UNL     1      44.680   3.031   7.981  0.00  0.00    +0.000 A 
ATOM     17  N   UNL     1      44.480   4.249   8.573  0.00  0.00    +0.000 N 
ATOM     18  H   UNL     1      44.391   5.137   8.095  0.00  0.00    +0.000 HD
ENDBRANCH  10  13
ENDBRANCH   8   9
ENDBRANCH   5   8
ENDBRANCH   1   2
BRANCH   1  19
ATOM     19  N   UNL     1      49.672   7.694  15.702  0.00  0.00    +0.000 N 
ATOM     20  C   UNL     1      50.772   6.986  16.141  0.00  0.00    +0.000 C 
ATOM     21  O   UNL     1      51.855   7.033  15.572  0.00  0.00    +0.000 OA
ATOM     22  H   UNL     1      48.799   7.626  16.201  0.00  0.00    +0.000 HD
BRANCH  20  23
ATOM     23  C   UNL     1      50.558   6.202  17.361  0.00  0.00    +0.000 A 
ATOM     24  C   UNL     1      51.348   6.313  18.495  0.00  0.00    +0.000 A 
ATOM     25  S   UNL     1      50.905   5.229  19.739  0.00  0.00    +0.000 S 
ATOM     26  C   UNL     1      49.659   4.561  18.791  0.00  0.00    +0.000 A 
ATOM     27  N   UNL     1      48.886   3.546  19.266  0.00  0.00    +0.000 NA
ATOM     28  C   UNL     1      47.996   3.125  18.430  0.00  0.00    +0.000 A 
ATOM     29  N   UNL     1      47.800   3.634  17.172  0.00  0.00    +0.000 N 
ATOM     30  C   UNL     1      48.505   4.710  16.676  0.00  0.00    +0.000 A 
ATOM     31  O   UNL     1      48.185   5.223  15.610  0.00  0.00    +0.000 OA
ATOM     32  C   UNL     1      49.565   5.174  17.555  0.00  0.00    +0.000 A 
ATOM     33  H   UNL     1      47.055   3.294  16.584  0.00  0.00    +0.000 HD
ENDBRANCH  20  23
ENDBRANCH   1  19
BRANCH   1  35
ATOM     34  C   UNL     1      50.918  10.841  14.183  0.00  0.00    +0.000 C 
ATOM     35  C   UNL     1      49.911  10.041  15.002  0.00  0.00    +0.000 C 
ENDBRANCH   1  35
TORSDOF 7
ENDMDL
MODEL 9
REMARK VINA RESULT:    -6.271      4.521      7.341
REMARK INTER + INTRA:         -10.019
REMARK INTER:                  -9.323
REMARK INTRA:                  -0.696
REMARK UNBOUND:                -1.182
REMARK  Name = 
REMARK  8 active torsions:
REMARK  status: ('A' for Active; 'I' for Inactive)
REMARK    1  A    between atoms: C_1  and  C_2
REMARK    2  A    between atoms: C_2  and  C_3
REMARK    3  A    between atoms: C_3  and  N_4
REMARK    4  A    between atoms: C_3  and  C_17
REMARK    5  A    between atoms: C_5  and  C_7
REMARK    6  A    between atoms: C_20  and  C_21
REMARK    7  A    between atoms: C_21  and  N_22
REMARK    8  A    between atoms: C_23  and  C_25
REMARK                            x       y       z     vdW  Elec       q    Type
REMARK                         _______ _______ _______ _____ _____    ______ ____
ROOT
ATOM      1  C   UNL     1      45.960   8.416  12.496  0.00  0.00    +0.000 C 
ENDROOT
BRANCH   1   2
ATOM      2  C   UNL     1      47.428   8.528  12.103  0.00  0.00    +0.000 A 
ATOM      3  C   UNL     1      48.217   7.367  12.037  0.00  0.00    +0.000 A 
ATOM      4  C   UNL     1      49.587   7.435  11.751  0.00  0.00    +0.000 A 
ATOM      5  C   UNL     1      50.210   8.668  11.519  0.00  0.00    +0.000 A 
ATOM      6  C   UNL     1      49.416   9.824  11.526  0.00  0.00    +0.000 A 
ATOM      7  C   UNL     1      48.045   9.757  11.821  0.00  0.00    +0.000 A 
BRANCH   5   8
ATOM      8  C   UNL     1      51.701   8.750  11.288  0.00  0.00    +0.000 C 
BRANCH   8   9
ATOM      9  N   UNL     1      52.202   7.648  10.505  0.00  0.00    +0.000 N 
ATOM     10  C   UNL     1      52.729   7.841   9.244  0.00  0.00    +0.000 C 
ATOM     11  O   UNL     1      52.775   8.947   8.713  0.00  0.00    +0.000 OA
ATOM     12  H   UNL     1      52.280   6.742  10.944  0.00  0.00    +0.000 HD
BRANCH  10  13
ATOM     13  C   UNL     1      53.225   6.644   8.596  0.00  0.00    +0.000 A 
ATOM     14  C   UNL     1      54.152   5.694   8.994  0.00  0.00    +0.000 A 
ATOM     15  C   UNL     1      54.258   4.720   7.967  0.00  0.00    +0.000 A 
ATOM     16  C   UNL     1      53.397   5.088   6.964  0.00  0.00    +0.000 A 
ATOM     17  N   UNL     1      52.773   6.245   7.347  0.00  0.00    +0.000 N 
ATOM     18  H   UNL     1      52.077   6.751   6.816  0.00  0.00    +0.000 HD
ENDBRANCH  10  13
ENDBRANCH   8   9
ENDBRANCH   5   8
ENDBRANCH   1   2
BRANCH   1  19
ATOM     19  N   UNL     1      45.397   7.181  11.962  0.00  0.00    +0.000 N 
ATOM     20  C   UNL     1      45.491   5.984  12.642  0.00  0.00    +0.000 C 
ATOM     21  O   UNL     1      46.073   5.880  13.714  0.00  0.00    +0.000 OA
ATOM     22  H   UNL     1      44.908   7.221  11.082  0.00  0.00    +0.000 HD
BRANCH  20  23
ATOM     23  C   UNL     1      44.810   4.853  12.003  0.00  0.00    +0.000 A 
ATOM     24  C   UNL     1      43.957   3.990  12.674  0.00  0.00    +0.000 A 
ATOM     25  S   UNL     1      43.362   2.726  11.691  0.00  0.00    +0.000 S 
ATOM     26  C   UNL     1      44.244   3.280  10.345  0.00  0.00    +0.000 A 
ATOM     27  N   UNL     1      44.195   2.617   9.157  0.00  0.00    +0.000 NA
ATOM     28  C   UNL     1      44.932   3.138   8.232  0.00  0.00    +0.000 A 
ATOM     29  N   UNL     1      45.699   4.265   8.384  0.00  0.00    +0.000 N 
ATOM     30  C   UNL     1      45.722   5.011   9.542  0.00  0.00    +0.000 A 
ATOM     31  O   UNL     1      46.300   6.091   9.573  0.00  0.00    +0.000 OA
ATOM     32  C   UNL     1      44.961   4.426  10.634  0.00  0.00    +0.000 A 
ATOM     33  H   UNL     1      46.215   4.651   7.608  0.00  0.00    +0.000 HD
ENDBRANCH  20  23
ENDBRANCH   1  19
BRANCH   1  35
ATOM     34  C   UNL     1      44.017   9.282  11.036  0.00  0.00    +0.000 C 
ATOM     35  C   UNL     1      45.101   9.622  12.053  0.00  0.00    +0.000 C 
ENDBRANCH   1  35
TORSDOF 7
ENDMDL
