MODEL 1
REMARK VINA RESULT:    -8.853      0.000      0.000
REMARK INTER + INTRA:         -12.082
REMARK INTER:                 -11.441
REMARK INTRA:                  -0.640
REMARK UNBOUND:                -0.640
REMARK  Name = 
REMARK  8 active torsions:
REMARK  status: ('A' for Active; 'I' for Inactive)
REMARK    1  A    between atoms: C_1  and  C_2
REMARK    2  A    between atoms: C_9  and  C_10
REMARK    3  A    between atoms: C_10  and  C_11
REMARK    4  A    between atoms: C_10  and  C_12
REMARK    5  A    between atoms: C_12  and  N_13
REMARK    6  A    between atoms: N_13  and  C_14
REMARK    7  A    between atoms: C_17  and  C_18
REMARK    8  A    between atoms: C_25  and  C_26
REMARK                            x       y       z     vdW  Elec       q    Type
REMARK                         _______ _______ _______ _____ _____    ______ ____
ROOT
ATOM      1  C   UNL     1      45.253   4.733  12.238  0.00  0.00    +0.000 C 
ATOM      2  C   UNL     1      44.202   4.425  13.310  0.00  0.00    +0.000 C 
ENDROOT
BRANCH   1  11
ATOM      3  C   UNL     1      48.463   2.202  16.220  0.00  0.00    +0.000 C 
ATOM      4  C   UNL     1      48.002   3.155  17.322  0.00  0.00    +0.000 C 
ATOM      5  C   UNL     1      47.141   4.316  16.789  0.00  0.00    +0.000 C 
ATOM      6  N   UNL     1      47.979   5.298  16.108  0.00  0.00    +0.000 N 
ATOM      7  C   UNL     1      47.767   5.622  14.799  0.00  0.00    +0.000 A 
ATOM      8  N   UNL     1      48.573   6.504  14.196  0.00  0.00    +0.000 NA
ATOM      9  C   UNL     1      48.301   6.822  12.918  0.00  0.00    +0.000 A 
ATOM     10  C   UNL     1      47.253   6.294  12.203  0.00  0.00    +0.000 A 
ATOM     11  C   UNL     1      46.467   5.389  12.880  0.00  0.00    +0.000 A 
ATOM     12  N   UNL     1      46.725   5.058  14.163  0.00  0.00    +0.000 NA
ATOM     13  C   UNL     1      49.145   5.768  16.847  0.00  0.00    +0.000 C 
ATOM     14  C   UNL     1      49.951   4.562  17.377  0.00  0.00    +0.000 C 
ATOM     15  C   UNL     1      51.048   5.023  18.329  0.00  0.00    +0.000 C 
ATOM     16  O   UNL     1      49.117   3.634  18.101  0.00  0.00    +0.000 OA
ENDBRANCH   1  11
BRANCH   1  17
ATOM     17  C   UNL     1      44.705   5.666  11.137  0.00  0.00    +0.000 C 
BRANCH  17  18
ATOM     18  N   UNL     1      44.015   4.940  10.051  0.00  0.00    +0.000 N 
ATOM     19  H   UNL     1      43.597   5.574   9.371  0.00  0.00    +0.000 HD
BRANCH  18  20
ATOM     20  C   UNL     1      44.796   3.976   9.377  0.00  0.00    +0.000 A 
ATOM     21  C   UNL     1      45.713   4.379   8.398  0.00  0.00    +0.000 A 
ATOM     22  C   UNL     1      46.471   3.430   7.703  0.00  0.00    +0.000 A 
ATOM     23  C   UNL     1      46.259   2.089   7.983  0.00  0.00    +0.000 A 
ATOM     24  N   UNL     1      45.342   1.641   8.880  0.00  0.00    +0.000 NA
ATOM     25  C   UNL     1      44.633   2.595   9.527  0.00  0.00    +0.000 A 
BRANCH  23  26
ATOM     26  C   UNL     1      47.064   1.036   7.286  0.00  0.00    +0.000 C 
ATOM     27  N   UNL     1      46.773  -0.254   7.659  0.00  0.00    +0.000 N 
ATOM     28  O   UNL     1      47.922   1.294   6.455  0.00  0.00    +0.000 OA
ATOM     29  H   UNL     1      46.058  -0.419   8.358  0.00  0.00    +0.000 HD
ATOM     30  H   UNL     1      47.281  -1.021   7.245  0.00  0.00    +0.000 HD
ENDBRANCH  23  26
ENDBRANCH  18  20
ENDBRANCH  17  18
ENDBRANCH   1  17
TORSDOF 5
ENDMDL
MODEL 2
REMARK VINA RESULT:    -8.204      2.662      3.942
REMARK INTER + INTRA:         -11.242
REMARK INTER:                 -10.491
REMARK INTRA:                  -0.751
REMARK UNBOUND:                -0.640
REMARK  Name = 
REMARK  8 active torsions:
REMARK  status: ('A' for Active; 'I' for Inactive)
REMARK    1  A    between atoms: C_1  and  C_2
REMARK    2  A    between atoms: C_9  and  C_10
REMARK    3  A    between atoms: C_10  and  C_11
REMARK    4  A    between atoms: C_10  and  C_12
REMARK    5  A    between atoms: C_12  and  N_13
REMARK    6  A    between atoms: N_13  and  C_14
REMARK    7  A    between atoms: C_17  and  C_18
REMARK    8  A    between atoms: C_25  and  C_26
REMARK                            x       y       z     vdW  Elec       q    Type
REMARK                         _______ _______ _______ _____ _____    ______ ____
ROOT
ATOM      1  C   UNL     1      44.021   5.802  12.238  0.00  0.00    +0.000 C 
ATOM      2  C   UNL     1      43.984   7.069  11.376  0.00  0.00    +0.000 C 
ENDROOT
BRANCH   1  11
ATOM      3  C   UNL     1      47.666  10.141  12.913  0.00  0.00    +0.000 C 
ATOM      4  C   UNL     1      48.652   9.586  11.884  0.00  0.00    +0.000 C 
ATOM      5  C   UNL     1      48.274   8.176  11.391  0.00  0.00    +0.000 C 
ATOM      6  N   UNL     1      48.581   7.182  12.415  0.00  0.00    +0.000 N 
ATOM      7  C   UNL     1      47.608   6.372  12.927  0.00  0.00    +0.000 A 
ATOM      8  N   UNL     1      47.917   5.493  13.887  0.00  0.00    +0.000 NA
ATOM      9  C   UNL     1      46.935   4.689  14.332  0.00  0.00    +0.000 A 
ATOM     10  C   UNL     1      45.643   4.723  13.862  0.00  0.00    +0.000 A 
ATOM     11  C   UNL     1      45.393   5.654  12.880  0.00  0.00    +0.000 A 
ATOM     12  N   UNL     1      46.366   6.469  12.421  0.00  0.00    +0.000 NA
ATOM     13  C   UNL     1      49.927   7.231  12.973  0.00  0.00    +0.000 C 
ATOM     14  C   UNL     1      50.255   8.672  13.424  0.00  0.00    +0.000 C 
ATOM     15  C   UNL     1      51.724   8.794  13.810  0.00  0.00    +0.000 C 
ATOM     16  O   UNL     1      50.006   9.633  12.378  0.00  0.00    +0.000 OA
ENDBRANCH   1  11
BRANCH   1  17
ATOM     17  C   UNL     1      43.714   4.532  11.416  0.00  0.00    +0.000 C 
BRANCH  17  18
ATOM     18  N   UNL     1      43.779   4.753   9.957  0.00  0.00    +0.000 N 
ATOM     19  H   UNL     1      43.966   5.727   9.725  0.00  0.00    +0.000 HD
BRANCH  18  20
ATOM     20  C   UNL     1      44.682   3.921   9.259  0.00  0.00    +0.000 A 
ATOM     21  C   UNL     1      45.479   4.455   8.239  0.00  0.00    +0.000 A 
ATOM     22  C   UNL     1      46.356   3.635   7.521  0.00  0.00    +0.000 A 
ATOM     23  C   UNL     1      46.380   2.281   7.821  0.00  0.00    +0.000 A 
ATOM     24  N   UNL     1      45.587   1.701   8.759  0.00  0.00    +0.000 NA
ATOM     25  C   UNL     1      44.756   2.535   9.428  0.00  0.00    +0.000 A 
BRANCH  23  26
ATOM     26  C   UNL     1      47.320   1.365   7.099  0.00  0.00    +0.000 C 
ATOM     27  N   UNL     1      48.449   1.972   6.605  0.00  0.00    +0.000 N 
ATOM     28  O   UNL     1      47.105   0.172   6.949  0.00  0.00    +0.000 OA
ATOM     29  H   UNL     1      48.581   2.966   6.749  0.00  0.00    +0.000 HD
ATOM     30  H   UNL     1      49.128   1.427   6.095  0.00  0.00    +0.000 HD
ENDBRANCH  23  26
ENDBRANCH  18  20
ENDBRANCH  17  18
ENDBRANCH   1  17
TORSDOF 5
ENDMDL
MODEL 3
REMARK VINA RESULT:    -7.323      2.060      3.027
REMARK INTER + INTRA:         -10.104
REMARK INTER:                  -9.508
REMARK INTRA:                  -0.596
REMARK UNBOUND:                -0.640
REMARK  Name = 
REMARK  8 active torsions:
REMARK  status: ('A' for Active; 'I' for Inactive)
REMARK    1  A    between atoms: C_1  and  C_2
REMARK    2  A    between atoms: C_9  and  C_10
REMARK    3  A    between atoms: C_10  and  C_11
REMARK    4  A    between atoms: C_10  and  C_12
REMARK    5  A    between atoms: C_12  and  N_13
REMARK    6  A    between atoms: N_13  and  C_14
REMARK    7  A    between atoms: C_17  and  C_18
REMARK    8  A    between atoms: C_25  and  C_26
REMARK                            x       y       z     vdW  Elec       q    Type
REMARK                         _______ _______ _______ _____ _____    ______ ____
ROOT
ATOM      1  C   UNL     1      45.106   6.357  12.345  0.00  0.00    +0.000 C 
ATOM      2  C   UNL     1      45.809   7.280  11.343  0.00  0.00    +0.000 C 
ENDROOT
BRANCH   1  11
ATOM      3  C   UNL     1      47.973   9.662  16.009  0.00  0.00    +0.000 C 
ATOM      4  C   UNL     1      49.311   9.429  15.308  0.00  0.00    +0.000 C 
ATOM      5  C   UNL     1      49.228   8.365  14.196  0.00  0.00    +0.000 C 
ATOM      6  N   UNL     1      49.151   7.029  14.778  0.00  0.00    +0.000 N 
ATOM      7  C   UNL     1      48.095   6.204  14.516  0.00  0.00    +0.000 A 
ATOM      8  N   UNL     1      48.040   4.996  15.090  0.00  0.00    +0.000 NA
ATOM      9  C   UNL     1      47.002   4.204  14.770  0.00  0.00    +0.000 A 
ATOM     10  C   UNL     1      46.002   4.563  13.898  0.00  0.00    +0.000 A 
ATOM     11  C   UNL     1      46.117   5.819  13.348  0.00  0.00    +0.000 A 
ATOM     12  N   UNL     1      47.152   6.628  13.657  0.00  0.00    +0.000 NA
ATOM     13  C   UNL     1      50.162   6.706  15.778  0.00  0.00    +0.000 C 
ATOM     14  C   UNL     1      50.215   7.819  16.847  0.00  0.00    +0.000 C 
ATOM     15  C   UNL     1      51.403   7.615  17.779  0.00  0.00    +0.000 C 
ATOM     16  O   UNL     1      50.355   9.127  16.255  0.00  0.00    +0.000 OA
ENDBRANCH   1  11
BRANCH   1  17
ATOM     17  C   UNL     1      44.410   5.168  11.650  0.00  0.00    +0.000 C 
BRANCH  17  18
ATOM     18  N   UNL     1      44.357   5.304  10.180  0.00  0.00    +0.000 N 
ATOM     19  H   UNL     1      44.662   6.225   9.868  0.00  0.00    +0.000 HD
BRANCH  18  20
ATOM     20  C   UNL     1      45.049   4.309   9.455  0.00  0.00    +0.000 A 
ATOM     21  C   UNL     1      45.839   4.666   8.356  0.00  0.00    +0.000 A 
ATOM     22  C   UNL     1      46.507   3.686   7.612  0.00  0.00    +0.000 A 
ATOM     23  C   UNL     1      46.330   2.358   7.972  0.00  0.00    +0.000 A 
ATOM     24  N   UNL     1      45.530   1.952   8.991  0.00  0.00    +0.000 NA
ATOM     25  C   UNL     1      44.906   2.937   9.681  0.00  0.00    +0.000 A 
BRANCH  23  26
ATOM     26  C   UNL     1      47.043   1.274   7.225  0.00  0.00    +0.000 C 
ATOM     27  N   UNL     1      47.916   1.717   6.261  0.00  0.00    +0.000 N 
ATOM     28  O   UNL     1      46.864   0.085   7.443  0.00  0.00    +0.000 OA
ATOM     29  H   UNL     1      48.027   2.713   6.111  0.00  0.00    +0.000 HD
ATOM     30  H   UNL     1      48.427   1.049   5.703  0.00  0.00    +0.000 HD
ENDBRANCH  23  26
ENDBRANCH  18  20
ENDBRANCH  17  18
ENDBRANCH   1  17
TORSDOF 5
ENDMDL
MODEL 4
REMARK VINA RESULT:    -6.756      3.474      4.279
REMARK INTER + INTRA:          -9.371
REMARK INTER:                  -8.889
REMARK INTRA:                  -0.482
REMARK UNBOUND:                -0.640
REMARK  Name = 
REMARK  8 active torsions:
REMARK  status: ('A' for Active; 'I' for Inactive)
REMARK    1  A    between atoms: C_1  and  C_2
REMARK    2  A    between atoms: C_9  and  C_10
REMARK    3  A    between atoms: C_10  and  C_11
REMARK    4  A    between atoms: C_10  and  C_12
REMARK    5  A    between atoms: C_12  and  N_13
REMARK    6  A    between atoms: N_13  and  C_14
REMARK    7  A    between atoms: C_17  and  C_18
REMARK    8  A    between atoms: C_25  and  C_26
REMARK                            x       y       z     vdW  Elec       q    Type
REMARK                         _______ _______ _______ _____ _____    ______ ____
ROOT
ATOM      1  C   UNL     1      44.727   6.774  11.814  0.00  0.00    +0.000 C 
ATOM      2  C   UNL     1      43.249   6.943  11.448  0.00  0.00    +0.000 C 
ENDROOT
BRANCH   1  11
ATOM      3  C   UNL     1      50.366   7.606  11.521  0.00  0.00    +0.000 C 
ATOM      4  C   UNL     1      50.477   7.967  13.002  0.00  0.00    +0.000 C 
ATOM      5  C   UNL     1      49.106   8.096  13.693  0.00  0.00    +0.000 C 
ATOM      6  N   UNL     1      48.457   9.344  13.302  0.00  0.00    +0.000 N 
ATOM      7  C   UNL     1      47.234   9.345  12.694  0.00  0.00    +0.000 A 
ATOM      8  N   UNL     1      46.681  10.505  12.321  0.00  0.00    +0.000 NA
ATOM      9  C   UNL     1      45.459  10.459  11.763  0.00  0.00    +0.000 A 
ATOM     10  C   UNL     1      44.755   9.297  11.553  0.00  0.00    +0.000 A 
ATOM     11  C   UNL     1      45.383   8.141  11.954  0.00  0.00    +0.000 A 
ATOM     12  N   UNL     1      46.610   8.168  12.516  0.00  0.00    +0.000 NA
ATOM     13  C   UNL     1      49.260  10.553  13.437  0.00  0.00    +0.000 C 
ATOM     14  C   UNL     1      50.629  10.353  12.750  0.00  0.00    +0.000 C 
ATOM     15  C   UNL     1      51.564  11.516  13.060  0.00  0.00    +0.000 C 
ATOM     16  O   UNL     1      51.283   9.147  13.195  0.00  0.00    +0.000 OA
ENDBRANCH   1  11
BRANCH   1  17
ATOM     17  C   UNL     1      45.498   5.955  10.758  0.00  0.00    +0.000 C 
BRANCH  17  18
ATOM     18  N   UNL     1      44.616   5.146   9.892  0.00  0.00    +0.000 N 
ATOM     19  H   UNL     1      44.104   5.719   9.223  0.00  0.00    +0.000 HD
BRANCH  18  20
ATOM     20  C   UNL     1      45.248   4.081   9.212  0.00  0.00    +0.000 A 
ATOM     21  C   UNL     1      45.973   4.332   8.041  0.00  0.00    +0.000 A 
ATOM     22  C   UNL     1      46.578   3.281   7.342  0.00  0.00    +0.000 A 
ATOM     23  C   UNL     1      46.404   1.991   7.820  0.00  0.00    +0.000 A 
ATOM     24  N   UNL     1      45.663   1.686   8.917  0.00  0.00    +0.000 NA
ATOM     25  C   UNL     1      45.098   2.735   9.559  0.00  0.00    +0.000 A 
BRANCH  23  26
ATOM     26  C   UNL     1      47.054   0.835   7.124  0.00  0.00    +0.000 C 
ATOM     27  N   UNL     1      46.709  -0.401   7.615  0.00  0.00    +0.000 N 
ATOM     28  O   UNL     1      47.838   0.971   6.197  0.00  0.00    +0.000 OA
ATOM     29  H   UNL     1      46.060  -0.463   8.390  0.00  0.00    +0.000 HD
ATOM     30  H   UNL     1      47.114  -1.231   7.209  0.00  0.00    +0.000 HD
ENDBRANCH  23  26
ENDBRANCH  18  20
ENDBRANCH  17  18
ENDBRANCH   1  17
TORSDOF 5
ENDMDL
MODEL 5
REMARK VINA RESULT:    -6.595      2.646      4.041
REMARK INTER + INTRA:          -9.163
REMARK INTER:                  -8.240
REMARK INTRA:                  -0.923
REMARK UNBOUND:                -0.640
REMARK  Name = 
REMARK  8 active torsions:
REMARK  status: ('A' for Active; 'I' for Inactive)
REMARK    1  A    between atoms: C_1  and  C_2
REMARK    2  A    between atoms: C_9  and  C_10
REMARK    3  A    between atoms: C_10  and  C_11
REMARK    4  A    between atoms: C_10  and  C_12
REMARK    5  A    between atoms: C_12  and  N_13
REMARK    6  A    between atoms: N_13  and  C_14
REMARK    7  A    between atoms: C_17  and  C_18
REMARK    8  A    between atoms: C_25  and  C_26
REMARK                            x       y       z     vdW  Elec       q    Type
REMARK                         _______ _______ _______ _____ _____    ______ ____
ROOT
ATOM      1  C   UNL     1      47.835   9.291  13.558  0.00  0.00    +0.000 C 
ATOM      2  C   UNL     1      48.174  10.474  12.645  0.00  0.00    +0.000 C 
ENDROOT
BRANCH   1  11
ATOM      3  C   UNL     1      47.958   4.338  16.390  0.00  0.00    +0.000 C 
ATOM      4  C   UNL     1      48.386   4.998  17.701  0.00  0.00    +0.000 C 
ATOM      5  C   UNL     1      48.719   6.494  17.538  0.00  0.00    +0.000 C 
ATOM      6  N   UNL     1      50.013   6.656  16.882  0.00  0.00    +0.000 N 
ATOM      7  C   UNL     1      50.128   7.343  15.707  0.00  0.00    +0.000 A 
ATOM      8  N   UNL     1      51.323   7.447  15.116  0.00  0.00    +0.000 NA
ATOM      9  C   UNL     1      51.395   8.167  13.983  0.00  0.00    +0.000 A 
ATOM     10  C   UNL     1      50.318   8.793  13.402  0.00  0.00    +0.000 A 
ATOM     11  C   UNL     1      49.117   8.640  14.058  0.00  0.00    +0.000 A 
ATOM     12  N   UNL     1      49.027   7.922  15.197  0.00  0.00    +0.000 NA
ATOM     13  C   UNL     1      51.121   5.901  17.454  0.00  0.00    +0.000 C 
ATOM     14  C   UNL     1      50.717   4.419  17.617  0.00  0.00    +0.000 C 
ATOM     15  C   UNL     1      51.774   3.656  18.406  0.00  0.00    +0.000 C 
ATOM     16  O   UNL     1      49.468   4.276  18.323  0.00  0.00    +0.000 OA
ENDBRANCH   1  11
BRANCH   1  17
ATOM     17  C   UNL     1      46.982   8.226  12.838  0.00  0.00    +0.000 C 
BRANCH  17  18
ATOM     18  N   UNL     1      46.743   7.020  13.657  0.00  0.00    +0.000 N 
ATOM     19  H   UNL     1      46.255   7.237  14.525  0.00  0.00    +0.000 HD
BRANCH  18  20
ATOM     20  C   UNL     1      46.081   5.962  12.997  0.00  0.00    +0.000 A 
ATOM     21  C   UNL     1      45.679   6.111  11.664  0.00  0.00    +0.000 A 
ATOM     22  C   UNL     1      44.996   5.080  11.009  0.00  0.00    +0.000 A 
ATOM     23  C   UNL     1      44.698   3.932  11.727  0.00  0.00    +0.000 A 
ATOM     24  N   UNL     1      45.013   3.758  13.037  0.00  0.00    +0.000 NA
ATOM     25  C   UNL     1      45.673   4.782  13.628  0.00  0.00    +0.000 A 
BRANCH  23  26
ATOM     26  C   UNL     1      43.993   2.789  11.064  0.00  0.00    +0.000 C 
ATOM     27  N   UNL     1      44.610   2.309   9.934  0.00  0.00    +0.000 N 
ATOM     28  O   UNL     1      42.946   2.319  11.482  0.00  0.00    +0.000 OA
ATOM     29  H   UNL     1      45.475   2.736   9.622  0.00  0.00    +0.000 HD
ATOM     30  H   UNL     1      44.192   1.548   9.420  0.00  0.00    +0.000 HD
ENDBRANCH  23  26
ENDBRANCH  18  20
ENDBRANCH  17  18
ENDBRANCH   1  17
TORSDOF 5
ENDMDL
MODEL 6
REMARK VINA RESULT:    -6.398      3.423      5.745
REMARK INTER + INTRA:          -8.909
REMARK INTER:                  -7.709
REMARK INTRA:                  -1.200
REMARK UNBOUND:                -0.640
REMARK  Name = 
REMARK  8 active torsions:
REMARK  status: ('A' for Active; 'I' for Inactive)
REMARK    1  A    between atoms: C_1  and  C_2
REMARK    2  A    between atoms: C_9  and  C_10
REMARK    3  A    between atoms: C_10  and  C_11
REMARK    4  A    between atoms: C_10  and  C_12
REMARK    5  A    between atoms: C_12  and  N_13
REMARK    6  A    between atoms: N_13  and  C_14
REMARK    7  A    between atoms: C_17  and  C_18
REMARK    8  A    between atoms: C_25  and  C_26
REMARK                            x       y       z     vdW  Elec       q    Type
REMARK                         _______ _______ _______ _____ _____    ______ ____
ROOT
ATOM      1  C   UNL     1      48.374   4.610  16.946  0.00  0.00    +0.000 C 
ATOM      2  C   UNL     1      48.008   4.737  18.428  0.00  0.00    +0.000 C 
ENDROOT
BRANCH   1  11
ATOM      3  C   UNL     1      46.861   8.741  13.311  0.00  0.00    +0.000 C 
ATOM      4  C   UNL     1      47.825   8.259  12.226  0.00  0.00    +0.000 C 
ATOM      5  C   UNL     1      48.756   7.131  12.709  0.00  0.00    +0.000 C 
ATOM      6  N   UNL     1      49.797   7.671  13.578  0.00  0.00    +0.000 N 
ATOM      7  C   UNL     1      49.945   7.229  14.862  0.00  0.00    +0.000 A 
ATOM      8  N   UNL     1      50.890   7.767  15.642  0.00  0.00    +0.000 NA
ATOM      9  C   UNL     1      51.025   7.272  16.885  0.00  0.00    +0.000 A 
ATOM     10  C   UNL     1      50.251   6.257  17.395  0.00  0.00    +0.000 A 
ATOM     11  C   UNL     1      49.295   5.753  16.542  0.00  0.00    +0.000 A 
ATOM     12  N   UNL     1      49.145   6.237  15.291  0.00  0.00    +0.000 NA
ATOM     13  C   UNL     1      50.537   8.814  13.058  0.00  0.00    +0.000 C 
ATOM     14  C   UNL     1      49.551   9.897  12.566  0.00  0.00    +0.000 C 
ATOM     15  C   UNL     1      50.292  11.003  11.825  0.00  0.00    +0.000 C 
ATOM     16  O   UNL     1      48.568   9.357  11.659  0.00  0.00    +0.000 OA
ENDBRANCH   1  11
BRANCH   1  17
ATOM     17  C   UNL     1      47.128   4.627  16.036  0.00  0.00    +0.000 C 
BRANCH  17  18
ATOM     18  N   UNL     1      47.281   3.796  14.824  0.00  0.00    +0.000 N 
ATOM     19  H   UNL     1      47.231   2.800  15.034  0.00  0.00    +0.000 HD
BRANCH  18  20
ATOM     20  C   UNL     1      46.395   4.098  13.767  0.00  0.00    +0.000 A 
ATOM     21  C   UNL     1      45.797   5.362  13.696  0.00  0.00    +0.000 A 
ATOM     22  C   UNL     1      44.894   5.664  12.669  0.00  0.00    +0.000 A 
ATOM     23  C   UNL     1      44.584   4.666  11.756  0.00  0.00    +0.000 A 
ATOM     24  N   UNL     1      45.090   3.407  11.813  0.00  0.00    +0.000 NA
ATOM     25  C   UNL     1      45.958   3.164  12.823  0.00  0.00    +0.000 A 
BRANCH  23  26
ATOM     26  C   UNL     1      43.645   4.947  10.624  0.00  0.00    +0.000 C 
ATOM     27  N   UNL     1      44.123   4.606   9.382  0.00  0.00    +0.000 N 
ATOM     28  O   UNL     1      42.542   5.448  10.781  0.00  0.00    +0.000 OA
ATOM     29  H   UNL     1      45.048   4.199   9.300  0.00  0.00    +0.000 HD
ATOM     30  H   UNL     1      43.557   4.775   8.564  0.00  0.00    +0.000 HD
ENDBRANCH  23  26
ENDBRANCH  18  20
ENDBRANCH  17  18
ENDBRANCH   1  17
TORSDOF 5
ENDMDL
MODEL 7
REMARK VINA RESULT:    -6.321      1.847      2.308
REMARK INTER + INTRA:          -8.809
REMARK INTER:                  -8.097
REMARK INTRA:                  -0.712
REMARK UNBOUND:                -0.640
REMARK  Name = 
REMARK  8 active torsions:
REMARK  status: ('A' for Active; 'I' for Inactive)
REMARK    1  A    between atoms: C_1  and  C_2
REMARK    2  A    between atoms: C_9  and  C_10
REMARK    3  A    between atoms: C_10  and  C_11
REMARK    4  A    between atoms: C_10  and  C_12
REMARK    5  A    between atoms: C_12  and  N_13
REMARK    6  A    between atoms: N_13  and  C_14
REMARK    7  A    between atoms: C_17  and  C_18
REMARK    8  A    between atoms: C_25  and  C_26
REMARK                            x       y       z     vdW  Elec       q    Type
REMARK                         _______ _______ _______ _____ _____    ______ ____
ROOT
ATOM      1  C   UNL     1      45.587   7.553  12.636  0.00  0.00    +0.000 C 
ATOM      2  C   UNL     1      45.140   9.009  12.809  0.00  0.00    +0.000 C 
ENDROOT
BRANCH   1  11
ATOM      3  C   UNL     1      48.432   5.112  16.938  0.00  0.00    +0.000 C 
ATOM      4  C   UNL     1      48.996   6.442  17.436  0.00  0.00    +0.000 C 
ATOM      5  C   UNL     1      48.687   7.617  16.487  0.00  0.00    +0.000 C 
ATOM      6  N   UNL     1      49.539   7.548  15.303  0.00  0.00    +0.000 N 
ATOM      7  C   UNL     1      49.002   7.465  14.050  0.00  0.00    +0.000 A 
ATOM      8  N   UNL     1      49.810   7.373  12.988  0.00  0.00    +0.000 NA
ATOM      9  C   UNL     1      49.236   7.334  11.773  0.00  0.00    +0.000 A 
ATOM     10  C   UNL     1      47.879   7.380  11.563  0.00  0.00    +0.000 A 
ATOM     11  C   UNL     1      47.105   7.468  12.698  0.00  0.00    +0.000 A 
ATOM     12  N   UNL     1      47.663   7.508  13.926  0.00  0.00    +0.000 NA
ATOM     13  C   UNL     1      50.967   7.397  15.549  0.00  0.00    +0.000 C 
ATOM     14  C   UNL     1      51.210   6.224  16.525  0.00  0.00    +0.000 C 
ATOM     15  C   UNL     1      52.668   6.181  16.965  0.00  0.00    +0.000 C 
ATOM     16  O   UNL     1      50.406   6.342  17.717  0.00  0.00    +0.000 OA
ENDBRANCH   1  11
BRANCH   1  17
ATOM     17  C   UNL     1      45.106   6.953  11.298  0.00  0.00    +0.000 C 
BRANCH  17  18
ATOM     18  N   UNL     1      44.677   5.544  11.413  0.00  0.00    +0.000 N 
ATOM     19  H   UNL     1      43.665   5.457  11.499  0.00  0.00    +0.000 HD
BRANCH  18  20
ATOM     20  C   UNL     1      45.137   4.686  10.390  0.00  0.00    +0.000 A 
ATOM     21  C   UNL     1      45.752   5.221   9.252  0.00  0.00    +0.000 A 
ATOM     22  C   UNL     1      46.185   4.383   8.218  0.00  0.00    +0.000 A 
ATOM     23  C   UNL     1      45.952   3.021   8.339  0.00  0.00    +0.000 A 
ATOM     24  N   UNL     1      45.308   2.456   9.393  0.00  0.00    +0.000 NA
ATOM     25  C   UNL     1      44.909   3.307  10.367  0.00  0.00    +0.000 A 
BRANCH  23  26
ATOM     26  C   UNL     1      46.420   2.079   7.273  0.00  0.00    +0.000 C 
ATOM     27  N   UNL     1      46.744   0.821   7.718  0.00  0.00    +0.000 N 
ATOM     28  O   UNL     1      46.518   2.398   6.097  0.00  0.00    +0.000 OA
ATOM     29  H   UNL     1      46.653   0.604   8.704  0.00  0.00    +0.000 HD
ATOM     30  H   UNL     1      47.081   0.130   7.064  0.00  0.00    +0.000 HD
ENDBRANCH  23  26
ENDBRANCH  18  20
ENDBRANCH  17  18
ENDBRANCH   1  17
TORSDOF 5
ENDMDL
MODEL 8
REMARK VINA RESULT:    -6.310      2.774      5.152
REMARK INTER + INTRA:          -8.794
REMARK INTER:                  -8.229
REMARK INTRA:                  -0.566
REMARK UNBOUND:                -0.640
REMARK  Name = 
REMARK  8 active torsions:
REMARK  status: ('A' for Active; 'I' for Inactive)
REMARK    1  A    between atoms: C_1  and  C_2
REMARK    2  A    between atoms: C_9  and  C_10
REMARK    3  A    between atoms: C_10  and  C_11
REMARK    4  A    between atoms: C_10  and  C_12
REMARK    5  A    between atoms: C_12  and  N_13
REMARK    6  A    between atoms: N_13  and  C_14
REMARK    7  A    between atoms: C_17  and  C_18
REMARK    8  A    between atoms: C_25  and  C_26
REMARK                            x       y       z     vdW  Elec       q    Type
REMARK                         _______ _______ _______ _____ _____    ______ ____
ROOT
ATOM      1  C   UNL     1      48.487   6.840  15.869  0.00  0.00    +0.000 C 
ATOM      2  C   UNL     1      49.438   7.997  16.193  0.00  0.00    +0.000 C 
ENDROOT
BRANCH   1  11
ATOM      3  C   UNL     1      52.810   6.700  19.592  0.00  0.00    +0.000 C 
ATOM      4  C   UNL     1      53.729   5.948  18.630  0.00  0.00    +0.000 C 
ATOM      5  C   UNL     1      53.009   5.490  17.347  0.00  0.00    +0.000 C 
ATOM      6  N   UNL     1      52.149   4.345  17.630  0.00  0.00    +0.000 N 
ATOM      7  C   UNL     1      50.806   4.393  17.387  0.00  0.00    +0.000 A 
ATOM      8  N   UNL     1      50.041   3.336  17.687  0.00  0.00    +0.000 NA
ATOM      9  C   UNL     1      48.731   3.415  17.393  0.00  0.00    +0.000 A 
ATOM     10  C   UNL     1      48.139   4.510  16.812  0.00  0.00    +0.000 A 
ATOM     11  C   UNL     1      48.981   5.564  16.536  0.00  0.00    +0.000 A 
ATOM     12  N   UNL     1      50.299   5.503  16.823  0.00  0.00    +0.000 NA
ATOM     13  C   UNL     1      52.773   3.235  18.339  0.00  0.00    +0.000 C 
ATOM     14  C   UNL     1      53.499   3.759  19.598  0.00  0.00    +0.000 C 
ATOM     15  C   UNL     1      54.335   2.657  20.236  0.00  0.00    +0.000 C 
ATOM     16  O   UNL     1      54.392   4.849  19.288  0.00  0.00    +0.000 OA
ENDBRANCH   1  11
BRANCH   1  17
ATOM     17  C   UNL     1      48.365   6.596  14.350  0.00  0.00    +0.000 C 
BRANCH  17  18
ATOM     18  N   UNL     1      47.052   6.993  13.802  0.00  0.00    +0.000 N 
ATOM     19  H   UNL     1      47.115   7.826  13.220  0.00  0.00    +0.000 HD
BRANCH  18  20
ATOM     20  C   UNL     1      46.359   5.981  13.100  0.00  0.00    +0.000 A 
ATOM     21  C   UNL     1      45.834   6.245  11.829  0.00  0.00    +0.000 A 
ATOM     22  C   UNL     1      45.121   5.260  11.137  0.00  0.00    +0.000 A 
ATOM     23  C   UNL     1      44.917   4.038  11.762  0.00  0.00    +0.000 A 
ATOM     24  N   UNL     1      45.353   3.750  13.016  0.00  0.00    +0.000 NA
ATOM     25  C   UNL     1      46.038   4.734  13.645  0.00  0.00    +0.000 A 
BRANCH  23  26
ATOM     26  C   UNL     1      44.184   2.942  11.053  0.00  0.00    +0.000 C 
ATOM     27  N   UNL     1      44.865   2.379  10.002  0.00  0.00    +0.000 N 
ATOM     28  O   UNL     1      43.062   2.576  11.371  0.00  0.00    +0.000 OA
ATOM     29  H   UNL     1      45.791   2.720   9.771  0.00  0.00    +0.000 HD
ATOM     30  H   UNL     1      44.435   1.642   9.463  0.00  0.00    +0.000 HD
ENDBRANCH  23  26
ENDBRANCH  18  20
ENDBRANCH  17  18
ENDBRANCH   1  17
TORSDOF 5
ENDMDL
MODEL 9
REMARK VINA RESULT:    -6.215      3.426      4.890
REMARK INTER + INTRA:          -8.672
REMARK INTER:                  -7.742
REMARK INTRA:                  -0.930
REMARK UNBOUND:                -0.640
REMARK  Name = 
REMARK  8 active torsions:
REMARK  status: ('A' for Active; 'I' for Inactive)
REMARK    1  A    between atoms: C_1  and  C_2
REMARK    2  A    between atoms: C_9  and  C_10
REMARK    3  A    between atoms: C_10  and  C_11
REMARK    4  A    between atoms: C_10  and  C_12
REMARK    5  A    between atoms: C_12  and  N_13
REMARK    6  A    between atoms: N_13  and  C_14
REMARK    7  A    between atoms: C_17  and  C_18
REMARK    8  A    between atoms: C_25  and  C_26
REMARK                            x       y       z     vdW  Elec       q    Type
REMARK                         _______ _______ _______ _____ _____    ______ ____
ROOT
ATOM      1  C   UNL     1      49.616   8.814  13.709  0.00  0.00    +0.000 C 
ATOM      2  C   UNL     1      50.933   8.039  13.587  0.00  0.00    +0.000 C 
ENDROOT
BRANCH   1  11
ATOM      3  C   UNL     1      51.260   4.880  17.503  0.00  0.00    +0.000 C 
ATOM      4  C   UNL     1      49.877   4.231  17.560  0.00  0.00    +0.000 C 
ATOM      5  C   UNL     1      48.810   5.025  16.783  0.00  0.00    +0.000 C 
ATOM      6  N   UNL     1      48.425   6.220  17.528  0.00  0.00    +0.000 N 
ATOM      7  C   UNL     1      48.567   7.466  16.988  0.00  0.00    +0.000 A 
ATOM      8  N   UNL     1      48.234   8.542  17.710  0.00  0.00    +0.000 NA
ATOM      9  C   UNL     1      48.353   9.746  17.122  0.00  0.00    +0.000 A 
ATOM     10  C   UNL     1      48.799   9.930  15.835  0.00  0.00    +0.000 A 
ATOM     11  C   UNL     1      49.131   8.783  15.151  0.00  0.00    +0.000 A 
ATOM     12  N   UNL     1      49.017   7.566  15.725  0.00  0.00    +0.000 NA
ATOM     13  C   UNL     1      48.054   6.014  18.923  0.00  0.00    +0.000 C 
ATOM     14  C   UNL     1      49.148   5.191  19.639  0.00  0.00    +0.000 C 
ATOM     15  C   UNL     1      48.687   4.780  21.032  0.00  0.00    +0.000 C 
ATOM     16  O   UNL     1      49.470   3.983  18.920  0.00  0.00    +0.000 OA
ENDBRANCH   1  11
BRANCH   1  17
ATOM     17  C   UNL     1      48.514   8.233  12.798  0.00  0.00    +0.000 C 
BRANCH  17  18
ATOM     18  N   UNL     1      48.306   6.783  12.988  0.00  0.00    +0.000 N 
ATOM     19  H   UNL     1      48.525   6.486  13.938  0.00  0.00    +0.000 HD
BRANCH  18  20
ATOM     20  C   UNL     1      47.028   6.303  12.629  0.00  0.00    +0.000 A 
ATOM     21  C   UNL     1      46.461   6.673  11.403  0.00  0.00    +0.000 A 
ATOM     22  C   UNL     1      45.182   6.228  11.049  0.00  0.00    +0.000 A 
ATOM     23  C   UNL     1      44.485   5.448  11.959  0.00  0.00    +0.000 A 
ATOM     24  N   UNL     1      44.963   5.109  13.185  0.00  0.00    +0.000 NA
ATOM     25  C   UNL     1      46.203   5.563  13.482  0.00  0.00    +0.000 A 
BRANCH  23  26
ATOM     26  C   UNL     1      43.124   4.924  11.617  0.00  0.00    +0.000 C 
ATOM     27  N   UNL     1      42.105   5.836  11.750  0.00  0.00    +0.000 N 
ATOM     28  O   UNL     1      42.925   3.775  11.254  0.00  0.00    +0.000 OA
ATOM     29  H   UNL     1      42.319   6.777  12.061  0.00  0.00    +0.000 HD
ATOM     30  H   UNL     1      41.156   5.559  11.551  0.00  0.00    +0.000 HD
ENDBRANCH  23  26
ENDBRANCH  18  20
ENDBRANCH  17  18
ENDBRANCH   1  17
TORSDOF 5
ENDMDL
