MODEL 1
REMARK VINA RESULT:    -8.259      0.000      0.000
REMARK INTER + INTRA:         -10.825
REMARK INTER:                 -10.190
REMARK INTRA:                  -0.636
REMARK UNBOUND:                -0.636
REMARK  Name = 
REMARK  4 active torsions:
REMARK  status: ('A' for Active; 'I' for Inactive)
REMARK    1  A    between atoms: C_2  and  C_4
REMARK    2  A    between atoms: N_8  and  C_9
REMARK    3  A    between atoms: C_9  and  C_10
REMARK    4  A    between atoms: C_14  and  C_15
REMARK                            x       y       z     vdW  Elec       q    Type
REMARK                         _______ _______ _______ _____ _____    ______ ____
ROOT
ATOM      1  C   UNL     1      46.513   2.645   7.438  0.00  0.00    +0.000 A 
ATOM      2  C   UNL     1      45.963   1.687   8.283  0.00  0.00    +0.000 A 
ATOM      3  C   UNL     1      45.052   2.091   9.256  0.00  0.00    +0.000 A 
ATOM      4  C   UNL     1      44.733   3.442   9.392  0.00  0.00    +0.000 A 
ATOM      5  N   UNL     1      43.880   3.793  10.433  0.00  0.00    +0.000 N 
ATOM      6  N   UNL     1      45.265   4.380   8.587  0.00  0.00    +0.000 NA
ATOM      7  C   UNL     1      46.138   3.968   7.630  0.00  0.00    +0.000 A 
ATOM      8  H   UNL     1      42.968   3.365  10.313  0.00  0.00    +0.000 HD
ENDROOT
BRANCH   1  10
ATOM      9  N   UNL     1      47.490   3.097   5.256  0.00  0.00    +0.000 N 
ATOM     10  C   UNL     1      47.495   2.323   6.381  0.00  0.00    +0.000 C 
ATOM     11  O   UNL     1      48.303   1.412   6.518  0.00  0.00    +0.000 OA
ATOM     12  H   UNL     1      48.223   2.916   4.582  0.00  0.00    +0.000 HD
ATOM     13  H   UNL     1      47.006   3.981   5.194  0.00  0.00    +0.000 HD
ENDBRANCH   1  10
BRANCH   5  14
ATOM     14  C   UNL     1      43.799   5.202  10.775  0.00  0.00    +0.000 C 
BRANCH  14  15
ATOM     15  C   UNL     1      44.904   5.460  11.776  0.00  0.00    +0.000 A 
ATOM     16  C   UNL     1      45.092   4.626  12.883  0.00  0.00    +0.000 A 
ATOM     17  C   UNL     1      46.182   4.820  13.735  0.00  0.00    +0.000 A 
ATOM     18  C   UNL     1      47.098   5.842  13.481  0.00  0.00    +0.000 A 
ATOM     19  C   UNL     1      46.939   6.685  12.372  0.00  0.00    +0.000 A 
ATOM     20  C   UNL     1      45.830   6.490  11.534  0.00  0.00    +0.000 A 
BRANCH  19  21
ATOM     21  C   UNL     1      47.939   7.767  12.056  0.00  0.00    +0.000 C 
ATOM     22  F   UNL     1      48.723   7.486  10.977  0.00  0.00    +0.000 F 
ATOM     23  F   UNL     1      47.346   8.962  11.780  0.00  0.00    +0.000 F 
ATOM     24  F   UNL     1      48.797   8.005  13.087  0.00  0.00    +0.000 F 
ENDBRANCH  19  21
ENDBRANCH  14  15
ENDBRANCH   5  14
TORSDOF 4
ENDMDL
MODEL 2
REMARK VINA RESULT:    -7.860      1.808      2.424
REMARK INTER + INTRA:         -10.333
REMARK INTER:                  -9.902
REMARK INTRA:                  -0.431
REMARK UNBOUND:                -0.636
REMARK  Name = 
REMARK  4 active torsions:
REMARK  status: ('A' for Active; 'I' for Inactive)
REMARK    1  A    between atoms: C_2  and  C_4
REMARK    2  A    between atoms: N_8  and  C_9
REMARK    3  A    between atoms: C_9  and  C_10
REMARK    4  A    between atoms: C_14  and  C_15
REMARK                            x       y       z     vdW  Elec       q    Type
REMARK                         _______ _______ _______ _____ _____    ______ ____
ROOT
ATOM      1  C   UNL     1      46.466   2.655   7.462  0.00  0.00    +0.000 A 
ATOM      2  C   UNL     1      46.044   1.702   8.383  0.00  0.00    +0.000 A 
ATOM      3  C   UNL     1      45.108   2.066   9.347  0.00  0.00    +0.000 A 
ATOM      4  C   UNL     1      44.636   3.377   9.398  0.00  0.00    +0.000 A 
ATOM      5  N   UNL     1      43.763   3.700  10.432  0.00  0.00    +0.000 N 
ATOM      6  N   UNL     1      45.042   4.311   8.519  0.00  0.00    +0.000 NA
ATOM      7  C   UNL     1      45.942   3.936   7.571  0.00  0.00    +0.000 A 
ATOM      8  H   UNL     1      42.906   3.162  10.363  0.00  0.00    +0.000 HD
ENDROOT
BRANCH   1  10
ATOM      9  N   UNL     1      47.482   3.199   5.320  0.00  0.00    +0.000 N 
ATOM     10  C   UNL     1      47.462   2.373   6.407  0.00  0.00    +0.000 C 
ATOM     11  O   UNL     1      48.260   1.450   6.514  0.00  0.00    +0.000 OA
ATOM     12  H   UNL     1      48.225   3.044   4.649  0.00  0.00    +0.000 HD
ATOM     13  H   UNL     1      47.007   4.090   5.292  0.00  0.00    +0.000 HD
ENDBRANCH   1  10
BRANCH   5  14
ATOM     14  C   UNL     1      43.524   5.111  10.678  0.00  0.00    +0.000 C 
BRANCH  14  15
ATOM     15  C   UNL     1      44.745   5.628  11.408  0.00  0.00    +0.000 A 
ATOM     16  C   UNL     1      45.256   6.905  11.154  0.00  0.00    +0.000 A 
ATOM     17  C   UNL     1      46.319   7.402  11.912  0.00  0.00    +0.000 A 
ATOM     18  C   UNL     1      46.870   6.632  12.938  0.00  0.00    +0.000 A 
ATOM     19  C   UNL     1      46.368   5.354  13.220  0.00  0.00    +0.000 A 
ATOM     20  C   UNL     1      45.312   4.859  12.438  0.00  0.00    +0.000 A 
BRANCH  19  21
ATOM     21  C   UNL     1      46.920   4.522  14.350  0.00  0.00    +0.000 C 
ATOM     22  F   UNL     1      47.299   3.269  13.969  0.00  0.00    +0.000 F 
ATOM     23  F   UNL     1      48.023   5.083  14.920  0.00  0.00    +0.000 F 
ATOM     24  F   UNL     1      46.023   4.349  15.360  0.00  0.00    +0.000 F 
ENDBRANCH  19  21
ENDBRANCH  14  15
ENDBRANCH   5  14
TORSDOF 4
ENDMDL
MODEL 3
REMARK VINA RESULT:    -7.682      4.340      6.819
REMARK INTER + INTRA:         -10.113
REMARK INTER:                  -9.817
REMARK INTRA:                  -0.296
REMARK UNBOUND:                -0.636
REMARK  Name = 
REMARK  4 active torsions:
REMARK  status: ('A' for Active; 'I' for Inactive)
REMARK    1  A    between atoms: C_2  and  C_4
REMARK    2  A    between atoms: N_8  and  C_9
REMARK    3  A    between atoms: C_9  and  C_10
REMARK    4  A    between atoms: C_14  and  C_15
REMARK                            x       y       z     vdW  Elec       q    Type
REMARK                         _______ _______ _______ _____ _____    ______ ____
ROOT
ATOM      1  C   UNL     1      46.593   5.136  13.906  0.00  0.00    +0.000 A 
ATOM      2  C   UNL     1      45.556   5.987  13.540  0.00  0.00    +0.000 A 
ATOM      3  C   UNL     1      44.526   5.490  12.745  0.00  0.00    +0.000 A 
ATOM      4  C   UNL     1      44.567   4.169  12.300  0.00  0.00    +0.000 A 
ATOM      5  N   UNL     1      43.552   3.754  11.443  0.00  0.00    +0.000 N 
ATOM      6  N   UNL     1      45.569   3.338  12.638  0.00  0.00    +0.000 NA
ATOM      7  C   UNL     1      46.557   3.832  13.431  0.00  0.00    +0.000 A 
ATOM      8  H   UNL     1      42.649   3.802  11.903  0.00  0.00    +0.000 HD
ENDROOT
BRANCH   1  10
ATOM      9  N   UNL     1      47.720   5.226  16.060  0.00  0.00    +0.000 N 
ATOM     10  C   UNL     1      47.737   5.567  14.738  0.00  0.00    +0.000 C 
ATOM     11  O   UNL     1      48.680   6.182  14.255  0.00  0.00    +0.000 OA
ATOM     12  H   UNL     1      48.549   5.455  16.594  0.00  0.00    +0.000 HD
ATOM     13  H   UNL     1      47.090   4.539  16.447  0.00  0.00    +0.000 HD
ENDBRANCH   1  10
BRANCH   5  14
ATOM     14  C   UNL     1      43.757   2.504  10.733  0.00  0.00    +0.000 C 
BRANCH  14  15
ATOM     15  C   UNL     1      44.605   2.836   9.525  0.00  0.00    +0.000 A 
ATOM     16  C   UNL     1      44.765   4.156   9.089  0.00  0.00    +0.000 A 
ATOM     17  C   UNL     1      45.636   4.451   8.038  0.00  0.00    +0.000 A 
ATOM     18  C   UNL     1      46.363   3.430   7.422  0.00  0.00    +0.000 A 
ATOM     19  C   UNL     1      46.229   2.101   7.847  0.00  0.00    +0.000 A 
ATOM     20  C   UNL     1      45.337   1.816   8.892  0.00  0.00    +0.000 A 
BRANCH  19  21
ATOM     21  C   UNL     1      47.036   0.990   7.224  0.00  0.00    +0.000 C 
ATOM     22  F   UNL     1      48.383   1.177   7.316  0.00  0.00    +0.000 F 
ATOM     23  F   UNL     1      46.791  -0.220   7.801  0.00  0.00    +0.000 F 
ATOM     24  F   UNL     1      46.772   0.832   5.896  0.00  0.00    +0.000 F 
ENDBRANCH  19  21
ENDBRANCH  14  15
ENDBRANCH   5  14
TORSDOF 4
ENDMDL
MODEL 4
REMARK VINA RESULT:    -7.540      3.938      6.521
REMARK INTER + INTRA:          -9.938
REMARK INTER:                  -9.400
REMARK INTRA:                  -0.538
REMARK UNBOUND:                -0.636
REMARK  Name = 
REMARK  4 active torsions:
REMARK  status: ('A' for Active; 'I' for Inactive)
REMARK    1  A    between atoms: C_2  and  C_4
REMARK    2  A    between atoms: N_8  and  C_9
REMARK    3  A    between atoms: C_9  and  C_10
REMARK    4  A    between atoms: C_14  and  C_15
REMARK                            x       y       z     vdW  Elec       q    Type
REMARK                         _______ _______ _______ _____ _____    ______ ____
ROOT
ATOM      1  C   UNL     1      46.887   5.149  13.998  0.00  0.00    +0.000 A 
ATOM      2  C   UNL     1      47.480   6.032  13.101  0.00  0.00    +0.000 A 
ATOM      3  C   UNL     1      46.825   6.317  11.906  0.00  0.00    +0.000 A 
ATOM      4  C   UNL     1      45.613   5.694  11.611  0.00  0.00    +0.000 A 
ATOM      5  N   UNL     1      45.047   5.958  10.368  0.00  0.00    +0.000 N 
ATOM      6  N   UNL     1      45.033   4.831  12.465  0.00  0.00    +0.000 NA
ATOM      7  C   UNL     1      45.675   4.577  13.637  0.00  0.00    +0.000 A 
ATOM      8  H   UNL     1      44.814   6.941  10.279  0.00  0.00    +0.000 HD
ENDROOT
BRANCH   1  10
ATOM      9  N   UNL     1      47.094   3.606  15.867  0.00  0.00    +0.000 N 
ATOM     10  C   UNL     1      47.504   4.772  15.288  0.00  0.00    +0.000 C 
ATOM     11  O   UNL     1      48.372   5.464  15.806  0.00  0.00    +0.000 OA
ATOM     12  H   UNL     1      47.586   3.321  16.705  0.00  0.00    +0.000 HD
ATOM     13  H   UNL     1      46.558   2.903  15.379  0.00  0.00    +0.000 HD
ENDBRANCH   1  10
BRANCH   5  14
ATOM     14  C   UNL     1      43.973   5.083   9.931  0.00  0.00    +0.000 C 
BRANCH  14  15
ATOM     15  C   UNL     1      44.637   3.855   9.348  0.00  0.00    +0.000 A 
ATOM     16  C   UNL     1      44.294   2.569   9.780  0.00  0.00    +0.000 A 
ATOM     17  C   UNL     1      44.841   1.446   9.155  0.00  0.00    +0.000 A 
ATOM     18  C   UNL     1      45.726   1.600   8.085  0.00  0.00    +0.000 A 
ATOM     19  C   UNL     1      46.076   2.877   7.626  0.00  0.00    +0.000 A 
ATOM     20  C   UNL     1      45.534   3.997   8.275  0.00  0.00    +0.000 A 
BRANCH  19  21
ATOM     21  C   UNL     1      46.997   3.064   6.447  0.00  0.00    +0.000 C 
ATOM     22  F   UNL     1      46.777   2.175   5.437  0.00  0.00    +0.000 F 
ATOM     23  F   UNL     1      46.879   4.299   5.883  0.00  0.00    +0.000 F 
ATOM     24  F   UNL     1      48.311   2.929   6.781  0.00  0.00    +0.000 F 
ENDBRANCH  19  21
ENDBRANCH  14  15
ENDBRANCH   5  14
TORSDOF 4
ENDMDL
MODEL 5
REMARK VINA RESULT:    -6.814      4.367      6.835
REMARK INTER + INTRA:          -9.043
REMARK INTER:                  -9.311
REMARK INTRA:                   0.267
REMARK UNBOUND:                -0.636
REMARK  Name = 
REMARK  4 active torsions:
REMARK  status: ('A' for Active; 'I' for Inactive)
REMARK    1  A    between atoms: C_2  and  C_4
REMARK    2  A    between atoms: N_8  and  C_9
REMARK    3  A    between atoms: C_9  and  C_10
REMARK    4  A    between atoms: C_14  and  C_15
REMARK                            x       y       z     vdW  Elec       q    Type
REMARK                         _______ _______ _______ _____ _____    ______ ____
ROOT
ATOM      1  C   UNL     1      45.935   6.911  12.926  0.00  0.00    +0.000 A 
ATOM      2  C   UNL     1      46.475   5.867  13.670  0.00  0.00    +0.000 A 
ATOM      3  C   UNL     1      46.214   4.557  13.279  0.00  0.00    +0.000 A 
ATOM      4  C   UNL     1      45.394   4.310  12.178  0.00  0.00    +0.000 A 
ATOM      5  N   UNL     1      45.105   2.981  11.885  0.00  0.00    +0.000 N 
ATOM      6  N   UNL     1      44.859   5.310  11.455  0.00  0.00    +0.000 NA
ATOM      7  C   UNL     1      45.138   6.584  11.838  0.00  0.00    +0.000 A 
ATOM      8  H   UNL     1      45.950   2.472  11.646  0.00  0.00    +0.000 HD
ENDROOT
BRANCH   1  10
ATOM      9  N   UNL     1      45.146   9.212  12.945  0.00  0.00    +0.000 N 
ATOM     10  C   UNL     1      46.143   8.336  13.263  0.00  0.00    +0.000 C 
ATOM     11  O   UNL     1      47.160   8.714  13.831  0.00  0.00    +0.000 OA
ATOM     12  H   UNL     1      45.269  10.167  13.259  0.00  0.00    +0.000 HD
ATOM     13  H   UNL     1      44.214   8.922  12.687  0.00  0.00    +0.000 HD
ENDBRANCH   1  10
BRANCH   5  14
ATOM     14  C   UNL     1      44.017   2.731  10.957  0.00  0.00    +0.000 C 
BRANCH  14  15
ATOM     15  C   UNL     1      44.599   2.883   9.568  0.00  0.00    +0.000 A 
ATOM     16  C   UNL     1      44.437   4.066   8.838  0.00  0.00    +0.000 A 
ATOM     17  C   UNL     1      45.072   4.224   7.604  0.00  0.00    +0.000 A 
ATOM     18  C   UNL     1      45.882   3.207   7.096  0.00  0.00    +0.000 A 
ATOM     19  C   UNL     1      46.069   2.018   7.813  0.00  0.00    +0.000 A 
ATOM     20  C   UNL     1      45.412   1.864   9.043  0.00  0.00    +0.000 A 
BRANCH  19  21
ATOM     21  C   UNL     1      46.973   0.924   7.302  0.00  0.00    +0.000 C 
ATOM     22  F   UNL     1      46.832   0.679   5.969  0.00  0.00    +0.000 F 
ATOM     23  F   UNL     1      48.293   1.209   7.487  0.00  0.00    +0.000 F 
ATOM     24  F   UNL     1      46.757  -0.268   7.924  0.00  0.00    +0.000 F 
ENDBRANCH  19  21
ENDBRANCH  14  15
ENDBRANCH   5  14
TORSDOF 4
ENDMDL
MODEL 6
REMARK VINA RESULT:    -6.529      5.364      7.919
REMARK INTER + INTRA:          -8.691
REMARK INTER:                  -8.294
REMARK INTRA:                  -0.397
REMARK UNBOUND:                -0.636
REMARK  Name = 
REMARK  4 active torsions:
REMARK  status: ('A' for Active; 'I' for Inactive)
REMARK    1  A    between atoms: C_2  and  C_4
REMARK    2  A    between atoms: N_8  and  C_9
REMARK    3  A    between atoms: C_9  and  C_10
REMARK    4  A    between atoms: C_14  and  C_15
REMARK                            x       y       z     vdW  Elec       q    Type
REMARK                         _______ _______ _______ _____ _____    ______ ____
ROOT
ATOM      1  C   UNL     1      48.615   4.389  18.055  0.00  0.00    +0.000 A 
ATOM      2  C   UNL     1      47.886   3.258  17.702  0.00  0.00    +0.000 A 
ATOM      3  C   UNL     1      47.274   3.216  16.452  0.00  0.00    +0.000 A 
ATOM      4  C   UNL     1      47.369   4.310  15.593  0.00  0.00    +0.000 A 
ATOM      5  N   UNL     1      46.670   4.240  14.392  0.00  0.00    +0.000 N 
ATOM      6  N   UNL     1      48.063   5.413  15.926  0.00  0.00    +0.000 NA
ATOM      7  C   UNL     1      48.672   5.433  17.141  0.00  0.00    +0.000 A 
ATOM      8  H   UNL     1      47.017   3.480  13.816  0.00  0.00    +0.000 HD
ENDROOT
BRANCH   1  10
ATOM      9  N   UNL     1      48.711   3.951  20.446  0.00  0.00    +0.000 N 
ATOM     10  C   UNL     1      49.294   4.538  19.360  0.00  0.00    +0.000 C 
ATOM     11  O   UNL     1      50.354   5.142  19.461  0.00  0.00    +0.000 OA
ATOM     12  H   UNL     1      49.231   3.991  21.313  0.00  0.00    +0.000 HD
ATOM     13  H   UNL     1      47.972   3.266  20.376  0.00  0.00    +0.000 HD
ENDBRANCH   1  10
BRANCH   5  14
ATOM     14  C   UNL     1      46.504   5.478  13.651  0.00  0.00    +0.000 C 
BRANCH  14  15
ATOM     15  C   UNL     1      45.411   5.222  12.637  0.00  0.00    +0.000 A 
ATOM     16  C   UNL     1      44.073   5.520  12.919  0.00  0.00    +0.000 A 
ATOM     17  C   UNL     1      43.095   5.375  11.932  0.00  0.00    +0.000 A 
ATOM     18  C   UNL     1      43.449   4.942  10.652  0.00  0.00    +0.000 A 
ATOM     19  C   UNL     1      44.784   4.648  10.341  0.00  0.00    +0.000 A 
ATOM     20  C   UNL     1      45.753   4.780  11.346  0.00  0.00    +0.000 A 
BRANCH  19  21
ATOM     21  C   UNL     1      45.193   4.220   8.954  0.00  0.00    +0.000 C 
ATOM     22  F   UNL     1      45.659   2.940   8.894  0.00  0.00    +0.000 F 
ATOM     23  F   UNL     1      44.162   4.279   8.064  0.00  0.00    +0.000 F 
ATOM     24  F   UNL     1      46.181   5.000   8.435  0.00  0.00    +0.000 F 
ENDBRANCH  19  21
ENDBRANCH  14  15
ENDBRANCH   5  14
TORSDOF 4
ENDMDL
MODEL 7
REMARK VINA RESULT:    -6.473      4.156      6.353
REMARK INTER + INTRA:          -8.622
REMARK INTER:                  -8.090
REMARK INTRA:                  -0.532
REMARK UNBOUND:                -0.636
REMARK  Name = 
REMARK  4 active torsions:
REMARK  status: ('A' for Active; 'I' for Inactive)
REMARK    1  A    between atoms: C_2  and  C_4
REMARK    2  A    between atoms: N_8  and  C_9
REMARK    3  A    between atoms: C_9  and  C_10
REMARK    4  A    between atoms: C_14  and  C_15
REMARK                            x       y       z     vdW  Elec       q    Type
REMARK                         _______ _______ _______ _____ _____    ______ ____
ROOT
ATOM      1  C   UNL     1      49.752   7.796  12.572  0.00  0.00    +0.000 A 
ATOM      2  C   UNL     1      49.499   7.302  13.847  0.00  0.00    +0.000 A 
ATOM      3  C   UNL     1      48.258   6.729  14.112  0.00  0.00    +0.000 A 
ATOM      4  C   UNL     1      47.283   6.688  13.116  0.00  0.00    +0.000 A 
ATOM      5  N   UNL     1      46.038   6.176  13.464  0.00  0.00    +0.000 N 
ATOM      6  N   UNL     1      47.512   7.170  11.881  0.00  0.00    +0.000 NA
ATOM      7  C   UNL     1      48.735   7.711  11.632  0.00  0.00    +0.000 A 
ATOM      8  H   UNL     1      46.112   5.201  13.737  0.00  0.00    +0.000 HD
ENDROOT
BRANCH   1  10
ATOM      9  N   UNL     1      52.146   8.085  12.899  0.00  0.00    +0.000 N 
ATOM     10  C   UNL     1      51.032   8.433  12.191  0.00  0.00    +0.000 C 
ATOM     11  O   UNL     1      51.097   9.223  11.257  0.00  0.00    +0.000 OA
ATOM     12  H   UNL     1      53.025   8.465  12.571  0.00  0.00    +0.000 HD
ATOM     13  H   UNL     1      52.184   7.287  13.516  0.00  0.00    +0.000 HD
ENDBRANCH   1  10
BRANCH   5  14
ATOM     14  C   UNL     1      44.941   6.422  12.544  0.00  0.00    +0.000 C 
BRANCH  14  15
ATOM     15  C   UNL     1      44.663   5.104  11.854  0.00  0.00    +0.000 A 
ATOM     16  C   UNL     1      43.791   4.162  12.411  0.00  0.00    +0.000 A 
ATOM     17  C   UNL     1      43.466   3.000  11.707  0.00  0.00    +0.000 A 
ATOM     18  C   UNL     1      44.002   2.776  10.437  0.00  0.00    +0.000 A 
ATOM     19  C   UNL     1      44.869   3.710   9.853  0.00  0.00    +0.000 A 
ATOM     20  C   UNL     1      45.201   4.864  10.578  0.00  0.00    +0.000 A 
BRANCH  19  21
ATOM     21  C   UNL     1      45.425   3.507   8.466  0.00  0.00    +0.000 C 
ATOM     22  F   UNL     1      46.294   4.485   8.080  0.00  0.00    +0.000 F 
ATOM     23  F   UNL     1      46.110   2.336   8.344  0.00  0.00    +0.000 F 
ATOM     24  F   UNL     1      44.454   3.475   7.512  0.00  0.00    +0.000 F 
ENDBRANCH  19  21
ENDBRANCH  14  15
ENDBRANCH   5  14
TORSDOF 4
ENDMDL
MODEL 8
REMARK VINA RESULT:    -6.279      3.887      6.575
REMARK INTER + INTRA:          -8.383
REMARK INTER:                  -7.883
REMARK INTRA:                  -0.500
REMARK UNBOUND:                -0.636
REMARK  Name = 
REMARK  4 active torsions:
REMARK  status: ('A' for Active; 'I' for Inactive)
REMARK    1  A    between atoms: C_2  and  C_4
REMARK    2  A    between atoms: N_8  and  C_9
REMARK    3  A    between atoms: C_9  and  C_10
REMARK    4  A    between atoms: C_14  and  C_15
REMARK                            x       y       z     vdW  Elec       q    Type
REMARK                         _______ _______ _______ _____ _____    ______ ____
ROOT
ATOM      1  C   UNL     1      46.718   6.919  12.739  0.00  0.00    +0.000 A 
ATOM      2  C   UNL     1      45.657   6.306  13.397  0.00  0.00    +0.000 A 
ATOM      3  C   UNL     1      44.817   5.460  12.678  0.00  0.00    +0.000 A 
ATOM      4  C   UNL     1      45.026   5.268  11.312  0.00  0.00    +0.000 A 
ATOM      5  N   UNL     1      44.107   4.476  10.632  0.00  0.00    +0.000 N 
ATOM      6  N   UNL     1      46.043   5.863  10.661  0.00  0.00    +0.000 NA
ATOM      7  C   UNL     1      46.866   6.671  11.381  0.00  0.00    +0.000 A 
ATOM      8  H   UNL     1      44.115   3.527  10.989  0.00  0.00    +0.000 HD
ENDROOT
BRANCH   1  10
ATOM      9  N   UNL     1      47.855   7.681  14.750  0.00  0.00    +0.000 N 
ATOM     10  C   UNL     1      47.660   7.841  13.408  0.00  0.00    +0.000 C 
ATOM     11  O   UNL     1      48.265   8.701  12.780  0.00  0.00    +0.000 OA
ATOM     12  H   UNL     1      48.566   8.264  15.174  0.00  0.00    +0.000 HD
ATOM     13  H   UNL     1      47.559   6.860  15.259  0.00  0.00    +0.000 HD
ENDBRANCH   1  10
BRANCH   5  14
ATOM     14  C   UNL     1      44.132   4.532   9.181  0.00  0.00    +0.000 C 
BRANCH  14  15
ATOM     15  C   UNL     1      44.958   3.349   8.725  0.00  0.00    +0.000 A 
ATOM     16  C   UNL     1      44.691   2.055   9.187  0.00  0.00    +0.000 A 
ATOM     17  C   UNL     1      45.396   0.964   8.673  0.00  0.00    +0.000 A 
ATOM     18  C   UNL     1      46.364   1.156   7.686  0.00  0.00    +0.000 A 
ATOM     19  C   UNL     1      46.642   2.441   7.199  0.00  0.00    +0.000 A 
ATOM     20  C   UNL     1      45.940   3.530   7.736  0.00  0.00    +0.000 A 
BRANCH  19  21
ATOM     21  C   UNL     1      47.654   2.665   6.103  0.00  0.00    +0.000 C 
ATOM     22  F   UNL     1      48.182   1.512   5.605  0.00  0.00    +0.000 F 
ATOM     23  F   UNL     1      47.127   3.323   5.032  0.00  0.00    +0.000 F 
ATOM     24  F   UNL     1      48.716   3.412   6.516  0.00  0.00    +0.000 F 
ENDBRANCH  19  21
ENDBRANCH  14  15
ENDBRANCH   5  14
TORSDOF 4
ENDMDL
MODEL 9
REMARK VINA RESULT:    -6.175      4.484      6.203
REMARK INTER + INTRA:          -8.255
REMARK INTER:                  -7.752
REMARK INTRA:                  -0.502
REMARK UNBOUND:                -0.636
REMARK  Name = 
REMARK  4 active torsions:
REMARK  status: ('A' for Active; 'I' for Inactive)
REMARK    1  A    between atoms: C_2  and  C_4
REMARK    2  A    between atoms: N_8  and  C_9
REMARK    3  A    between atoms: C_9  and  C_10
REMARK    4  A    between atoms: C_14  and  C_15
REMARK                            x       y       z     vdW  Elec       q    Type
REMARK                         _______ _______ _______ _____ _____    ______ ____
ROOT
ATOM      1  C   UNL     1      45.416   4.736  11.607  0.00  0.00    +0.000 A 
ATOM      2  C   UNL     1      45.953   5.965  11.976  0.00  0.00    +0.000 A 
ATOM      3  C   UNL     1      46.608   6.073  13.200  0.00  0.00    +0.000 A 
ATOM      4  C   UNL     1      46.686   4.968  14.047  0.00  0.00    +0.000 A 
ATOM      5  N   UNL     1      47.282   5.159  15.289  0.00  0.00    +0.000 N 
ATOM      6  N   UNL     1      46.163   3.776  13.707  0.00  0.00    +0.000 NA
ATOM      7  C   UNL     1      45.543   3.681  12.500  0.00  0.00    +0.000 A 
ATOM      8  H   UNL     1      48.256   5.423  15.186  0.00  0.00    +0.000 HD
ENDROOT
BRANCH   1  10
ATOM      9  N   UNL     1      45.191   5.119   9.215  0.00  0.00    +0.000 N 
ATOM     10  C   UNL     1      44.693   4.518  10.335  0.00  0.00    +0.000 C 
ATOM     11  O   UNL     1      43.700   3.803  10.281  0.00  0.00    +0.000 OA
ATOM     12  H   UNL     1      44.734   4.892   8.341  0.00  0.00    +0.000 HD
ATOM     13  H   UNL     1      46.114   5.525   9.167  0.00  0.00    +0.000 HD
ENDBRANCH   1  10
BRANCH   5  14
ATOM     14  C   UNL     1      47.083   4.120  16.284  0.00  0.00    +0.000 C 
BRANCH  14  15
ATOM     15  C   UNL     1      48.460   3.749  16.791  0.00  0.00    +0.000 A 
ATOM     16  C   UNL     1      48.852   2.412  16.917  0.00  0.00    +0.000 A 
ATOM     17  C   UNL     1      50.161   2.093  17.286  0.00  0.00    +0.000 A 
ATOM     18  C   UNL     1      51.092   3.108  17.518  0.00  0.00    +0.000 A 
ATOM     19  C   UNL     1      50.727   4.455  17.387  0.00  0.00    +0.000 A 
ATOM     20  C   UNL     1      49.404   4.762  17.035  0.00  0.00    +0.000 A 
BRANCH  19  21
ATOM     21  C   UNL     1      51.726   5.565  17.593  0.00  0.00    +0.000 C 
ATOM     22  F   UNL     1      51.318   6.506  18.491  0.00  0.00    +0.000 F 
ATOM     23  F   UNL     1      52.925   5.110  18.055  0.00  0.00    +0.000 F 
ATOM     24  F   UNL     1      52.001   6.243  16.444  0.00  0.00    +0.000 F 
ENDBRANCH  19  21
ENDBRANCH  14  15
ENDBRANCH   5  14
TORSDOF 4
ENDMDL
