MODEL 1
REMARK VINA RESULT:    -8.649      0.000      0.000
REMARK INTER + INTRA:         -10.740
REMARK INTER:                 -10.166
REMARK INTRA:                  -0.574
REMARK UNBOUND:                -0.574
REMARK  Name = 
REMARK  3 active torsions:
REMARK  status: ('A' for Active; 'I' for Inactive)
REMARK    1  A    between atoms: C_2  and  C_4
REMARK    2  A    between atoms: N_8  and  C_9
REMARK    3  A    between atoms: C_9  and  C_10
REMARK                            x       y       z     vdW  Elec       q    Type
REMARK                         _______ _______ _______ _____ _____    ______ ____
ROOT
ATOM      1  C   UNL     1      46.490   2.694   7.515  0.00  0.00    +0.000 A 
ATOM      2  C   UNL     1      46.080   4.019   7.623  0.00  0.00    +0.000 A 
ATOM      3  C   UNL     1      45.252   4.392   8.681  0.00  0.00    +0.000 A 
ATOM      4  C   UNL     1      44.836   3.441   9.602  0.00  0.00    +0.000 A 
ATOM      5  N   UNL     1      43.923   3.712  10.623  0.00  0.00    +0.000 N 
ATOM      6  N   UNL     1      45.223   2.151   9.503  0.00  0.00    +0.000 NA
ATOM      7  C   UNL     1      46.031   1.802   8.468  0.00  0.00    +0.000 A 
ATOM      8  H   UNL     1      43.854   2.849  11.161  0.00  0.00    +0.000 HD
ENDROOT
BRANCH   1  10
ATOM      9  N   UNL     1      47.503   3.040   5.335  0.00  0.00    +0.000 N 
ATOM     10  C   UNL     1      47.342   2.210   6.410  0.00  0.00    +0.000 C 
ATOM     11  O   UNL     1      47.899   1.121   6.460  0.00  0.00    +0.000 OA
ATOM     12  H   UNL     1      48.149   2.734   4.618  0.00  0.00    +0.000 HD
ATOM     13  H   UNL     1      47.266   4.022   5.361  0.00  0.00    +0.000 HD
ENDBRANCH   1  10
BRANCH   5  14
ATOM     14  C   UNL     1      43.869   4.962  11.400  0.00  0.00    +0.000 C 
ATOM     15  C   UNL     1      42.595   5.132  12.221  0.00  0.00    +0.000 C 
ATOM     16  C   UNL     1      42.892   6.086  11.115  0.00  0.00    +0.000 C 
BRANCH  14  17
ATOM     17  C   UNL     1      45.203   5.323  12.050  0.00  0.00    +0.000 A 
ATOM     18  C   UNL     1      46.006   6.364  11.549  0.00  0.00    +0.000 A 
ATOM     19  C   UNL     1      47.187   6.752  12.190  0.00  0.00    +0.000 A 
ATOM     20  C   UNL     1      47.594   6.106  13.357  0.00  0.00    +0.000 A 
ATOM     21 CL   UNL     1      49.034   6.668  14.128  0.00  0.00    +0.000 Cl
ATOM     22  C   UNL     1      46.829   5.054  13.864  0.00  0.00    +0.000 A 
ATOM     23 CL   UNL     1      47.268   4.198  15.300  0.00  0.00    +0.000 Cl
ATOM     24  C   UNL     1      45.651   4.669  13.212  0.00  0.00    +0.000 A 
ENDBRANCH  14  17
ENDBRANCH   5  14
TORSDOF 3
ENDMDL
MODEL 2
REMARK VINA RESULT:    -7.330      4.244      6.625
REMARK INTER + INTRA:          -9.190
REMARK INTER:                  -8.895
REMARK INTRA:                  -0.295
REMARK UNBOUND:                -0.574
REMARK  Name = 
REMARK  3 active torsions:
REMARK  status: ('A' for Active; 'I' for Inactive)
REMARK    1  A    between atoms: C_2  and  C_4
REMARK    2  A    between atoms: N_8  and  C_9
REMARK    3  A    between atoms: C_9  and  C_10
REMARK                            x       y       z     vdW  Elec       q    Type
REMARK                         _______ _______ _______ _____ _____    ______ ____
ROOT
ATOM      1  C   UNL     1      47.897   6.262  14.040  0.00  0.00    +0.000 A 
ATOM      2  C   UNL     1      47.095   5.143  14.240  0.00  0.00    +0.000 A 
ATOM      3  C   UNL     1      46.174   4.780  13.257  0.00  0.00    +0.000 A 
ATOM      4  C   UNL     1      46.059   5.542  12.103  0.00  0.00    +0.000 A 
ATOM      5  N   UNL     1      45.090   5.308  11.125  0.00  0.00    +0.000 N 
ATOM      6  N   UNL     1      46.828   6.633  11.902  0.00  0.00    +0.000 NA
ATOM      7  C   UNL     1      47.722   6.975  12.867  0.00  0.00    +0.000 A 
ATOM      8  H   UNL     1      45.283   5.982  10.386  0.00  0.00    +0.000 HD
ENDROOT
BRANCH   1  10
ATOM      9  N   UNL     1      48.448   6.820  16.339  0.00  0.00    +0.000 N 
ATOM     10  C   UNL     1      48.874   6.732  15.043  0.00  0.00    +0.000 C 
ATOM     11  O   UNL     1      50.026   7.011  14.733  0.00  0.00    +0.000 OA
ATOM     12  H   UNL     1      49.145   7.068  17.030  0.00  0.00    +0.000 HD
ATOM     13  H   UNL     1      47.601   6.379  16.668  0.00  0.00    +0.000 HD
ENDBRANCH   1  10
BRANCH   5  14
ATOM     14  C   UNL     1      44.639   3.977  10.682  0.00  0.00    +0.000 C 
ATOM     15  C   UNL     1      43.140   3.743  10.841  0.00  0.00    +0.000 C 
ATOM     16  C   UNL     1      44.103   2.917  11.624  0.00  0.00    +0.000 C 
BRANCH  14  17
ATOM     17  C   UNL     1      45.313   3.512   9.393  0.00  0.00    +0.000 A 
ATOM     18  C   UNL     1      45.773   4.431   8.432  0.00  0.00    +0.000 A 
ATOM     19  C   UNL     1      46.464   4.013   7.290  0.00  0.00    +0.000 A 
ATOM     20  C   UNL     1      46.718   2.658   7.084  0.00  0.00    +0.000 A 
ATOM     21 CL   UNL     1      47.622   2.212   5.681  0.00  0.00    +0.000 Cl
ATOM     22  C   UNL     1      46.254   1.721   8.010  0.00  0.00    +0.000 A 
ATOM     23 CL   UNL     1      46.521   0.023   7.824  0.00  0.00    +0.000 Cl
ATOM     24  C   UNL     1      45.557   2.149   9.147  0.00  0.00    +0.000 A 
ENDBRANCH  14  17
ENDBRANCH   5  14
TORSDOF 3
ENDMDL
MODEL 3
REMARK VINA RESULT:    -6.189      4.160      6.234
REMARK INTER + INTRA:          -7.849
REMARK INTER:                  -7.341
REMARK INTRA:                  -0.508
REMARK UNBOUND:                -0.574
REMARK  Name = 
REMARK  3 active torsions:
REMARK  status: ('A' for Active; 'I' for Inactive)
REMARK    1  A    between atoms: C_2  and  C_4
REMARK    2  A    between atoms: N_8  and  C_9
REMARK    3  A    between atoms: C_9  and  C_10
REMARK                            x       y       z     vdW  Elec       q    Type
REMARK                         _______ _______ _______ _____ _____    ______ ____
ROOT
ATOM      1  C   UNL     1      48.491   7.139  13.245  0.00  0.00    +0.000 A 
ATOM      2  C   UNL     1      47.659   6.206  13.857  0.00  0.00    +0.000 A 
ATOM      3  C   UNL     1      46.371   6.014  13.360  0.00  0.00    +0.000 A 
ATOM      4  C   UNL     1      45.929   6.760  12.276  0.00  0.00    +0.000 A 
ATOM      5  N   UNL     1      44.621   6.704  11.790  0.00  0.00    +0.000 N 
ATOM      6  N   UNL     1      46.727   7.671  11.679  0.00  0.00    +0.000 NA
ATOM      7  C   UNL     1      47.980   7.848  12.173  0.00  0.00    +0.000 A 
ATOM      8  H   UNL     1      44.610   7.311  10.971  0.00  0.00    +0.000 HD
ENDROOT
BRANCH   1  10
ATOM      9  N   UNL     1      50.802   7.734  12.787  0.00  0.00    +0.000 N 
ATOM     10  C   UNL     1      49.858   7.425  13.727  0.00  0.00    +0.000 C 
ATOM     11  O   UNL     1      50.133   7.407  14.921  0.00  0.00    +0.000 OA
ATOM     12  H   UNL     1      51.714   8.004  13.132  0.00  0.00    +0.000 HD
ATOM     13  H   UNL     1      50.566   7.993  11.840  0.00  0.00    +0.000 HD
ENDBRANCH   1  10
BRANCH   5  14
ATOM     14  C   UNL     1      43.805   5.481  11.697  0.00  0.00    +0.000 C 
ATOM     15  C   UNL     1      42.304   5.738  11.617  0.00  0.00    +0.000 C 
ATOM     16  C   UNL     1      42.866   5.013  12.792  0.00  0.00    +0.000 C 
BRANCH  14  17
ATOM     17  C   UNL     1      44.410   4.423  10.776  0.00  0.00    +0.000 A 
ATOM     18  C   UNL     1      44.125   3.056  10.941  0.00  0.00    +0.000 A 
ATOM     19  C   UNL     1      44.610   2.093  10.050  0.00  0.00    +0.000 A 
ATOM     20  C   UNL     1      45.395   2.479   8.963  0.00  0.00    +0.000 A 
ATOM     21 CL   UNL     1      45.919   1.247   7.870  0.00  0.00    +0.000 Cl
ATOM     22  C   UNL     1      45.713   3.827   8.788  0.00  0.00    +0.000 A 
ATOM     23 CL   UNL     1      46.685   4.386   7.472  0.00  0.00    +0.000 Cl
ATOM     24  C   UNL     1      45.227   4.783   9.689  0.00  0.00    +0.000 A 
ENDBRANCH  14  17
ENDBRANCH   5  14
TORSDOF 3
ENDMDL
MODEL 4
REMARK VINA RESULT:    -5.730      3.288      5.144
REMARK INTER + INTRA:          -7.309
REMARK INTER:                  -7.220
REMARK INTRA:                  -0.089
REMARK UNBOUND:                -0.574
REMARK  Name = 
REMARK  3 active torsions:
REMARK  status: ('A' for Active; 'I' for Inactive)
REMARK    1  A    between atoms: C_2  and  C_4
REMARK    2  A    between atoms: N_8  and  C_9
REMARK    3  A    between atoms: C_9  and  C_10
REMARK                            x       y       z     vdW  Elec       q    Type
REMARK                         _______ _______ _______ _____ _____    ______ ____
ROOT
ATOM      1  C   UNL     1      44.857   4.992  11.043  0.00  0.00    +0.000 A 
ATOM      2  C   UNL     1      45.900   5.789  10.582  0.00  0.00    +0.000 A 
ATOM      3  C   UNL     1      46.589   6.598  11.486  0.00  0.00    +0.000 A 
ATOM      4  C   UNL     1      46.220   6.610  12.823  0.00  0.00    +0.000 A 
ATOM      5  N   UNL     1      46.786   7.471  13.766  0.00  0.00    +0.000 N 
ATOM      6  N   UNL     1      45.205   5.845  13.279  0.00  0.00    +0.000 NA
ATOM      7  C   UNL     1      44.543   5.061  12.389  0.00  0.00    +0.000 A 
ATOM      8  H   UNL     1      46.360   7.216  14.656  0.00  0.00    +0.000 HD
ENDROOT
BRANCH   1  10
ATOM      9  N   UNL     1      44.096   4.411   8.810  0.00  0.00    +0.000 N 
ATOM     10  C   UNL     1      44.058   4.131  10.148  0.00  0.00    +0.000 C 
ATOM     11  O   UNL     1      43.404   3.189  10.581  0.00  0.00    +0.000 OA
ATOM     12  H   UNL     1      43.608   3.769   8.198  0.00  0.00    +0.000 HD
ATOM     13  H   UNL     1      44.796   5.010   8.396  0.00  0.00    +0.000 HD
ENDBRANCH   1  10
BRANCH   5  14
ATOM     14  C   UNL     1      48.209   7.850  13.818  0.00  0.00    +0.000 C 
ATOM     15  C   UNL     1      48.461   9.346  13.665  0.00  0.00    +0.000 C 
ATOM     16  C   UNL     1      48.974   8.403  12.631  0.00  0.00    +0.000 C 
BRANCH  14  17
ATOM     17  C   UNL     1      48.996   7.086  14.881  0.00  0.00    +0.000 A 
ATOM     18  C   UNL     1      50.359   7.345  15.113  0.00  0.00    +0.000 A 
ATOM     19  C   UNL     1      51.062   6.707  16.141  0.00  0.00    +0.000 A 
ATOM     20  C   UNL     1      50.412   5.793  16.969  0.00  0.00    +0.000 A 
ATOM     21 CL   UNL     1      51.323   5.080  18.252  0.00  0.00    +0.000 Cl
ATOM     22  C   UNL     1      49.065   5.500  16.748  0.00  0.00    +0.000 A 
ATOM     23 CL   UNL     1      48.189   4.373  17.724  0.00  0.00    +0.000 Cl
ATOM     24  C   UNL     1      48.371   6.139  15.712  0.00  0.00    +0.000 A 
ENDBRANCH  14  17
ENDBRANCH   5  14
TORSDOF 3
ENDMDL
