MODEL 1
REMARK VINA RESULT:    -8.238      0.000      0.000
REMARK INTER + INTRA:         -12.237
REMARK INTER:                 -11.127
REMARK INTRA:                  -1.110
REMARK UNBOUND:                -1.110
REMARK  Name = 
REMARK  7 active torsions:
REMARK  status: ('A' for Active; 'I' for Inactive)
REMARK    1  A    between atoms: C_1  and  C_2
REMARK    2  A    between atoms: C_6  and  C_7
REMARK    3  A    between atoms: N_9  and  C_10
REMARK    4  A    between atoms: C_10  and  C_11
REMARK    5  A    between atoms: C_14  and  C_15
REMARK    6  A    between atoms: C_15  and  N_16
REMARK    7  A    between atoms: C_17  and  C_19
REMARK                            x       y       z     vdW  Elec       q    Type
REMARK                         _______ _______ _______ _____ _____    ______ ____
ROOT
ATOM      1  C   UNL     1      45.277   6.638  11.398  0.00  0.00    +0.000 A 
ATOM      2  C   UNL     1      46.533   6.101  11.716  0.00  0.00    +0.000 A 
ATOM      3  C   UNL     1      47.384   6.743  12.630  0.00  0.00    +0.000 A 
ATOM      4  C   UNL     1      46.993   7.926  13.270  0.00  0.00    +0.000 A 
ATOM      5  C   UNL     1      45.749   8.478  12.934  0.00  0.00    +0.000 A 
ATOM      6  C   UNL     1      44.895   7.833  12.023  0.00  0.00    +0.000 A 
ENDROOT
BRANCH   1   7
ATOM      7  C   UNL     1      44.379   5.961  10.386  0.00  0.00    +0.000 C 
BRANCH   7  10
ATOM      8  C   UNL     1      44.884   3.775   9.335  0.00  0.00    +0.000 C 
ATOM      9  O   UNL     1      44.102   3.154  10.042  0.00  0.00    +0.000 OA
ATOM     10  N   UNL     1      45.094   5.141   9.436  0.00  0.00    +0.000 N 
ATOM     11  H   UNL     1      45.750   5.553   8.780  0.00  0.00    +0.000 HD
BRANCH   8  17
ATOM     12  C   UNL     1      46.765  -0.379   7.673  0.00  0.00    +0.000 C 
ATOM     13  C   UNL     1      46.594   1.098   7.482  0.00  0.00    +0.000 A 
ATOM     14  C   UNL     1      47.161   1.748   6.389  0.00  0.00    +0.000 A 
ATOM     15  C   UNL     1      46.982   3.122   6.255  0.00  0.00    +0.000 A 
ATOM     16  C   UNL     1      46.240   3.808   7.212  0.00  0.00    +0.000 A 
ATOM     17  C   UNL     1      45.703   3.088   8.272  0.00  0.00    +0.000 A 
ATOM     18  N   UNL     1      45.869   1.745   8.427  0.00  0.00    +0.000 NA
ENDBRANCH   8  17
ENDBRANCH   7  10
ENDBRANCH   1   7
BRANCH   4  19
ATOM     19  C   UNL     1      47.884   8.578  14.303  0.00  0.00    +0.000 C 
BRANCH  19  20
ATOM     20  N   UNL     1      48.148   7.717  15.429  0.00  0.00    +0.000 N 
ATOM     21  C   UNL     1      49.315   6.996  15.524  0.00  0.00    +0.000 C 
ATOM     22  O   UNL     1      50.215   7.091  14.693  0.00  0.00    +0.000 OA
ATOM     23  H   UNL     1      47.350   7.444  15.993  0.00  0.00    +0.000 HD
BRANCH  21  24
ATOM     24  C   UNL     1      49.460   6.141  16.710  0.00  0.00    +0.000 A 
ATOM     25  C   UNL     1      50.440   6.415  17.656  0.00  0.00    +0.000 A 
ATOM     26  S   UNL     1      50.438   5.331  18.975  0.00  0.00    +0.000 S 
ATOM     27  C   UNL     1      49.156   4.434  18.309  0.00  0.00    +0.000 A 
ATOM     28  N   UNL     1      48.670   3.330  18.939  0.00  0.00    +0.000 NA
ATOM     29  C   UNL     1      47.705   2.741  18.312  0.00  0.00    +0.000 A 
ATOM     30  N   UNL     1      47.181   3.157  17.118  0.00  0.00    +0.000 N 
ATOM     31  C   UNL     1      47.624   4.277  16.457  0.00  0.00    +0.000 A 
ATOM     32  O   UNL     1      47.102   4.647  15.411  0.00  0.00    +0.000 OA
ATOM     33  C   UNL     1      48.718   4.970  17.111  0.00  0.00    +0.000 A 
ATOM     34  H   UNL     1      46.413   2.666  16.687  0.00  0.00    +0.000 HD
ENDBRANCH  21  24
ENDBRANCH  19  20
ENDBRANCH   4  19
TORSDOF 6
ENDMDL
MODEL 2
REMARK VINA RESULT:    -7.343      4.921     10.193
REMARK INTER + INTRA:         -11.029
REMARK INTER:                 -10.214
REMARK INTRA:                  -0.814
REMARK UNBOUND:                -1.110
REMARK  Name = 
REMARK  7 active torsions:
REMARK  status: ('A' for Active; 'I' for Inactive)
REMARK    1  A    between atoms: C_1  and  C_2
REMARK    2  A    between atoms: C_6  and  C_7
REMARK    3  A    between atoms: N_9  and  C_10
REMARK    4  A    between atoms: C_10  and  C_11
REMARK    5  A    between atoms: C_14  and  C_15
REMARK    6  A    between atoms: C_15  and  N_16
REMARK    7  A    between atoms: C_17  and  C_19
REMARK                            x       y       z     vdW  Elec       q    Type
REMARK                         _______ _______ _______ _____ _____    ______ ____
ROOT
ATOM      1  C   UNL     1      51.404   3.264  17.845  0.00  0.00    +0.000 A 
ATOM      2  C   UNL     1      50.645   4.409  18.129  0.00  0.00    +0.000 A 
ATOM      3  C   UNL     1      49.278   4.468  17.814  0.00  0.00    +0.000 A 
ATOM      4  C   UNL     1      48.626   3.376  17.227  0.00  0.00    +0.000 A 
ATOM      5  C   UNL     1      49.388   2.240  16.919  0.00  0.00    +0.000 A 
ATOM      6  C   UNL     1      50.755   2.179  17.240  0.00  0.00    +0.000 A 
ENDROOT
BRANCH   1   7
ATOM      7  C   UNL     1      52.884   3.220  18.154  0.00  0.00    +0.000 C 
BRANCH   7  10
ATOM      8  C   UNL     1      54.202   1.126  18.282  0.00  0.00    +0.000 C 
ATOM      9  O   UNL     1      54.707   1.271  17.177  0.00  0.00    +0.000 OA
ATOM     10  N   UNL     1      53.296   2.016  18.837  0.00  0.00    +0.000 N 
ATOM     11  H   UNL     1      52.961   1.805  19.772  0.00  0.00    +0.000 HD
BRANCH   8  17
ATOM     12  C   UNL     1      53.303  -3.519  19.362  0.00  0.00    +0.000 C 
ATOM     13  C   UNL     1      54.097  -2.284  19.657  0.00  0.00    +0.000 A 
ATOM     14  C   UNL     1      55.061  -2.276  20.662  0.00  0.00    +0.000 A 
ATOM     15  C   UNL     1      55.771  -1.103  20.905  0.00  0.00    +0.000 A 
ATOM     16  C   UNL     1      55.504   0.026  20.137  0.00  0.00    +0.000 A 
ATOM     17  C   UNL     1      54.530  -0.062  19.150  0.00  0.00    +0.000 A 
ATOM     18  N   UNL     1      53.818  -1.196  18.897  0.00  0.00    +0.000 NA
ENDBRANCH   8  17
ENDBRANCH   7  10
ENDBRANCH   1   7
BRANCH   4  19
ATOM     19  C   UNL     1      47.140   3.418  16.951  0.00  0.00    +0.000 C 
BRANCH  19  20
ATOM     20  N   UNL     1      46.790   4.396  15.951  0.00  0.00    +0.000 N 
ATOM     21  C   UNL     1      46.927   4.131  14.608  0.00  0.00    +0.000 C 
ATOM     22  O   UNL     1      47.296   3.036  14.190  0.00  0.00    +0.000 OA
ATOM     23  H   UNL     1      46.712   5.359  16.260  0.00  0.00    +0.000 HD
BRANCH  21  24
ATOM     24  C   UNL     1      46.555   5.213  13.688  0.00  0.00    +0.000 A 
ATOM     25  C   UNL     1      47.453   6.237  13.410  0.00  0.00    +0.000 A 
ATOM     26  S   UNL     1      46.855   7.388  12.300  0.00  0.00    +0.000 S 
ATOM     27  C   UNL     1      45.361   6.583  12.183  0.00  0.00    +0.000 A 
ATOM     28  N   UNL     1      44.361   7.068  11.398  0.00  0.00    +0.000 NA
ATOM     29  C   UNL     1      43.280   6.361  11.416  0.00  0.00    +0.000 A 
ATOM     30  N   UNL     1      43.109   5.214  12.142  0.00  0.00    +0.000 N 
ATOM     31  C   UNL     1      44.096   4.675  12.932  0.00  0.00    +0.000 A 
ATOM     32  O   UNL     1      43.924   3.622  13.535  0.00  0.00    +0.000 OA
ATOM     33  C   UNL     1      45.329   5.438  12.960  0.00  0.00    +0.000 A 
ATOM     34  H   UNL     1      42.245   4.694  12.100  0.00  0.00    +0.000 HD
ENDBRANCH  21  24
ENDBRANCH  19  20
ENDBRANCH   4  19
TORSDOF 6
ENDMDL
MODEL 3
REMARK VINA RESULT:    -7.195      1.578      2.120
REMARK INTER + INTRA:         -10.829
REMARK INTER:                  -9.865
REMARK INTRA:                  -0.964
REMARK UNBOUND:                -1.110
REMARK  Name = 
REMARK  7 active torsions:
REMARK  status: ('A' for Active; 'I' for Inactive)
REMARK    1  A    between atoms: C_1  and  C_2
REMARK    2  A    between atoms: C_6  and  C_7
REMARK    3  A    between atoms: N_9  and  C_10
REMARK    4  A    between atoms: C_10  and  C_11
REMARK    5  A    between atoms: C_14  and  C_15
REMARK    6  A    between atoms: C_15  and  N_16
REMARK    7  A    between atoms: C_17  and  C_19
REMARK                            x       y       z     vdW  Elec       q    Type
REMARK                         _______ _______ _______ _____ _____    ______ ____
ROOT
ATOM      1  C   UNL     1      45.740   6.617  11.942  0.00  0.00    +0.000 A 
ATOM      2  C   UNL     1      45.732   7.972  12.302  0.00  0.00    +0.000 A 
ATOM      3  C   UNL     1      46.611   8.467  13.279  0.00  0.00    +0.000 A 
ATOM      4  C   UNL     1      47.537   7.625  13.908  0.00  0.00    +0.000 A 
ATOM      5  C   UNL     1      47.529   6.265  13.568  0.00  0.00    +0.000 A 
ATOM      6  C   UNL     1      46.654   5.771  12.586  0.00  0.00    +0.000 A 
ENDROOT
BRANCH   1   7
ATOM      7  C   UNL     1      44.767   6.083  10.915  0.00  0.00    +0.000 C 
BRANCH   7  10
ATOM      8  C   UNL     1      44.655   4.012   9.559  0.00  0.00    +0.000 C 
ATOM      9  O   UNL     1      43.510   3.745   9.899  0.00  0.00    +0.000 OA
ATOM     10  N   UNL     1      45.352   5.122  10.009  0.00  0.00    +0.000 N 
ATOM     11  H   UNL     1      46.288   5.255   9.640  0.00  0.00    +0.000 HD
BRANCH   8  17
ATOM     12  C   UNL     1      47.040   3.668   5.347  0.00  0.00    +0.000 C 
ATOM     13  C   UNL     1      46.561   2.980   6.588  0.00  0.00    +0.000 A 
ATOM     14  C   UNL     1      46.827   1.630   6.806  0.00  0.00    +0.000 A 
ATOM     15  C   UNL     1      46.356   1.030   7.971  0.00  0.00    +0.000 A 
ATOM     16  C   UNL     1      45.639   1.792   8.887  0.00  0.00    +0.000 A 
ATOM     17  C   UNL     1      45.418   3.134   8.601  0.00  0.00    +0.000 A 
ATOM     18  N   UNL     1      45.864   3.742   7.466  0.00  0.00    +0.000 NA
ENDBRANCH   8  17
ENDBRANCH   7  10
ENDBRANCH   1   7
BRANCH   4  19
ATOM     19  C   UNL     1      48.526   8.174  14.910  0.00  0.00    +0.000 C 
BRANCH  19  20
ATOM     20  N   UNL     1      49.400   7.157  15.442  0.00  0.00    +0.000 N 
ATOM     21  C   UNL     1      49.553   6.979  16.797  0.00  0.00    +0.000 C 
ATOM     22  O   UNL     1      48.915   7.629  17.621  0.00  0.00    +0.000 OA
ATOM     23  H   UNL     1      50.097   6.777  14.811  0.00  0.00    +0.000 HD
BRANCH  21  24
ATOM     24  C   UNL     1      50.485   5.922  17.215  0.00  0.00    +0.000 A 
ATOM     25  C   UNL     1      51.739   6.252  17.715  0.00  0.00    +0.000 A 
ATOM     26  S   UNL     1      52.669   4.897  18.173  0.00  0.00    +0.000 S 
ATOM     27  C   UNL     1      51.448   3.820  17.681  0.00  0.00    +0.000 A 
ATOM     28  N   UNL     1      51.617   2.474  17.779  0.00  0.00    +0.000 NA
ATOM     29  C   UNL     1      50.612   1.779  17.357  0.00  0.00    +0.000 A 
ATOM     30  N   UNL     1      49.456   2.307  16.850  0.00  0.00    +0.000 N 
ATOM     31  C   UNL     1      49.232   3.659  16.750  0.00  0.00    +0.000 A 
ATOM     32  O   UNL     1      48.167   4.099  16.333  0.00  0.00    +0.000 OA
ATOM     33  C   UNL     1      50.335   4.487  17.199  0.00  0.00    +0.000 A 
ATOM     34  H   UNL     1      48.697   1.712  16.553  0.00  0.00    +0.000 HD
ENDBRANCH  21  24
ENDBRANCH  19  20
ENDBRANCH   4  19
TORSDOF 6
ENDMDL
MODEL 4
REMARK VINA RESULT:    -7.105      5.101      9.956
REMARK INTER + INTRA:         -10.707
REMARK INTER:                  -9.654
REMARK INTRA:                  -1.053
REMARK UNBOUND:                -1.110
REMARK  Name = 
REMARK  7 active torsions:
REMARK  status: ('A' for Active; 'I' for Inactive)
REMARK    1  A    between atoms: C_1  and  C_2
REMARK    2  A    between atoms: C_6  and  C_7
REMARK    3  A    between atoms: N_9  and  C_10
REMARK    4  A    between atoms: C_10  and  C_11
REMARK    5  A    between atoms: C_14  and  C_15
REMARK    6  A    between atoms: C_15  and  N_16
REMARK    7  A    between atoms: C_17  and  C_19
REMARK                            x       y       z     vdW  Elec       q    Type
REMARK                         _______ _______ _______ _____ _____    ______ ____
ROOT
ATOM      1  C   UNL     1      51.362   2.694  17.751  0.00  0.00    +0.000 A 
ATOM      2  C   UNL     1      50.834   3.941  18.115  0.00  0.00    +0.000 A 
ATOM      3  C   UNL     1      49.511   4.288  17.798  0.00  0.00    +0.000 A 
ATOM      4  C   UNL     1      48.671   3.388  17.128  0.00  0.00    +0.000 A 
ATOM      5  C   UNL     1      49.205   2.151  16.741  0.00  0.00    +0.000 A 
ATOM      6  C   UNL     1      50.527   1.802  17.063  0.00  0.00    +0.000 A 
ENDROOT
BRANCH   1   7
ATOM      7  C   UNL     1      52.799   2.340  18.064  0.00  0.00    +0.000 C 
BRANCH   7  10
ATOM      8  C   UNL     1      54.220   0.312  17.984  0.00  0.00    +0.000 C 
ATOM      9  O   UNL     1      55.184   0.898  17.510  0.00  0.00    +0.000 OA
ATOM     10  N   UNL     1      53.014   0.928  18.277  0.00  0.00    +0.000 N 
ATOM     11  H   UNL     1      52.291   0.346  18.691  0.00  0.00    +0.000 HD
BRANCH   8  17
ATOM     12  C   UNL     1      52.727  -3.310  20.848  0.00  0.00    +0.000 C 
ATOM     13  C   UNL     1      53.544  -2.888  19.665  0.00  0.00    +0.000 A 
ATOM     14  C   UNL     1      54.273  -3.820  18.931  0.00  0.00    +0.000 A 
ATOM     15  C   UNL     1      55.024  -3.382  17.842  0.00  0.00    +0.000 A 
ATOM     16  C   UNL     1      55.022  -2.030  17.515  0.00  0.00    +0.000 A 
ATOM     17  C   UNL     1      54.266  -1.162  18.294  0.00  0.00    +0.000 A 
ATOM     18  N   UNL     1      53.529  -1.566  19.366  0.00  0.00    +0.000 NA
ENDBRANCH   8  17
ENDBRANCH   7  10
ENDBRANCH   1   7
BRANCH   4  19
ATOM     19  C   UNL     1      47.228   3.739  16.848  0.00  0.00    +0.000 C 
BRANCH  19  20
ATOM     20  N   UNL     1      47.087   4.694  15.777  0.00  0.00    +0.000 N 
ATOM     21  C   UNL     1      47.110   4.303  14.458  0.00  0.00    +0.000 C 
ATOM     22  O   UNL     1      47.191   3.124  14.125  0.00  0.00    +0.000 OA
ATOM     23  H   UNL     1      47.253   5.668  16.007  0.00  0.00    +0.000 HD
BRANCH  21  24
ATOM     24  C   UNL     1      46.975   5.371  13.459  0.00  0.00    +0.000 A 
ATOM     25  C   UNL     1      45.972   5.310  12.498  0.00  0.00    +0.000 A 
ATOM     26  S   UNL     1      45.956   6.650  11.442  0.00  0.00    +0.000 S 
ATOM     27  C   UNL     1      47.311   7.339  12.203  0.00  0.00    +0.000 A 
ATOM     28  N   UNL     1      47.843   8.512  11.763  0.00  0.00    +0.000 NA
ATOM     29  C   UNL     1      48.878   8.910  12.428  0.00  0.00    +0.000 A 
ATOM     30  N   UNL     1      49.425   8.245  13.492  0.00  0.00    +0.000 N 
ATOM     31  C   UNL     1      48.910   7.070  13.984  0.00  0.00    +0.000 A 
ATOM     32  O   UNL     1      49.399   6.524  14.967  0.00  0.00    +0.000 OA
ATOM     33  C   UNL     1      47.754   6.570  13.265  0.00  0.00    +0.000 A 
ATOM     34  H   UNL     1      50.223   8.617  13.984  0.00  0.00    +0.000 HD
ENDBRANCH  21  24
ENDBRANCH  19  20
ENDBRANCH   4  19
TORSDOF 6
ENDMDL
MODEL 5
REMARK VINA RESULT:    -6.872      2.276      3.321
REMARK INTER + INTRA:         -10.392
REMARK INTER:                  -9.459
REMARK INTRA:                  -0.933
REMARK UNBOUND:                -1.110
REMARK  Name = 
REMARK  7 active torsions:
REMARK  status: ('A' for Active; 'I' for Inactive)
REMARK    1  A    between atoms: C_1  and  C_2
REMARK    2  A    between atoms: C_6  and  C_7
REMARK    3  A    between atoms: N_9  and  C_10
REMARK    4  A    between atoms: C_10  and  C_11
REMARK    5  A    between atoms: C_14  and  C_15
REMARK    6  A    between atoms: C_15  and  N_16
REMARK    7  A    between atoms: C_17  and  C_19
REMARK                            x       y       z     vdW  Elec       q    Type
REMARK                         _______ _______ _______ _____ _____    ______ ____
ROOT
ATOM      1  C   UNL     1      46.214   7.114  12.305  0.00  0.00    +0.000 A 
ATOM      2  C   UNL     1      46.391   8.378  12.886  0.00  0.00    +0.000 A 
ATOM      3  C   UNL     1      47.250   8.559  13.982  0.00  0.00    +0.000 A 
ATOM      4  C   UNL     1      47.974   7.483  14.514  0.00  0.00    +0.000 A 
ATOM      5  C   UNL     1      47.779   6.214  13.951  0.00  0.00    +0.000 A 
ATOM      6  C   UNL     1      46.924   6.035  12.851  0.00  0.00    +0.000 A 
ENDROOT
BRANCH   1   7
ATOM      7  C   UNL     1      45.261   6.920  11.147  0.00  0.00    +0.000 C 
BRANCH   7  10
ATOM      8  C   UNL     1      44.640   4.832   9.968  0.00  0.00    +0.000 C 
ATOM      9  O   UNL     1      43.475   4.861  10.343  0.00  0.00    +0.000 OA
ATOM     10  N   UNL     1      45.584   5.785  10.316  0.00  0.00    +0.000 N 
ATOM     11  H   UNL     1      46.514   5.671   9.925  0.00  0.00    +0.000 HD
BRANCH   8  17
ATOM     12  C   UNL     1      46.847   3.635   5.815  0.00  0.00    +0.000 C 
ATOM     13  C   UNL     1      46.214   3.169   7.090  0.00  0.00    +0.000 A 
ATOM     14  C   UNL     1      46.132   1.812   7.393  0.00  0.00    +0.000 A 
ATOM     15  C   UNL     1      45.529   1.424   8.587  0.00  0.00    +0.000 A 
ATOM     16  C   UNL     1      45.031   2.398   9.446  0.00  0.00    +0.000 A 
ATOM     17  C   UNL     1      45.154   3.732   9.075  0.00  0.00    +0.000 A 
ATOM     18  N   UNL     1      45.734   4.136   7.911  0.00  0.00    +0.000 NA
ENDBRANCH   8  17
ENDBRANCH   7  10
ENDBRANCH   1   7
BRANCH   4  19
ATOM     19  C   UNL     1      48.948   7.694  15.651  0.00  0.00    +0.000 C 
BRANCH  19  20
ATOM     20  N   UNL     1      49.671   6.493  15.991  0.00  0.00    +0.000 N 
ATOM     21  C   UNL     1      49.305   5.712  17.062  0.00  0.00    +0.000 C 
ATOM     22  O   UNL     1      48.315   5.960  17.746  0.00  0.00    +0.000 OA
ATOM     23  H   UNL     1      50.603   6.395  15.603  0.00  0.00    +0.000 HD
BRANCH  21  24
ATOM     24  C   UNL     1      50.131   4.525  17.317  0.00  0.00    +0.000 A 
ATOM     25  C   UNL     1      49.584   3.253  17.200  0.00  0.00    +0.000 A 
ATOM     26  S   UNL     1      50.700   1.998  17.507  0.00  0.00    +0.000 S 
ATOM     27  C   UNL     1      51.941   3.109  17.847  0.00  0.00    +0.000 A 
ATOM     28  N   UNL     1      53.182   2.686  18.213  0.00  0.00    +0.000 NA
ATOM     29  C   UNL     1      54.020   3.640  18.454  0.00  0.00    +0.000 A 
ATOM     30  N   UNL     1      53.733   4.974  18.357  0.00  0.00    +0.000 N 
ATOM     31  C   UNL     1      52.502   5.448  17.972  0.00  0.00    +0.000 A 
ATOM     32  O   UNL     1      52.292   6.650  17.853  0.00  0.00    +0.000 OA
ATOM     33  C   UNL     1      51.517   4.419  17.703  0.00  0.00    +0.000 A 
ATOM     34  H   UNL     1      54.437   5.673  18.539  0.00  0.00    +0.000 HD
ENDBRANCH  21  24
ENDBRANCH  19  20
ENDBRANCH   4  19
TORSDOF 6
ENDMDL
MODEL 6
REMARK VINA RESULT:    -6.701      2.591      3.866
REMARK INTER + INTRA:         -10.162
REMARK INTER:                  -9.251
REMARK INTRA:                  -0.910
REMARK UNBOUND:                -1.110
REMARK  Name = 
REMARK  7 active torsions:
REMARK  status: ('A' for Active; 'I' for Inactive)
REMARK    1  A    between atoms: C_1  and  C_2
REMARK    2  A    between atoms: C_6  and  C_7
REMARK    3  A    between atoms: N_9  and  C_10
REMARK    4  A    between atoms: C_10  and  C_11
REMARK    5  A    between atoms: C_14  and  C_15
REMARK    6  A    between atoms: C_15  and  N_16
REMARK    7  A    between atoms: C_17  and  C_19
REMARK                            x       y       z     vdW  Elec       q    Type
REMARK                         _______ _______ _______ _____ _____    ______ ____
ROOT
ATOM      1  C   UNL     1      47.943   7.881  13.373  0.00  0.00    +0.000 A 
ATOM      2  C   UNL     1      48.568   6.734  13.883  0.00  0.00    +0.000 A 
ATOM      3  C   UNL     1      49.015   6.684  15.213  0.00  0.00    +0.000 A 
ATOM      4  C   UNL     1      48.830   7.771  16.077  0.00  0.00    +0.000 A 
ATOM      5  C   UNL     1      48.229   8.928  15.562  0.00  0.00    +0.000 A 
ATOM      6  C   UNL     1      47.775   8.976  14.233  0.00  0.00    +0.000 A 
ENDROOT
BRANCH   1   7
ATOM      7  C   UNL     1      47.494   7.942  11.930  0.00  0.00    +0.000 C 
BRANCH   7  10
ATOM      8  C   UNL     1      45.509   6.560  11.393  0.00  0.00    +0.000 C 
ATOM      9  O   UNL     1      44.708   7.419  11.735  0.00  0.00    +0.000 OA
ATOM     10  N   UNL     1      46.884   6.720  11.462  0.00  0.00    +0.000 N 
ATOM     11  H   UNL     1      47.452   5.947  11.127  0.00  0.00    +0.000 HD
BRANCH   8  17
ATOM     12  C   UNL     1      45.436   3.469   7.652  0.00  0.00    +0.000 C 
ATOM     13  C   UNL     1      45.030   3.753   9.066  0.00  0.00    +0.000 A 
ATOM     14  C   UNL     1      44.294   2.825   9.798  0.00  0.00    +0.000 A 
ATOM     15  C   UNL     1      43.933   3.133  11.107  0.00  0.00    +0.000 A 
ATOM     16  C   UNL     1      44.319   4.354  11.650  0.00  0.00    +0.000 A 
ATOM     17  C   UNL     1      45.056   5.226  10.858  0.00  0.00    +0.000 A 
ATOM     18  N   UNL     1      45.417   4.949   9.573  0.00  0.00    +0.000 NA
ENDBRANCH   8  17
ENDBRANCH   7  10
ENDBRANCH   1   7
BRANCH   4  19
ATOM     19  C   UNL     1      49.253   7.689  17.526  0.00  0.00    +0.000 C 
BRANCH  19  20
ATOM     20  N   UNL     1      50.275   6.697  17.750  0.00  0.00    +0.000 N 
ATOM     21  C   UNL     1      50.051   5.604  18.554  0.00  0.00    +0.000 C 
ATOM     22  O   UNL     1      48.960   5.383  19.073  0.00  0.00    +0.000 OA
ATOM     23  H   UNL     1      51.229   6.966  17.535  0.00  0.00    +0.000 HD
BRANCH  21  24
ATOM     24  C   UNL     1      51.176   4.673  18.719  0.00  0.00    +0.000 A 
ATOM     25  C   UNL     1      52.275   5.032  19.491  0.00  0.00    +0.000 A 
ATOM     26  S   UNL     1      53.468   3.816  19.588  0.00  0.00    +0.000 S 
ATOM     27  C   UNL     1      52.579   2.783  18.570  0.00  0.00    +0.000 A 
ATOM     28  N   UNL     1      53.059   1.559  18.220  0.00  0.00    +0.000 NA
ATOM     29  C   UNL     1      52.283   0.889  17.431  0.00  0.00    +0.000 A 
ATOM     30  N   UNL     1      51.074   1.330  16.966  0.00  0.00    +0.000 N 
ATOM     31  C   UNL     1      50.540   2.549  17.309  0.00  0.00    +0.000 A 
ATOM     32  O   UNL     1      49.434   2.893  16.910  0.00  0.00    +0.000 OA
ATOM     33  C   UNL     1      51.377   3.349  18.183  0.00  0.00    +0.000 A 
ATOM     34  H   UNL     1      50.504   0.752  16.368  0.00  0.00    +0.000 HD
ENDBRANCH  21  24
ENDBRANCH  19  20
ENDBRANCH   4  19
TORSDOF 6
ENDMDL
MODEL 7
REMARK VINA RESULT:    -6.563      1.598      2.487
REMARK INTER + INTRA:          -9.975
REMARK INTER:                  -9.345
REMARK INTRA:                  -0.630
REMARK UNBOUND:                -1.110
REMARK  Name = 
REMARK  7 active torsions:
REMARK  status: ('A' for Active; 'I' for Inactive)
REMARK    1  A    between atoms: C_1  and  C_2
REMARK    2  A    between atoms: C_6  and  C_7
REMARK    3  A    between atoms: N_9  and  C_10
REMARK    4  A    between atoms: C_10  and  C_11
REMARK    5  A    between atoms: C_14  and  C_15
REMARK    6  A    between atoms: C_15  and  N_16
REMARK    7  A    between atoms: C_17  and  C_19
REMARK                            x       y       z     vdW  Elec       q    Type
REMARK                         _______ _______ _______ _____ _____    ______ ____
ROOT
ATOM      1  C   UNL     1      46.561   7.767  12.190  0.00  0.00    +0.000 A 
ATOM      2  C   UNL     1      46.418   8.542  13.350  0.00  0.00    +0.000 A 
ATOM      3  C   UNL     1      47.527   8.855  14.153  0.00  0.00    +0.000 A 
ATOM      4  C   UNL     1      48.813   8.421  13.807  0.00  0.00    +0.000 A 
ATOM      5  C   UNL     1      48.954   7.624  12.662  0.00  0.00    +0.000 A 
ATOM      6  C   UNL     1      47.846   7.316  11.855  0.00  0.00    +0.000 A 
ENDROOT
BRANCH   1   7
ATOM      7  C   UNL     1      45.359   7.404  11.348  0.00  0.00    +0.000 C 
BRANCH   7  10
ATOM      8  C   UNL     1      44.545   5.241  10.455  0.00  0.00    +0.000 C 
ATOM      9  O   UNL     1      43.456   5.321  11.006  0.00  0.00    +0.000 OA
ATOM     10  N   UNL     1      45.539   6.200  10.571  0.00  0.00    +0.000 N 
ATOM     11  H   UNL     1      46.394   6.039  10.049  0.00  0.00    +0.000 HD
BRANCH   8  17
ATOM     12  C   UNL     1      46.711   3.661   6.409  0.00  0.00    +0.000 C 
ATOM     13  C   UNL     1      45.946   3.318   7.651  0.00  0.00    +0.000 A 
ATOM     14  C   UNL     1      45.617   1.997   7.945  0.00  0.00    +0.000 A 
ATOM     15  C   UNL     1      44.900   1.724   9.107  0.00  0.00    +0.000 A 
ATOM     16  C   UNL     1      44.536   2.774   9.944  0.00  0.00    +0.000 A 
ATOM     17  C   UNL     1      44.905   4.064   9.584  0.00  0.00    +0.000 A 
ATOM     18  N   UNL     1      45.601   4.357   8.450  0.00  0.00    +0.000 NA
ENDBRANCH   8  17
ENDBRANCH   7  10
ENDBRANCH   1   7
BRANCH   4  19
ATOM     19  C   UNL     1      50.013   8.815  14.638  0.00  0.00    +0.000 C 
BRANCH  19  20
ATOM     20  N   UNL     1      49.852   8.490  16.033  0.00  0.00    +0.000 N 
ATOM     21  C   UNL     1      50.182   7.249  16.524  0.00  0.00    +0.000 C 
ATOM     22  O   UNL     1      50.683   6.376  15.820  0.00  0.00    +0.000 OA
ATOM     23  H   UNL     1      49.239   9.090  16.575  0.00  0.00    +0.000 HD
BRANCH  21  24
ATOM     24  C   UNL     1      49.956   7.033  17.960  0.00  0.00    +0.000 A 
ATOM     25  C   UNL     1      50.255   8.036  18.874  0.00  0.00    +0.000 A 
ATOM     26  S   UNL     1      49.901   7.615  20.490  0.00  0.00    +0.000 S 
ATOM     27  C   UNL     1      49.376   6.064  20.031  0.00  0.00    +0.000 A 
ATOM     28  N   UNL     1      48.952   5.163  20.958  0.00  0.00    +0.000 NA
ATOM     29  C   UNL     1      48.595   4.022  20.466  0.00  0.00    +0.000 A 
ATOM     30  N   UNL     1      48.619   3.703  19.136  0.00  0.00    +0.000 N 
ATOM     31  C   UNL     1      49.019   4.586  18.162  0.00  0.00    +0.000 A 
ATOM     32  O   UNL     1      48.986   4.283  16.975  0.00  0.00    +0.000 OA
ATOM     33  C   UNL     1      49.445   5.880  18.660  0.00  0.00    +0.000 A 
ATOM     34  H   UNL     1      48.308   2.800  18.811  0.00  0.00    +0.000 HD
ENDBRANCH  21  24
ENDBRANCH  19  20
ENDBRANCH   4  19
TORSDOF 6
ENDMDL
MODEL 8
REMARK VINA RESULT:    -6.523      3.589      5.061
REMARK INTER + INTRA:          -9.921
REMARK INTER:                  -8.856
REMARK INTRA:                  -1.065
REMARK UNBOUND:                -1.110
REMARK  Name = 
REMARK  7 active torsions:
REMARK  status: ('A' for Active; 'I' for Inactive)
REMARK    1  A    between atoms: C_1  and  C_2
REMARK    2  A    between atoms: C_6  and  C_7
REMARK    3  A    between atoms: N_9  and  C_10
REMARK    4  A    between atoms: C_10  and  C_11
REMARK    5  A    between atoms: C_14  and  C_15
REMARK    6  A    between atoms: C_15  and  N_16
REMARK    7  A    between atoms: C_17  and  C_19
REMARK                            x       y       z     vdW  Elec       q    Type
REMARK                         _______ _______ _______ _____ _____    ______ ____
ROOT
ATOM      1  C   UNL     1      45.794   5.272  12.438  0.00  0.00    +0.000 A 
ATOM      2  C   UNL     1      46.380   4.626  13.536  0.00  0.00    +0.000 A 
ATOM      3  C   UNL     1      47.365   5.263  14.309  0.00  0.00    +0.000 A 
ATOM      4  C   UNL     1      47.773   6.572  14.019  0.00  0.00    +0.000 A 
ATOM      5  C   UNL     1      47.207   7.208  12.906  0.00  0.00    +0.000 A 
ATOM      6  C   UNL     1      46.218   6.574  12.136  0.00  0.00    +0.000 A 
ENDROOT
BRANCH   1   7
ATOM      7  C   UNL     1      44.760   4.567  11.587  0.00  0.00    +0.000 C 
BRANCH   7  10
ATOM      8  C   UNL     1      44.924   3.742   9.257  0.00  0.00    +0.000 C 
ATOM      9  O   UNL     1      44.050   4.488   8.837  0.00  0.00    +0.000 OA
ATOM     10  N   UNL     1      45.330   3.702  10.581  0.00  0.00    +0.000 N 
ATOM     11  H   UNL     1      46.082   3.060  10.810  0.00  0.00    +0.000 HD
BRANCH   8  17
ATOM     12  C   UNL     1      47.350   3.089   5.105  0.00  0.00    +0.000 C 
ATOM     13  C   UNL     1      46.809   2.480   6.363  0.00  0.00    +0.000 A 
ATOM     14  C   UNL     1      46.988   1.126   6.636  0.00  0.00    +0.000 A 
ATOM     15  C   UNL     1      46.463   0.602   7.814  0.00  0.00    +0.000 A 
ATOM     16  C   UNL     1      45.780   1.442   8.688  0.00  0.00    +0.000 A 
ATOM     17  C   UNL     1      45.647   2.783   8.347  0.00  0.00    +0.000 A 
ATOM     18  N   UNL     1      46.147   3.318   7.198  0.00  0.00    +0.000 NA
ENDBRANCH   8  17
ENDBRANCH   7  10
ENDBRANCH   1   7
BRANCH   4  19
ATOM     19  C   UNL     1      48.784   7.278  14.894  0.00  0.00    +0.000 C 
BRANCH  19  20
ATOM     20  N   UNL     1      50.055   7.459  14.237  0.00  0.00    +0.000 N 
ATOM     21  C   UNL     1      50.652   8.696  14.156  0.00  0.00    +0.000 C 
ATOM     22  O   UNL     1      50.170   9.693  14.686  0.00  0.00    +0.000 OA
ATOM     23  H   UNL     1      50.352   6.724  13.604  0.00  0.00    +0.000 HD
BRANCH  21  24
ATOM     24  C   UNL     1      51.937   8.755  13.446  0.00  0.00    +0.000 A 
ATOM     25  C   UNL     1      53.068   9.248  14.084  0.00  0.00    +0.000 A 
ATOM     26  S   UNL     1      54.471   9.214  13.112  0.00  0.00    +0.000 S 
ATOM     27  C   UNL     1      53.609   8.578  11.791  0.00  0.00    +0.000 A 
ATOM     28  N   UNL     1      54.226   8.329  10.604  0.00  0.00    +0.000 NA
ATOM     29  C   UNL     1      53.445   7.860   9.687  0.00  0.00    +0.000 A 
ATOM     30  N   UNL     1      52.109   7.613   9.850  0.00  0.00    +0.000 N 
ATOM     31  C   UNL     1      51.448   7.829  11.035  0.00  0.00    +0.000 A 
ATOM     32  O   UNL     1      50.260   7.556  11.160  0.00  0.00    +0.000 OA
ATOM     33  C   UNL     1      52.275   8.370  12.097  0.00  0.00    +0.000 A 
ATOM     34  H   UNL     1      51.555   7.227   9.100  0.00  0.00    +0.000 HD
ENDBRANCH  21  24
ENDBRANCH  19  20
ENDBRANCH   4  19
TORSDOF 6
ENDMDL
MODEL 9
REMARK VINA RESULT:    -6.467      3.422      9.928
REMARK INTER + INTRA:          -9.845
REMARK INTER:                  -8.940
REMARK INTRA:                  -0.905
REMARK UNBOUND:                -1.110
REMARK  Name = 
REMARK  7 active torsions:
REMARK  status: ('A' for Active; 'I' for Inactive)
REMARK    1  A    between atoms: C_1  and  C_2
REMARK    2  A    between atoms: C_6  and  C_7
REMARK    3  A    between atoms: N_9  and  C_10
REMARK    4  A    between atoms: C_10  and  C_11
REMARK    5  A    between atoms: C_14  and  C_15
REMARK    6  A    between atoms: C_15  and  N_16
REMARK    7  A    between atoms: C_17  and  C_19
REMARK                            x       y       z     vdW  Elec       q    Type
REMARK                         _______ _______ _______ _____ _____    ______ ____
ROOT
ATOM      1  C   UNL     1      46.796   7.170  13.196  0.00  0.00    +0.000 A 
ATOM      2  C   UNL     1      47.225   5.863  13.466  0.00  0.00    +0.000 A 
ATOM      3  C   UNL     1      46.442   4.755  13.105  0.00  0.00    +0.000 A 
ATOM      4  C   UNL     1      45.218   4.922  12.445  0.00  0.00    +0.000 A 
ATOM      5  C   UNL     1      44.775   6.229  12.198  0.00  0.00    +0.000 A 
ATOM      6  C   UNL     1      45.561   7.338  12.553  0.00  0.00    +0.000 A 
ENDROOT
BRANCH   1   7
ATOM      7  C   UNL     1      47.627   8.361  13.618  0.00  0.00    +0.000 C 
BRANCH   7  10
ATOM      8  C   UNL     1      48.433   8.384  15.961  0.00  0.00    +0.000 C 
ATOM      9  O   UNL     1      49.461   7.771  15.707  0.00  0.00    +0.000 OA
ATOM     10  N   UNL     1      47.476   8.708  15.012  0.00  0.00    +0.000 N 
ATOM     11  H   UNL     1      46.674   9.240  15.334  0.00  0.00    +0.000 HD
BRANCH   8  17
ATOM     12  C   UNL     1      47.854   7.187  20.628  0.00  0.00    +0.000 C 
ATOM     13  C   UNL     1      47.844   8.266  19.589  0.00  0.00    +0.000 A 
ATOM     14  C   UNL     1      47.563   9.586  19.932  0.00  0.00    +0.000 A 
ATOM     15  C   UNL     1      47.558  10.556  18.932  0.00  0.00    +0.000 A 
ATOM     16  C   UNL     1      47.839  10.183  17.622  0.00  0.00    +0.000 A 
ATOM     17  C   UNL     1      48.114   8.846  17.360  0.00  0.00    +0.000 A 
ATOM     18  N   UNL     1      48.119   7.879  18.319  0.00  0.00    +0.000 NA
ENDBRANCH   8  17
ENDBRANCH   7  10
ENDBRANCH   1   7
BRANCH   4  19
ATOM     19  C   UNL     1      44.409   3.725  11.999  0.00  0.00    +0.000 C 
BRANCH  19  20
ATOM     20  N   UNL     1      45.088   2.938  10.999  0.00  0.00    +0.000 N 
ATOM     21  C   UNL     1      44.751   3.023   9.668  0.00  0.00    +0.000 C 
ATOM     22  O   UNL     1      43.902   3.808   9.255  0.00  0.00    +0.000 OA
ATOM     23  H   UNL     1      45.611   2.134  11.327  0.00  0.00    +0.000 HD
BRANCH  21  24
ATOM     24  C   UNL     1      45.503   2.158   8.749  0.00  0.00    +0.000 A 
ATOM     25  C   UNL     1      45.364   0.777   8.815  0.00  0.00    +0.000 A 
ATOM     26  S   UNL     1      46.293  -0.060   7.653  0.00  0.00    +0.000 S 
ATOM     27  C   UNL     1      46.944   1.390   7.047  0.00  0.00    +0.000 A 
ATOM     28  N   UNL     1      47.851   1.383   6.033  0.00  0.00    +0.000 NA
ATOM     29  C   UNL     1      48.269   2.555   5.684  0.00  0.00    +0.000 A 
ATOM     30  N   UNL     1      47.861   3.731   6.253  0.00  0.00    +0.000 N 
ATOM     31  C   UNL     1      46.933   3.789   7.265  0.00  0.00    +0.000 A 
ATOM     32  O   UNL     1      46.556   4.862   7.722  0.00  0.00    +0.000 OA
ATOM     33  C   UNL     1      46.439   2.498   7.706  0.00  0.00    +0.000 A 
ATOM     34  H   UNL     1      48.210   4.618   5.924  0.00  0.00    +0.000 HD
ENDBRANCH  21  24
ENDBRANCH  19  20
ENDBRANCH   4  19
TORSDOF 6
ENDMDL
