MODEL 1
REMARK VINA RESULT:    -7.857      0.000      0.000
REMARK INTER + INTRA:         -12.192
REMARK INTER:                 -11.302
REMARK INTRA:                  -0.890
REMARK UNBOUND:                -0.890
REMARK  Name = 
REMARK  8 active torsions:
REMARK  status: ('A' for Active; 'I' for Inactive)
REMARK    1  A    between atoms: C_2  and  C_27
REMARK    2  A    between atoms: N_3  and  C_4
REMARK    3  A    between atoms: C_4  and  C_5
REMARK    4  A    between atoms: C_8  and  C_9
REMARK    5  A    between atoms: C_9  and  O_10
REMARK    6  A    between atoms: C_9  and  C_11
REMARK    7  A    between atoms: C_11  and  N_12
REMARK    8  A    between atoms: C_13  and  C_15
REMARK                            x       y       z     vdW  Elec       q    Type
REMARK                         _______ _______ _______ _____ _____    ______ ____
ROOT
ATOM      1  C   UNL     1      48.275   6.760  14.843  0.00  0.00    +0.000 C 
ENDROOT
BRANCH   1   5
ATOM      2  C   UNL     1      45.477   4.246  12.665  0.00  0.00    +0.000 A 
ATOM      3  C   UNL     1      46.435   3.685  13.519  0.00  0.00    +0.000 A 
ATOM      4  C   UNL     1      47.334   4.500  14.215  0.00  0.00    +0.000 A 
ATOM      5  C   UNL     1      47.284   5.896  14.088  0.00  0.00    +0.000 A 
ATOM      6  C   UNL     1      46.318   6.448  13.230  0.00  0.00    +0.000 A 
ATOM      7  C   UNL     1      45.418   5.636  12.540  0.00  0.00    +0.000 A 
BRANCH   2   8
ATOM      8  C   UNL     1      44.538   3.377  11.880  0.00  0.00    +0.000 C 
BRANCH   8  11
ATOM      9  O   UNL     1      44.568   4.506   9.390  0.00  0.00    +0.000 OA
ATOM     10  C   UNL     1      45.139   3.422   9.516  0.00  0.00    +0.000 C 
ATOM     11  N   UNL     1      45.172   2.776  10.732  0.00  0.00    +0.000 N 
ATOM     12  H   UNL     1      45.686   1.912  10.830  0.00  0.00    +0.000 HD
BRANCH  10  13
ATOM     13  C   UNL     1      45.815   2.772   8.404  0.00  0.00    +0.000 A 
ATOM     14  C   UNL     1      46.088   1.417   8.298  0.00  0.00    +0.000 A 
ATOM     15  C   UNL     1      46.786   1.087   7.099  0.00  0.00    +0.000 A 
ATOM     16  C   UNL     1      47.017   2.209   6.348  0.00  0.00    +0.000 A 
ATOM     17 CL   UNL     1      47.845   2.278   4.846  0.00  0.00    +0.000 Cl
ATOM     18  S   UNL     1      46.399   3.626   7.036  0.00  0.00    +0.000 S 
ENDBRANCH  10  13
ENDBRANCH   8  11
ENDBRANCH   2   8
ENDBRANCH   1   5
BRANCH   1  19
ATOM     19  O   UNL     1      47.906   8.130  14.668  0.00  0.00    +0.000 OA
ATOM     20  H   UNL     1      47.048   8.257  15.107  0.00  0.00    +0.000 HD
ENDBRANCH   1  19
BRANCH   1  21
ATOM     21  C   UNL     1      48.348   6.431  16.346  0.00  0.00    +0.000 C 
BRANCH  21  22
ATOM     22  N   UNL     1      49.594   5.815  16.749  0.00  0.00    +0.000 N 
ATOM     23  C   UNL     1      49.567   4.821  17.701  0.00  0.00    +0.000 C 
ATOM     24  O   UNL     1      48.511   4.383  18.151  0.00  0.00    +0.000 OA
ATOM     25  H   UNL     1      50.432   6.390  16.671  0.00  0.00    +0.000 HD
BRANCH  23  26
ATOM     26  C   UNL     1      50.856   4.261  18.107  0.00  0.00    +0.000 A 
ATOM     27  C   UNL     1      51.742   5.042  18.836  0.00  0.00    +0.000 A 
ATOM     28  S   UNL     1      53.168   4.220  19.275  0.00  0.00    +0.000 S 
ATOM     29  C   UNL     1      52.674   2.812  18.456  0.00  0.00    +0.000 A 
ATOM     30  N   UNL     1      53.467   1.708  18.419  0.00  0.00    +0.000 NA
ATOM     31  C   UNL     1      52.978   0.725  17.737  0.00  0.00    +0.000 A 
ATOM     32  N   UNL     1      51.766   0.745  17.094  0.00  0.00    +0.000 N 
ATOM     33  C   UNL     1      50.923   1.830  17.124  0.00  0.00    +0.000 A 
ATOM     34  O   UNL     1      49.835   1.814  16.563  0.00  0.00    +0.000 OA
ATOM     35  C   UNL     1      51.429   2.962  17.873  0.00  0.00    +0.000 A 
ATOM     36  H   UNL     1      51.439  -0.060  16.579  0.00  0.00    +0.000 HD
ENDBRANCH  23  26
ENDBRANCH  21  22
ENDBRANCH   1  21
TORSDOF 8
ENDMDL
MODEL 2
REMARK VINA RESULT:    -7.808      2.625      3.175
REMARK INTER + INTRA:         -12.122
REMARK INTER:                 -10.934
REMARK INTRA:                  -1.189
REMARK UNBOUND:                -0.890
REMARK  Name = 
REMARK  8 active torsions:
REMARK  status: ('A' for Active; 'I' for Inactive)
REMARK    1  A    between atoms: C_2  and  C_27
REMARK    2  A    between atoms: N_3  and  C_4
REMARK    3  A    between atoms: C_4  and  C_5
REMARK    4  A    between atoms: C_8  and  C_9
REMARK    5  A    between atoms: C_9  and  O_10
REMARK    6  A    between atoms: C_9  and  C_11
REMARK    7  A    between atoms: C_11  and  N_12
REMARK    8  A    between atoms: C_13  and  C_15
REMARK                            x       y       z     vdW  Elec       q    Type
REMARK                         _______ _______ _______ _____ _____    ______ ____
ROOT
ATOM      1  C   UNL     1      48.581   9.388  13.863  0.00  0.00    +0.000 C 
ENDROOT
BRANCH   1   5
ATOM      2  C   UNL     1      45.733   6.949  11.663  0.00  0.00    +0.000 A 
ATOM      3  C   UNL     1      45.300   7.993  12.490  0.00  0.00    +0.000 A 
ATOM      4  C   UNL     1      46.222   8.772  13.197  0.00  0.00    +0.000 A 
ATOM      5  C   UNL     1      47.600   8.538  13.079  0.00  0.00    +0.000 A 
ATOM      6  C   UNL     1      48.023   7.489  12.246  0.00  0.00    +0.000 A 
ATOM      7  C   UNL     1      47.105   6.716  11.537  0.00  0.00    +0.000 A 
BRANCH   2   8
ATOM      8  C   UNL     1      44.749   6.079  10.937  0.00  0.00    +0.000 C 
BRANCH   8  11
ATOM      9  O   UNL     1      44.003   3.495  10.447  0.00  0.00    +0.000 OA
ATOM     10  C   UNL     1      44.935   3.941   9.776  0.00  0.00    +0.000 C 
ATOM     11  N   UNL     1      45.382   5.231   9.956  0.00  0.00    +0.000 N 
ATOM     12  H   UNL     1      46.115   5.598   9.365  0.00  0.00    +0.000 HD
BRANCH  10  13
ATOM     13  C   UNL     1      45.603   3.146   8.757  0.00  0.00    +0.000 A 
ATOM     14  C   UNL     1      45.684   1.762   8.729  0.00  0.00    +0.000 A 
ATOM     15  C   UNL     1      46.428   1.277   7.614  0.00  0.00    +0.000 A 
ATOM     16  C   UNL     1      46.885   2.314   6.846  0.00  0.00    +0.000 A 
ATOM     17 CL   UNL     1      47.842   2.189   5.426  0.00  0.00    +0.000 Cl
ATOM     18  S   UNL     1      46.423   3.839   7.419  0.00  0.00    +0.000 S 
ENDBRANCH  10  13
ENDBRANCH   8  11
ENDBRANCH   2   8
ENDBRANCH   1   5
BRANCH   1  19
ATOM     19  O   UNL     1      47.888   9.976  14.966  0.00  0.00    +0.000 OA
ATOM     20  H   UNL     1      47.875  10.937  14.820  0.00  0.00    +0.000 HD
ENDBRANCH   1  19
BRANCH   1  21
ATOM     21  C   UNL     1      49.797   8.595  14.378  0.00  0.00    +0.000 C 
BRANCH  21  22
ATOM     22  N   UNL     1      49.475   7.642  15.418  0.00  0.00    +0.000 N 
ATOM     23  C   UNL     1      50.486   6.881  15.959  0.00  0.00    +0.000 C 
ATOM     24  O   UNL     1      51.663   7.050  15.648  0.00  0.00    +0.000 OA
ATOM     25  H   UNL     1      48.531   7.258  15.406  0.00  0.00    +0.000 HD
BRANCH  23  26
ATOM     26  C   UNL     1      50.103   5.902  16.976  0.00  0.00    +0.000 A 
ATOM     27  C   UNL     1      50.847   5.800  18.143  0.00  0.00    +0.000 A 
ATOM     28  S   UNL     1      50.232   4.653  19.243  0.00  0.00    +0.000 S 
ATOM     29  C   UNL     1      48.985   4.213  18.171  0.00  0.00    +0.000 A 
ATOM     30  N   UNL     1      48.091   3.241  18.495  0.00  0.00    +0.000 NA
ATOM     31  C   UNL     1      47.219   2.992  17.575  0.00  0.00    +0.000 A 
ATOM     32  N   UNL     1      47.157   3.630  16.362  0.00  0.00    +0.000 N 
ATOM     33  C   UNL     1      48.024   4.632  16.000  0.00  0.00    +0.000 A 
ATOM     34  O   UNL     1      47.932   5.203  14.922  0.00  0.00    +0.000 OA
ATOM     35  C   UNL     1      49.027   4.946  16.998  0.00  0.00    +0.000 A 
ATOM     36  H   UNL     1      46.446   3.389  15.686  0.00  0.00    +0.000 HD
ENDBRANCH  23  26
ENDBRANCH  21  22
ENDBRANCH   1  21
TORSDOF 8
ENDMDL
MODEL 3
REMARK VINA RESULT:    -7.631      4.024      9.983
REMARK INTER + INTRA:         -11.867
REMARK INTER:                 -10.901
REMARK INTRA:                  -0.966
REMARK UNBOUND:                -0.890
REMARK  Name = 
REMARK  8 active torsions:
REMARK  status: ('A' for Active; 'I' for Inactive)
REMARK    1  A    between atoms: C_2  and  C_27
REMARK    2  A    between atoms: N_3  and  C_4
REMARK    3  A    between atoms: C_4  and  C_5
REMARK    4  A    between atoms: C_8  and  C_9
REMARK    5  A    between atoms: C_9  and  O_10
REMARK    6  A    between atoms: C_9  and  C_11
REMARK    7  A    between atoms: C_11  and  N_12
REMARK    8  A    between atoms: C_13  and  C_15
REMARK                            x       y       z     vdW  Elec       q    Type
REMARK                         _______ _______ _______ _____ _____    ______ ____
ROOT
ATOM      1  C   UNL     1      47.981   3.551  16.845  0.00  0.00    +0.000 C 
ENDROOT
BRANCH   1   5
ATOM      2  C   UNL     1      52.054   2.474  17.919  0.00  0.00    +0.000 A 
ATOM      3  C   UNL     1      51.556   3.756  18.181  0.00  0.00    +0.000 A 
ATOM      4  C   UNL     1      50.244   4.097  17.831  0.00  0.00    +0.000 A 
ATOM      5  C   UNL     1      49.395   3.158  17.227  0.00  0.00    +0.000 A 
ATOM      6  C   UNL     1      49.906   1.874  16.970  0.00  0.00    +0.000 A 
ATOM      7  C   UNL     1      51.210   1.533  17.325  0.00  0.00    +0.000 A 
BRANCH   2   8
ATOM      8  C   UNL     1      53.473   2.114  18.250  0.00  0.00    +0.000 C 
BRANCH   8  11
ATOM      9  O   UNL     1      54.495  -0.045  19.579  0.00  0.00    +0.000 OA
ATOM     10  C   UNL     1      54.400  -0.140  18.355  0.00  0.00    +0.000 C 
ATOM     11  N   UNL     1      53.899   0.899  17.602  0.00  0.00    +0.000 N 
ATOM     12  H   UNL     1      53.781   0.787  16.604  0.00  0.00    +0.000 HD
BRANCH  10  13
ATOM     13  C   UNL     1      54.793  -1.345  17.641  0.00  0.00    +0.000 A 
ATOM     14  C   UNL     1      55.246  -1.404  16.332  0.00  0.00    +0.000 A 
ATOM     15  C   UNL     1      55.529  -2.735  15.906  0.00  0.00    +0.000 A 
ATOM     16  C   UNL     1      55.272  -3.631  16.910  0.00  0.00    +0.000 A 
ATOM     17 CL   UNL     1      55.449  -5.336  16.825  0.00  0.00    +0.000 Cl
ATOM     18  S   UNL     1      54.728  -2.909  18.341  0.00  0.00    +0.000 S 
ENDBRANCH  10  13
ENDBRANCH   8  11
ENDBRANCH   2   8
ENDBRANCH   1   5
BRANCH   1  19
ATOM     19  O   UNL     1      47.148   3.418  17.999  0.00  0.00    +0.000 OA
ATOM     20  H   UNL     1      47.274   2.518  18.345  0.00  0.00    +0.000 HD
ENDBRANCH   1  19
BRANCH   1  21
ATOM     21  C   UNL     1      47.877   4.986  16.293  0.00  0.00    +0.000 C 
BRANCH  21  22
ATOM     22  N   UNL     1      46.918   5.130  15.219  0.00  0.00    +0.000 N 
ATOM     23  C   UNL     1      47.315   5.736  14.049  0.00  0.00    +0.000 C 
ATOM     24  O   UNL     1      48.481   6.077  13.859  0.00  0.00    +0.000 OA
ATOM     25  H   UNL     1      45.937   5.194  15.491  0.00  0.00    +0.000 HD
BRANCH  23  26
ATOM     26  C   UNL     1      46.298   5.898  13.012  0.00  0.00    +0.000 A 
ATOM     27  C   UNL     1      45.935   7.173  12.602  0.00  0.00    +0.000 A 
ATOM     28  S   UNL     1      44.781   7.182  11.348  0.00  0.00    +0.000 S 
ATOM     29  C   UNL     1      44.686   5.482  11.351  0.00  0.00    +0.000 A 
ATOM     30  N   UNL     1      43.843   4.826  10.510  0.00  0.00    +0.000 NA
ATOM     31  C   UNL     1      43.853   3.540  10.643  0.00  0.00    +0.000 A 
ATOM     32  N   UNL     1      44.634   2.852  11.537  0.00  0.00    +0.000 N 
ATOM     33  C   UNL     1      45.516   3.472  12.390  0.00  0.00    +0.000 A 
ATOM     34  O   UNL     1      46.220   2.834  13.161  0.00  0.00    +0.000 OA
ATOM     35  C   UNL     1      45.537   4.917  12.283  0.00  0.00    +0.000 A 
ATOM     36  H   UNL     1      44.597   1.844  11.589  0.00  0.00    +0.000 HD
ENDBRANCH  23  26
ENDBRANCH  21  22
ENDBRANCH   1  21
TORSDOF 8
ENDMDL
MODEL 4
REMARK VINA RESULT:    -7.367      2.975      4.118
REMARK INTER + INTRA:         -11.487
REMARK INTER:                 -10.397
REMARK INTRA:                  -1.090
REMARK UNBOUND:                -0.890
REMARK  Name = 
REMARK  8 active torsions:
REMARK  status: ('A' for Active; 'I' for Inactive)
REMARK    1  A    between atoms: C_2  and  C_27
REMARK    2  A    between atoms: N_3  and  C_4
REMARK    3  A    between atoms: C_4  and  C_5
REMARK    4  A    between atoms: C_8  and  C_9
REMARK    5  A    between atoms: C_9  and  O_10
REMARK    6  A    between atoms: C_9  and  C_11
REMARK    7  A    between atoms: C_11  and  N_12
REMARK    8  A    between atoms: C_13  and  C_15
REMARK                            x       y       z     vdW  Elec       q    Type
REMARK                         _______ _______ _______ _____ _____    ______ ____
ROOT
ATOM      1  C   UNL     1      47.680   8.679  13.760  0.00  0.00    +0.000 C 
ENDROOT
BRANCH   1   5
ATOM      2  C   UNL     1      44.981   6.231  11.389  0.00  0.00    +0.000 A 
ATOM      3  C   UNL     1      46.015   5.649  12.131  0.00  0.00    +0.000 A 
ATOM      4  C   UNL     1      46.882   6.444  12.891  0.00  0.00    +0.000 A 
ATOM      5  C   UNL     1      46.722   7.836  12.940  0.00  0.00    +0.000 A 
ATOM      6  C   UNL     1      45.680   8.409  12.192  0.00  0.00    +0.000 A 
ATOM      7  C   UNL     1      44.812   7.617  11.440  0.00  0.00    +0.000 A 
BRANCH   2   8
ATOM      8  C   UNL     1      44.074   5.392  10.536  0.00  0.00    +0.000 C 
BRANCH   8  11
ATOM      9  O   UNL     1      44.735   2.740  10.607  0.00  0.00    +0.000 OA
ATOM     10  C   UNL     1      45.071   3.370   9.603  0.00  0.00    +0.000 C 
ATOM     11  N   UNL     1      44.784   4.712   9.481  0.00  0.00    +0.000 N 
ATOM     12  H   UNL     1      45.023   5.203   8.631  0.00  0.00    +0.000 HD
BRANCH  10  13
ATOM     13  C   UNL     1      45.771   2.740   8.495  0.00  0.00    +0.000 A 
ATOM     14  C   UNL     1      45.997   1.381   8.343  0.00  0.00    +0.000 A 
ATOM     15  C   UNL     1      46.735   1.073   7.163  0.00  0.00    +0.000 A 
ATOM     16  C   UNL     1      47.044   2.215   6.471  0.00  0.00    +0.000 A 
ATOM     17 CL   UNL     1      47.942   2.313   5.012  0.00  0.00    +0.000 Cl
ATOM     18  S   UNL     1      46.450   3.627   7.193  0.00  0.00    +0.000 S 
ENDBRANCH  10  13
ENDBRANCH   8  11
ENDBRANCH   2   8
ENDBRANCH   1   5
BRANCH   1  19
ATOM     19  O   UNL     1      47.004   9.106  14.945  0.00  0.00    +0.000 OA
ATOM     20  H   UNL     1      46.933  10.075  14.904  0.00  0.00    +0.000 HD
ENDBRANCH   1  19
BRANCH   1  21
ATOM     21  C   UNL     1      48.973   7.934  14.142  0.00  0.00    +0.000 C 
BRANCH  21  22
ATOM     22  N   UNL     1      49.154   7.771  15.568  0.00  0.00    +0.000 N 
ATOM     23  C   UNL     1      48.880   6.549  16.139  0.00  0.00    +0.000 C 
ATOM     24  O   UNL     1      48.572   5.572  15.461  0.00  0.00    +0.000 OA
ATOM     25  H   UNL     1      49.045   8.609  16.138  0.00  0.00    +0.000 HD
BRANCH  23  26
ATOM     26  C   UNL     1      49.037   6.449  17.589  0.00  0.00    +0.000 A 
ATOM     27  C   UNL     1      49.564   5.290  18.142  0.00  0.00    +0.000 A 
ATOM     28  S   UNL     1      49.731   5.361  19.836  0.00  0.00    +0.000 S 
ATOM     29  C   UNL     1      49.051   6.920  19.893  0.00  0.00    +0.000 A 
ATOM     30  N   UNL     1      48.879   7.567  21.076  0.00  0.00    +0.000 NA
ATOM     31  C   UNL     1      48.324   8.729  20.971  0.00  0.00    +0.000 A 
ATOM     32  N   UNL     1      47.930   9.304  19.789  0.00  0.00    +0.000 N 
ATOM     33  C   UNL     1      48.104   8.697  18.568  0.00  0.00    +0.000 A 
ATOM     34  O   UNL     1      47.766   9.241  17.526  0.00  0.00    +0.000 OA
ATOM     35  C   UNL     1      48.719   7.386  18.634  0.00  0.00    +0.000 A 
ATOM     36  H   UNL     1      47.503  10.219  19.775  0.00  0.00    +0.000 HD
ENDBRANCH  23  26
ENDBRANCH  21  22
ENDBRANCH   1  21
TORSDOF 8
ENDMDL
MODEL 5
REMARK VINA RESULT:    -7.099      2.529      2.922
REMARK INTER + INTRA:         -11.102
REMARK INTER:                 -10.095
REMARK INTRA:                  -1.007
REMARK UNBOUND:                -0.890
REMARK  Name = 
REMARK  8 active torsions:
REMARK  status: ('A' for Active; 'I' for Inactive)
REMARK    1  A    between atoms: C_2  and  C_27
REMARK    2  A    between atoms: N_3  and  C_4
REMARK    3  A    between atoms: C_4  and  C_5
REMARK    4  A    between atoms: C_8  and  C_9
REMARK    5  A    between atoms: C_9  and  O_10
REMARK    6  A    between atoms: C_9  and  C_11
REMARK    7  A    between atoms: C_11  and  N_12
REMARK    8  A    between atoms: C_13  and  C_15
REMARK                            x       y       z     vdW  Elec       q    Type
REMARK                         _______ _______ _______ _____ _____    ______ ____
ROOT
ATOM      1  C   UNL     1      47.894   8.757  14.023  0.00  0.00    +0.000 C 
ENDROOT
BRANCH   1   5
ATOM      2  C   UNL     1      45.278   6.301  11.568  0.00  0.00    +0.000 A 
ATOM      3  C   UNL     1      46.461   5.779  12.106  0.00  0.00    +0.000 A 
ATOM      4  C   UNL     1      47.299   6.576  12.893  0.00  0.00    +0.000 A 
ATOM      5  C   UNL     1      46.965   7.908  13.177  0.00  0.00    +0.000 A 
ATOM      6  C   UNL     1      45.776   8.422  12.633  0.00  0.00    +0.000 A 
ATOM      7  C   UNL     1      44.937   7.626  11.853  0.00  0.00    +0.000 A 
BRANCH   2   8
ATOM      8  C   UNL     1      44.396   5.467  10.686  0.00  0.00    +0.000 C 
BRANCH   8  11
ATOM      9  O   UNL     1      44.145   2.791  10.191  0.00  0.00    +0.000 OA
ATOM     10  C   UNL     1      44.943   3.414   9.489  0.00  0.00    +0.000 C 
ATOM     11  N   UNL     1      45.138   4.765   9.669  0.00  0.00    +0.000 N 
ATOM     12  H   UNL     1      45.760   5.271   9.053  0.00  0.00    +0.000 HD
BRANCH  10  13
ATOM     13  C   UNL     1      45.709   2.769   8.433  0.00  0.00    +0.000 A 
ATOM     14  C   UNL     1      46.015   1.420   8.358  0.00  0.00    +0.000 A 
ATOM     15  C   UNL     1      46.803   1.096   7.215  0.00  0.00    +0.000 A 
ATOM     16  C   UNL     1      47.066   2.217   6.473  0.00  0.00    +0.000 A 
ATOM     17 CL   UNL     1      47.998   2.292   5.034  0.00  0.00    +0.000 Cl
ATOM     18  S   UNL     1      46.374   3.627   7.105  0.00  0.00    +0.000 S 
ENDBRANCH  10  13
ENDBRANCH   8  11
ENDBRANCH   2   8
ENDBRANCH   1   5
BRANCH   1  19
ATOM     19  O   UNL     1      47.169   9.218  15.166  0.00  0.00    +0.000 OA
ATOM     20  H   UNL     1      47.220   8.521  15.841  0.00  0.00    +0.000 HD
ENDBRANCH   1  19
BRANCH   1  21
ATOM     21  C   UNL     1      49.159   8.006  14.479  0.00  0.00    +0.000 C 
BRANCH  21  22
ATOM     22  N   UNL     1      49.123   7.591  15.865  0.00  0.00    +0.000 N 
ATOM     23  C   UNL     1      50.296   7.577  16.586  0.00  0.00    +0.000 C 
ATOM     24  O   UNL     1      51.352   7.991  16.113  0.00  0.00    +0.000 OA
ATOM     25  H   UNL     1      48.385   6.936  16.125  0.00  0.00    +0.000 HD
BRANCH  23  26
ATOM     26  C   UNL     1      50.214   7.107  17.968  0.00  0.00    +0.000 A 
ATOM     27  C   UNL     1      50.729   7.893  18.989  0.00  0.00    +0.000 A 
ATOM     28  S   UNL     1      50.501   7.226  20.541  0.00  0.00    +0.000 S 
ATOM     29  C   UNL     1      49.760   5.837  19.895  0.00  0.00    +0.000 A 
ATOM     30  N   UNL     1      49.335   4.829  20.702  0.00  0.00    +0.000 NA
ATOM     31  C   UNL     1      48.819   3.825  20.072  0.00  0.00    +0.000 A 
ATOM     32  N   UNL     1      48.685   3.741  18.710  0.00  0.00    +0.000 N 
ATOM     33  C   UNL     1      49.079   4.744  17.857  0.00  0.00    +0.000 A 
ATOM     34  O   UNL     1      48.926   4.656  16.646  0.00  0.00    +0.000 OA
ATOM     35  C   UNL     1      49.670   5.892  18.515  0.00  0.00    +0.000 A 
ATOM     36  H   UNL     1      48.269   2.928  18.279  0.00  0.00    +0.000 HD
ENDBRANCH  23  26
ENDBRANCH  21  22
ENDBRANCH   1  21
TORSDOF 8
ENDMDL
MODEL 6
REMARK VINA RESULT:    -7.087      4.085      4.983
REMARK INTER + INTRA:         -11.085
REMARK INTER:                  -9.665
REMARK INTRA:                  -1.420
REMARK UNBOUND:                -0.890
REMARK  Name = 
REMARK  8 active torsions:
REMARK  status: ('A' for Active; 'I' for Inactive)
REMARK    1  A    between atoms: C_2  and  C_27
REMARK    2  A    between atoms: N_3  and  C_4
REMARK    3  A    between atoms: C_4  and  C_5
REMARK    4  A    between atoms: C_8  and  C_9
REMARK    5  A    between atoms: C_9  and  O_10
REMARK    6  A    between atoms: C_9  and  C_11
REMARK    7  A    between atoms: C_11  and  N_12
REMARK    8  A    between atoms: C_13  and  C_15
REMARK                            x       y       z     vdW  Elec       q    Type
REMARK                         _______ _______ _______ _____ _____    ______ ____
ROOT
ATOM      1  C   UNL     1      46.526   8.833  13.456  0.00  0.00    +0.000 C 
ENDROOT
BRANCH   1   5
ATOM      2  C   UNL     1      45.072   4.903  12.297  0.00  0.00    +0.000 A 
ATOM      3  C   UNL     1      44.373   6.063  11.941  0.00  0.00    +0.000 A 
ATOM      4  C   UNL     1      44.846   7.325  12.320  0.00  0.00    +0.000 A 
ATOM      5  C   UNL     1      46.038   7.457  13.046  0.00  0.00    +0.000 A 
ATOM      6  C   UNL     1      46.732   6.286  13.396  0.00  0.00    +0.000 A 
ATOM      7  C   UNL     1      46.265   5.029  13.014  0.00  0.00    +0.000 A 
BRANCH   2   8
ATOM      8  C   UNL     1      44.550   3.544  11.934  0.00  0.00    +0.000 C 
BRANCH   8  11
ATOM      9  O   UNL     1      44.032   4.102   9.308  0.00  0.00    +0.000 OA
ATOM     10  C   UNL     1      44.938   3.298   9.538  0.00  0.00    +0.000 C 
ATOM     11  N   UNL     1      45.267   2.954  10.831  0.00  0.00    +0.000 N 
ATOM     12  H   UNL     1      46.044   2.331  11.004  0.00  0.00    +0.000 HD
BRANCH  10  13
ATOM     13  C   UNL     1      45.713   2.683   8.472  0.00  0.00    +0.000 A 
ATOM     14  C   UNL     1      46.028   1.337   8.369  0.00  0.00    +0.000 A 
ATOM     15  C   UNL     1      46.823   1.044   7.222  0.00  0.00    +0.000 A 
ATOM     16  C   UNL     1      47.083   2.182   6.507  0.00  0.00    +0.000 A 
ATOM     17 CL   UNL     1      48.021   2.296   5.074  0.00  0.00    +0.000 Cl
ATOM     18  S   UNL     1      46.378   3.573   7.166  0.00  0.00    +0.000 S 
ENDBRANCH  10  13
ENDBRANCH   8  11
ENDBRANCH   2   8
ENDBRANCH   1   5
BRANCH   1  19
ATOM     19  O   UNL     1      47.367   8.691  14.603  0.00  0.00    +0.000 OA
ATOM     20  H   UNL     1      47.434   7.741  14.798  0.00  0.00    +0.000 HD
ENDBRANCH   1  19
BRANCH   1  21
ATOM     21  C   UNL     1      47.293   9.564  12.338  0.00  0.00    +0.000 C 
BRANCH  21  22
ATOM     22  N   UNL     1      48.732   9.510  12.485  0.00  0.00    +0.000 N 
ATOM     23  C   UNL     1      49.429   8.513  11.841  0.00  0.00    +0.000 C 
ATOM     24  O   UNL     1      48.877   7.726  11.077  0.00  0.00    +0.000 OA
ATOM     25  H   UNL     1      49.115   9.891  13.350  0.00  0.00    +0.000 HD
BRANCH  23  26
ATOM     26  C   UNL     1      50.875   8.475  12.057  0.00  0.00    +0.000 A 
ATOM     27  C   UNL     1      51.732   8.651  10.980  0.00  0.00    +0.000 A 
ATOM     28  S   UNL     1      53.380   8.635  11.414  0.00  0.00    +0.000 S 
ATOM     29  C   UNL     1      53.003   8.335  13.046  0.00  0.00    +0.000 A 
ATOM     30  N   UNL     1      53.984   8.184  13.976  0.00  0.00    +0.000 NA
ATOM     31  C   UNL     1      53.553   7.931  15.167  0.00  0.00    +0.000 A 
ATOM     32  N   UNL     1      52.231   7.820  15.514  0.00  0.00    +0.000 N 
ATOM     33  C   UNL     1      51.206   7.986  14.613  0.00  0.00    +0.000 A 
ATOM     34  O   UNL     1      50.033   7.907  14.953  0.00  0.00    +0.000 OA
ATOM     35  C   UNL     1      51.639   8.267  13.259  0.00  0.00    +0.000 A 
ATOM     36  H   UNL     1      51.959   7.623  16.467  0.00  0.00    +0.000 HD
ENDBRANCH  23  26
ENDBRANCH  21  22
ENDBRANCH   1  21
TORSDOF 8
ENDMDL
MODEL 7
REMARK VINA RESULT:    -6.837      3.609      9.409
REMARK INTER + INTRA:         -10.725
REMARK INTER:                 -10.361
REMARK INTRA:                  -0.364
REMARK UNBOUND:                -0.890
REMARK  Name = 
REMARK  8 active torsions:
REMARK  status: ('A' for Active; 'I' for Inactive)
REMARK    1  A    between atoms: C_2  and  C_27
REMARK    2  A    between atoms: N_3  and  C_4
REMARK    3  A    between atoms: C_4  and  C_5
REMARK    4  A    between atoms: C_8  and  C_9
REMARK    5  A    between atoms: C_9  and  O_10
REMARK    6  A    between atoms: C_9  and  C_11
REMARK    7  A    between atoms: C_11  and  N_12
REMARK    8  A    between atoms: C_13  and  C_15
REMARK                            x       y       z     vdW  Elec       q    Type
REMARK                         _______ _______ _______ _____ _____    ______ ____
ROOT
ATOM      1  C   UNL     1      48.624   7.821  12.704  0.00  0.00    +0.000 C 
ENDROOT
BRANCH   1   5
ATOM      2  C   UNL     1      48.683   5.546  16.408  0.00  0.00    +0.000 A 
ATOM      3  C   UNL     1      47.742   5.269  15.408  0.00  0.00    +0.000 A 
ATOM      4  C   UNL     1      47.728   6.007  14.219  0.00  0.00    +0.000 A 
ATOM      5  C   UNL     1      48.665   7.026  13.995  0.00  0.00    +0.000 A 
ATOM      6  C   UNL     1      49.604   7.294  15.004  0.00  0.00    +0.000 A 
ATOM      7  C   UNL     1      49.623   6.555  16.187  0.00  0.00    +0.000 A 
BRANCH   2   8
ATOM      8  C   UNL     1      48.677   4.789  17.704  0.00  0.00    +0.000 C 
BRANCH   8  11
ATOM      9  O   UNL     1      49.405   2.359  16.686  0.00  0.00    +0.000 OA
ATOM     10  C   UNL     1      50.223   2.924  17.414  0.00  0.00    +0.000 C 
ATOM     11  N   UNL     1      49.941   4.151  17.975  0.00  0.00    +0.000 N 
ATOM     12  H   UNL     1      50.641   4.623  18.530  0.00  0.00    +0.000 HD
BRANCH  10  13
ATOM     13  C   UNL     1      51.523   2.344  17.711  0.00  0.00    +0.000 A 
ATOM     14  C   UNL     1      51.900   1.031  17.476  0.00  0.00    +0.000 A 
ATOM     15  C   UNL     1      53.234   0.757  17.900  0.00  0.00    +0.000 A 
ATOM     16  C   UNL     1      53.810   1.874  18.444  0.00  0.00    +0.000 A 
ATOM     17 CL   UNL     1      55.391   1.988  19.102  0.00  0.00    +0.000 Cl
ATOM     18  S   UNL     1      52.800   3.232  18.433  0.00  0.00    +0.000 S 
ENDBRANCH  10  13
ENDBRANCH   8  11
ENDBRANCH   2   8
ENDBRANCH   1   5
BRANCH   1  19
ATOM     19  O   UNL     1      49.537   7.226  11.778  0.00  0.00    +0.000 OA
ATOM     20  H   UNL     1      49.686   6.310  12.067  0.00  0.00    +0.000 HD
ENDBRANCH   1  19
BRANCH   1  21
ATOM     21  C   UNL     1      47.219   7.890  12.076  0.00  0.00    +0.000 C 
BRANCH  21  22
ATOM     22  N   UNL     1      46.654   6.594  11.765  0.00  0.00    +0.000 N 
ATOM     23  C   UNL     1      45.292   6.484  11.602  0.00  0.00    +0.000 C 
ATOM     24  O   UNL     1      44.555   7.467  11.624  0.00  0.00    +0.000 OA
ATOM     25  H   UNL     1      47.171   5.781  12.100  0.00  0.00    +0.000 HD
BRANCH  23  26
ATOM     26  C   UNL     1      44.766   5.146  11.334  0.00  0.00    +0.000 A 
ATOM     27  C   UNL     1      44.021   4.496  12.307  0.00  0.00    +0.000 A 
ATOM     28  S   UNL     1      43.436   2.974  11.812  0.00  0.00    +0.000 S 
ATOM     29  C   UNL     1      44.210   3.108  10.301  0.00  0.00    +0.000 A 
ATOM     30  N   UNL     1      44.130   2.110   9.382  0.00  0.00    +0.000 NA
ATOM     31  C   UNL     1      44.790   2.335   8.294  0.00  0.00    +0.000 A 
ATOM     32  N   UNL     1      45.517   3.470   8.040  0.00  0.00    +0.000 N 
ATOM     33  C   UNL     1      45.607   4.514   8.930  0.00  0.00    +0.000 A 
ATOM     34  O   UNL     1      46.242   5.527   8.670  0.00  0.00    +0.000 OA
ATOM     35  C   UNL     1      44.887   4.307  10.171  0.00  0.00    +0.000 A 
ATOM     36  H   UNL     1      46.009   3.586   7.166  0.00  0.00    +0.000 HD
ENDBRANCH  23  26
ENDBRANCH  21  22
ENDBRANCH   1  21
TORSDOF 8
ENDMDL
MODEL 8
REMARK VINA RESULT:    -6.739      4.841      7.159
REMARK INTER + INTRA:         -10.584
REMARK INTER:                  -8.506
REMARK INTRA:                  -2.078
REMARK UNBOUND:                -0.890
REMARK  Name = 
REMARK  8 active torsions:
REMARK  status: ('A' for Active; 'I' for Inactive)
REMARK    1  A    between atoms: C_2  and  C_27
REMARK    2  A    between atoms: N_3  and  C_4
REMARK    3  A    between atoms: C_4  and  C_5
REMARK    4  A    between atoms: C_8  and  C_9
REMARK    5  A    between atoms: C_9  and  O_10
REMARK    6  A    between atoms: C_9  and  C_11
REMARK    7  A    between atoms: C_11  and  N_12
REMARK    8  A    between atoms: C_13  and  C_15
REMARK                            x       y       z     vdW  Elec       q    Type
REMARK                         _______ _______ _______ _____ _____    ______ ____
ROOT
ATOM      1  C   UNL     1      44.902   6.050  12.528  0.00  0.00    +0.000 C 
ENDROOT
BRANCH   1   5
ATOM      2  C   UNL     1      48.142   8.925  12.155  0.00  0.00    +0.000 A 
ATOM      3  C   UNL     1      48.256   7.638  11.615  0.00  0.00    +0.000 A 
ATOM      4  C   UNL     1      47.210   6.717  11.740  0.00  0.00    +0.000 A 
ATOM      5  C   UNL     1      46.019   7.068  12.393  0.00  0.00    +0.000 A 
ATOM      6  C   UNL     1      45.915   8.362  12.930  0.00  0.00    +0.000 A 
ATOM      7  C   UNL     1      46.955   9.282  12.799  0.00  0.00    +0.000 A 
BRANCH   2   8
ATOM      8  C   UNL     1      49.276   9.904  12.064  0.00  0.00    +0.000 C 
BRANCH   8  11
ATOM      9  O   UNL     1      50.348   9.600  14.560  0.00  0.00    +0.000 OA
ATOM     10  C   UNL     1      51.014   9.178  13.614  0.00  0.00    +0.000 C 
ATOM     11  N   UNL     1      50.556   9.291  12.320  0.00  0.00    +0.000 N 
ATOM     12  H   UNL     1      51.091   8.896  11.559  0.00  0.00    +0.000 HD
BRANCH  10  13
ATOM     13  C   UNL     1      52.303   8.532  13.805  0.00  0.00    +0.000 A 
ATOM     14  C   UNL     1      53.305   8.419  12.854  0.00  0.00    +0.000 A 
ATOM     15  C   UNL     1      54.444   7.708  13.334  0.00  0.00    +0.000 A 
ATOM     16  C   UNL     1      54.255   7.306  14.630  0.00  0.00    +0.000 A 
ATOM     17 CL   UNL     1      55.354   6.403  15.590  0.00  0.00    +0.000 Cl
ATOM     18  S   UNL     1      52.764   7.782  15.277  0.00  0.00    +0.000 S 
ENDBRANCH  10  13
ENDBRANCH   8  11
ENDBRANCH   2   8
ENDBRANCH   1   5
BRANCH   1  19
ATOM     19  O   UNL     1      44.353   5.807  11.230  0.00  0.00    +0.000 OA
ATOM     20  H   UNL     1      43.947   4.924  11.249  0.00  0.00    +0.000 HD
ENDBRANCH   1  19
BRANCH   1  21
ATOM     21  C   UNL     1      45.363   4.720  13.153  0.00  0.00    +0.000 C 
BRANCH  21  22
ATOM     22  N   UNL     1      46.022   4.873  14.432  0.00  0.00    +0.000 N 
ATOM     23  C   UNL     1      47.073   4.040  14.743  0.00  0.00    +0.000 C 
ATOM     24  O   UNL     1      47.522   3.233  13.933  0.00  0.00    +0.000 OA
ATOM     25  H   UNL     1      45.456   5.246  15.193  0.00  0.00    +0.000 HD
BRANCH  23  26
ATOM     26  C   UNL     1      47.676   4.205  16.065  0.00  0.00    +0.000 A 
ATOM     27  C   UNL     1      47.540   3.197  17.009  0.00  0.00    +0.000 A 
ATOM     28  S   UNL     1      48.350   3.524  18.473  0.00  0.00    +0.000 S 
ATOM     29  C   UNL     1      48.860   5.049  17.913  0.00  0.00    +0.000 A 
ATOM     30  N   UNL     1      49.593   5.877  18.704  0.00  0.00    +0.000 NA
ATOM     31  C   UNL     1      49.883   7.012  18.160  0.00  0.00    +0.000 A 
ATOM     32  N   UNL     1      49.511   7.393  16.896  0.00  0.00    +0.000 N 
ATOM     33  C   UNL     1      48.789   6.581  16.054  0.00  0.00    +0.000 A 
ATOM     34  O   UNL     1      48.490   6.934  14.921  0.00  0.00    +0.000 OA
ATOM     35  C   UNL     1      48.433   5.295  16.621  0.00  0.00    +0.000 A 
ATOM     36  H   UNL     1      49.772   8.296  16.528  0.00  0.00    +0.000 HD
ENDBRANCH  23  26
ENDBRANCH  21  22
ENDBRANCH   1  21
TORSDOF 8
ENDMDL
MODEL 9
REMARK VINA RESULT:    -6.545      4.230      9.120
REMARK INTER + INTRA:         -10.306
REMARK INTER:                  -9.138
REMARK INTRA:                  -1.168
REMARK UNBOUND:                -0.890
REMARK  Name = 
REMARK  8 active torsions:
REMARK  status: ('A' for Active; 'I' for Inactive)
REMARK    1  A    between atoms: C_2  and  C_27
REMARK    2  A    between atoms: N_3  and  C_4
REMARK    3  A    between atoms: C_4  and  C_5
REMARK    4  A    between atoms: C_8  and  C_9
REMARK    5  A    between atoms: C_9  and  O_10
REMARK    6  A    between atoms: C_9  and  C_11
REMARK    7  A    between atoms: C_11  and  N_12
REMARK    8  A    between atoms: C_13  and  C_15
REMARK                            x       y       z     vdW  Elec       q    Type
REMARK                         _______ _______ _______ _____ _____    ______ ____
ROOT
ATOM      1  C   UNL     1      49.260   9.933  13.756  0.00  0.00    +0.000 C 
ENDROOT
BRANCH   1   5
ATOM      2  C   UNL     1      49.007   7.131  17.069  0.00  0.00    +0.000 A 
ATOM      3  C   UNL     1      49.669   6.786  15.884  0.00  0.00    +0.000 A 
ATOM      4  C   UNL     1      49.745   7.693  14.821  0.00  0.00    +0.000 A 
ATOM      5  C   UNL     1      49.176   8.971  14.924  0.00  0.00    +0.000 A 
ATOM      6  C   UNL     1      48.515   9.305  16.118  0.00  0.00    +0.000 A 
ATOM      7  C   UNL     1      48.445   8.405  17.181  0.00  0.00    +0.000 A 
BRANCH   2   8
ATOM      8  C   UNL     1      48.882   6.149  18.198  0.00  0.00    +0.000 C 
BRANCH   8  11
ATOM      9  O   UNL     1      48.686   3.631  17.152  0.00  0.00    +0.000 OA
ATOM     10  C   UNL     1      49.766   3.940  17.659  0.00  0.00    +0.000 C 
ATOM     11  N   UNL     1      49.956   5.187  18.213  0.00  0.00    +0.000 N 
ATOM     12  H   UNL     1      50.862   5.443  18.581  0.00  0.00    +0.000 HD
BRANCH  10  13
ATOM     13  C   UNL     1      50.895   3.024  17.689  0.00  0.00    +0.000 A 
ATOM     14  C   UNL     1      50.866   1.685  17.333  0.00  0.00    +0.000 A 
ATOM     15  C   UNL     1      52.129   1.043  17.495  0.00  0.00    +0.000 A 
ATOM     16  C   UNL     1      53.063   1.924  17.973  0.00  0.00    +0.000 A 
ATOM     17 CL   UNL     1      54.703   1.573  18.337  0.00  0.00    +0.000 Cl
ATOM     18  S   UNL     1      52.463   3.490  18.205  0.00  0.00    +0.000 S 
ENDBRANCH  10  13
ENDBRANCH   8  11
ENDBRANCH   2   8
ENDBRANCH   1   5
BRANCH   1  19
ATOM     19  O   UNL     1      50.343   9.529  12.914  0.00  0.00    +0.000 OA
ATOM     20  H   UNL     1      51.148   9.530  13.459  0.00  0.00    +0.000 HD
ENDBRANCH   1  19
BRANCH   1  21
ATOM     21  C   UNL     1      47.961  10.003  12.931  0.00  0.00    +0.000 C 
BRANCH  21  22
ATOM     22  N   UNL     1      47.111   8.841  13.079  0.00  0.00    +0.000 N 
ATOM     23  C   UNL     1      47.324   7.754  12.263  0.00  0.00    +0.000 C 
ATOM     24  O   UNL     1      48.267   7.707  11.477  0.00  0.00    +0.000 OA
ATOM     25  H   UNL     1      46.169   9.009  13.429  0.00  0.00    +0.000 HD
BRANCH  23  26
ATOM     26  C   UNL     1      46.411   6.622  12.421  0.00  0.00    +0.000 A 
ATOM     27  C   UNL     1      46.879   5.437  12.970  0.00  0.00    +0.000 A 
ATOM     28  S   UNL     1      45.675   4.243  13.136  0.00  0.00    +0.000 S 
ATOM     29  C   UNL     1      44.501   5.250  12.426  0.00  0.00    +0.000 A 
ATOM     30  N   UNL     1      43.225   4.819  12.242  0.00  0.00    +0.000 NA
ATOM     31  C   UNL     1      42.451   5.678  11.665  0.00  0.00    +0.000 A 
ATOM     32  N   UNL     1      42.836   6.930  11.261  0.00  0.00    +0.000 N 
ATOM     33  C   UNL     1      44.108   7.417  11.446  0.00  0.00    +0.000 A 
ATOM     34  O   UNL     1      44.421   8.548  11.098  0.00  0.00    +0.000 OA
ATOM     35  C   UNL     1      45.018   6.487  12.085  0.00  0.00    +0.000 A 
ATOM     36  H   UNL     1      42.180   7.557  10.817  0.00  0.00    +0.000 HD
ENDBRANCH  23  26
ENDBRANCH  21  22
ENDBRANCH   1  21
TORSDOF 8
ENDMDL
