MODEL 1
REMARK VINA RESULT:    -8.241      0.000      0.000
REMARK INTER + INTRA:         -12.513
REMARK INTER:                 -11.614
REMARK INTRA:                  -0.900
REMARK UNBOUND:                -0.900
REMARK  Name = 
REMARK  7 active torsions:
REMARK  status: ('A' for Active; 'I' for Inactive)
REMARK    1  A    between atoms: C_2  and  C_19
REMARK    2  A    between atoms: N_3  and  C_4
REMARK    3  A    between atoms: C_4  and  C_5
REMARK    4  A    between atoms: C_8  and  C_9
REMARK    5  A    between atoms: C_9  and  N_10
REMARK    6  A    between atoms: N_10  and  C_11
REMARK    7  A    between atoms: C_11  and  C_12
REMARK                            x       y       z     vdW  Elec       q    Type
REMARK                         _______ _______ _______ _____ _____    ______ ____
ROOT
ATOM      1  C   UNL     1      46.523   7.875  12.883  0.00  0.00    +0.000 C 
ENDROOT
BRANCH   1   2
ATOM      2  C   UNL     1      45.828   6.767  12.152  0.00  0.00    +0.000 A 
ATOM      3  C   UNL     1      46.250   6.359  10.885  0.00  0.00    +0.000 A 
ATOM      4  C   UNL     1      45.614   5.296  10.251  0.00  0.00    +0.000 A 
ATOM      5  C   UNL     1      44.552   4.669  10.896  0.00  0.00    +0.000 A 
ATOM      6  N   UNL     1      44.094   5.073  12.110  0.00  0.00    +0.000 NA
ATOM      7  C   UNL     1      44.735   6.107  12.702  0.00  0.00    +0.000 A 
BRANCH   5   8
ATOM      8  C   UNL     1      43.839   3.504  10.238  0.00  0.00    +0.000 C 
BRANCH   8   9
ATOM      9  N   UNL     1      44.334   3.193   8.883  0.00  0.00    +0.000 NA
ATOM     10  H   UNL     1      45.110   3.840   8.721  0.00  0.00    +0.000 HD
BRANCH   9  11
ATOM     11  C   UNL     1      44.876   1.836   8.816  0.00  0.00    +0.000 C 
BRANCH  11  12
ATOM     12  C   UNL     1      46.120   1.841   8.012  0.00  0.00    +0.000 A 
ATOM     13  C   UNL     1      46.980   0.837   7.626  0.00  0.00    +0.000 A 
ATOM     14  N   UNL     1      48.010   1.338   6.873  0.00  0.00    +0.000 NA
ATOM     15  C   UNL     1      47.789   2.629   6.796  0.00  0.00    +0.000 A 
ATOM     16  N   UNL     1      46.651   2.980   7.457  0.00  0.00    +0.000 N 
ATOM     17  H   UNL     1      46.267   3.909   7.567  0.00  0.00    +0.000 HD
ENDBRANCH  11  12
ENDBRANCH   9  11
ENDBRANCH   8   9
ENDBRANCH   5   8
ENDBRANCH   1   2
BRANCH   1  20
ATOM     18  O   UNL     1      48.828   6.298  13.182  0.00  0.00    +0.000 OA
ATOM     19  C   UNL     1      48.234   6.673  14.190  0.00  0.00    +0.000 C 
ATOM     20  N   UNL     1      47.092   7.428  14.127  0.00  0.00    +0.000 N 
ATOM     21  H   UNL     1      46.728   7.850  14.975  0.00  0.00    +0.000 HD
BRANCH  19  22
ATOM     22  C   UNL     1      48.686   6.286  15.532  0.00  0.00    +0.000 A 
ATOM     23  C   UNL     1      49.574   7.103  16.219  0.00  0.00    +0.000 A 
ATOM     24  S   UNL     1      50.001   6.506  17.759  0.00  0.00    +0.000 S 
ATOM     25  C   UNL     1      48.982   5.155  17.577  0.00  0.00    +0.000 A 
ATOM     26  N   UNL     1      48.848   4.241  18.576  0.00  0.00    +0.000 NA
ATOM     27  C   UNL     1      48.009   3.294  18.323  0.00  0.00    +0.000 A 
ATOM     28  N   UNL     1      47.305   3.165  17.154  0.00  0.00    +0.000 N 
ATOM     29  C   UNL     1      47.470   4.018  16.087  0.00  0.00    +0.000 A 
ATOM     30  O   UNL     1      46.936   3.797  15.005  0.00  0.00    +0.000 OA
ATOM     31  C   UNL     1      48.354   5.139  16.345  0.00  0.00    +0.000 A 
ATOM     32  H   UNL     1      46.690   2.378  17.007  0.00  0.00    +0.000 HD
ENDBRANCH  19  22
ENDBRANCH   1  20
TORSDOF 7
ENDMDL
MODEL 2
REMARK VINA RESULT:    -7.570      1.752      2.129
REMARK INTER + INTRA:         -11.568
REMARK INTER:                 -10.683
REMARK INTRA:                  -0.885
REMARK UNBOUND:                -0.900
REMARK  Name = 
REMARK  7 active torsions:
REMARK  status: ('A' for Active; 'I' for Inactive)
REMARK    1  A    between atoms: C_2  and  C_19
REMARK    2  A    between atoms: N_3  and  C_4
REMARK    3  A    between atoms: C_4  and  C_5
REMARK    4  A    between atoms: C_8  and  C_9
REMARK    5  A    between atoms: C_9  and  N_10
REMARK    6  A    between atoms: N_10  and  C_11
REMARK    7  A    between atoms: C_11  and  C_12
REMARK                            x       y       z     vdW  Elec       q    Type
REMARK                         _______ _______ _______ _____ _____    ______ ____
ROOT
ATOM      1  C   UNL     1      47.969   6.360  13.534  0.00  0.00    +0.000 C 
ENDROOT
BRANCH   1   2
ATOM      2  C   UNL     1      46.809   5.592  12.976  0.00  0.00    +0.000 A 
ATOM      3  C   UNL     1      46.067   6.083  11.900  0.00  0.00    +0.000 A 
ATOM      4  C   UNL     1      45.025   5.326  11.373  0.00  0.00    +0.000 A 
ATOM      5  C   UNL     1      44.736   4.092  11.947  0.00  0.00    +0.000 A 
ATOM      6  N   UNL     1      45.415   3.608  13.021  0.00  0.00    +0.000 NA
ATOM      7  C   UNL     1      46.425   4.366  13.508  0.00  0.00    +0.000 A 
BRANCH   5   8
ATOM      8  C   UNL     1      43.612   3.236  11.396  0.00  0.00    +0.000 C 
BRANCH   8   9
ATOM      9  N   UNL     1      43.644   3.087   9.928  0.00  0.00    +0.000 NA
ATOM     10  H   UNL     1      43.991   3.981   9.570  0.00  0.00    +0.000 HD
BRANCH   9  11
ATOM     11  C   UNL     1      44.599   2.055   9.522  0.00  0.00    +0.000 C 
BRANCH  11  12
ATOM     12  C   UNL     1      45.509   2.604   8.490  0.00  0.00    +0.000 A 
ATOM     13  C   UNL     1      45.628   3.856   7.929  0.00  0.00    +0.000 A 
ATOM     14  N   UNL     1      46.636   3.881   7.000  0.00  0.00    +0.000 NA
ATOM     15  C   UNL     1      47.130   2.666   6.990  0.00  0.00    +0.000 A 
ATOM     16  N   UNL     1      46.491   1.860   7.883  0.00  0.00    +0.000 N 
ATOM     17  H   UNL     1      46.664   0.879   8.057  0.00  0.00    +0.000 HD
ENDBRANCH  11  12
ENDBRANCH   9  11
ENDBRANCH   8   9
ENDBRANCH   5   8
ENDBRANCH   1   2
BRANCH   1  20
ATOM     18  O   UNL     1      50.144   6.633  15.289  0.00  0.00    +0.000 OA
ATOM     19  C   UNL     1      49.007   6.630  15.754  0.00  0.00    +0.000 C 
ATOM     20  N   UNL     1      47.896   6.482  14.966  0.00  0.00    +0.000 N 
ATOM     21  H   UNL     1      46.978   6.647  15.366  0.00  0.00    +0.000 HD
BRANCH  19  22
ATOM     22  C   UNL     1      48.773   6.733  17.199  0.00  0.00    +0.000 A 
ATOM     23  C   UNL     1      48.374   7.945  17.746  0.00  0.00    +0.000 A 
ATOM     24  S   UNL     1      48.151   7.893  19.436  0.00  0.00    +0.000 S 
ATOM     25  C   UNL     1      48.539   6.238  19.491  0.00  0.00    +0.000 A 
ATOM     26  N   UNL     1      48.500   5.549  20.663  0.00  0.00    +0.000 NA
ATOM     27  C   UNL     1      48.772   4.292  20.553  0.00  0.00    +0.000 A 
ATOM     28  N   UNL     1      49.100   3.663  19.380  0.00  0.00    +0.000 N 
ATOM     29  C   UNL     1      49.231   4.336  18.186  0.00  0.00    +0.000 A 
ATOM     30  O   UNL     1      49.664   3.776  17.184  0.00  0.00    +0.000 OA
ATOM     31  C   UNL     1      48.872   5.740  18.244  0.00  0.00    +0.000 A 
ATOM     32  H   UNL     1      49.337   2.683  19.370  0.00  0.00    +0.000 HD
ENDBRANCH  19  22
ENDBRANCH   1  20
TORSDOF 7
ENDMDL
MODEL 3
REMARK VINA RESULT:    -7.535      2.085      2.619
REMARK INTER + INTRA:         -11.519
REMARK INTER:                 -10.724
REMARK INTRA:                  -0.795
REMARK UNBOUND:                -0.900
REMARK  Name = 
REMARK  7 active torsions:
REMARK  status: ('A' for Active; 'I' for Inactive)
REMARK    1  A    between atoms: C_2  and  C_19
REMARK    2  A    between atoms: N_3  and  C_4
REMARK    3  A    between atoms: C_4  and  C_5
REMARK    4  A    between atoms: C_8  and  C_9
REMARK    5  A    between atoms: C_9  and  N_10
REMARK    6  A    between atoms: N_10  and  C_11
REMARK    7  A    between atoms: C_11  and  C_12
REMARK                            x       y       z     vdW  Elec       q    Type
REMARK                         _______ _______ _______ _____ _____    ______ ____
ROOT
ATOM      1  C   UNL     1      47.746   6.629  13.501  0.00  0.00    +0.000 C 
ENDROOT
BRANCH   1   2
ATOM      2  C   UNL     1      46.769   5.840  12.684  0.00  0.00    +0.000 A 
ATOM      3  C   UNL     1      46.209   4.656  13.171  0.00  0.00    +0.000 A 
ATOM      4  C   UNL     1      45.268   3.970  12.409  0.00  0.00    +0.000 A 
ATOM      5  C   UNL     1      44.917   4.476  11.161  0.00  0.00    +0.000 A 
ATOM      6  N   UNL     1      45.477   5.602  10.645  0.00  0.00    +0.000 NA
ATOM      7  C   UNL     1      46.386   6.249  11.412  0.00  0.00    +0.000 A 
BRANCH   5   8
ATOM      8  C   UNL     1      43.892   3.757  10.306  0.00  0.00    +0.000 C 
BRANCH   8   9
ATOM      9  N   UNL     1      44.397   3.367   8.976  0.00  0.00    +0.000 NA
ATOM     10  H   UNL     1      45.191   3.987   8.792  0.00  0.00    +0.000 HD
BRANCH   9  11
ATOM     11  C   UNL     1      44.907   1.996   8.985  0.00  0.00    +0.000 C 
BRANCH  11  12
ATOM     12  C   UNL     1      46.102   1.908   8.114  0.00  0.00    +0.000 A 
ATOM     13  C   UNL     1      46.871   0.844   7.697  0.00  0.00    +0.000 A 
ATOM     14  N   UNL     1      47.889   1.267   6.882  0.00  0.00    +0.000 NA
ATOM     15  C   UNL     1      47.750   2.569   6.799  0.00  0.00    +0.000 A 
ATOM     16  N   UNL     1      46.676   3.003   7.515  0.00  0.00    +0.000 N 
ATOM     17  H   UNL     1      46.361   3.957   7.631  0.00  0.00    +0.000 HD
ENDBRANCH  11  12
ENDBRANCH   9  11
ENDBRANCH   8   9
ENDBRANCH   5   8
ENDBRANCH   1   2
BRANCH   1  20
ATOM     18  O   UNL     1      49.931   6.687  15.265  0.00  0.00    +0.000 OA
ATOM     19  C   UNL     1      48.839   6.314  15.688  0.00  0.00    +0.000 C 
ATOM     20  N   UNL     1      47.731   6.239  14.886  0.00  0.00    +0.000 N 
ATOM     21  H   UNL     1      46.821   6.084  15.309  0.00  0.00    +0.000 HD
BRANCH  19  22
ATOM     22  C   UNL     1      48.669   5.872  17.078  0.00  0.00    +0.000 A 
ATOM     23  C   UNL     1      48.876   4.538  17.404  0.00  0.00    +0.000 A 
ATOM     24  S   UNL     1      48.632   4.193  19.057  0.00  0.00    +0.000 S 
ATOM     25  C   UNL     1      48.283   5.822  19.401  0.00  0.00    +0.000 A 
ATOM     26  N   UNL     1      48.018   6.226  20.673  0.00  0.00    +0.000 NA
ATOM     27  C   UNL     1      47.817   7.495  20.799  0.00  0.00    +0.000 A 
ATOM     28  N   UNL     1      47.835   8.395  19.765  0.00  0.00    +0.000 N 
ATOM     29  C   UNL     1      48.017   8.020  18.454  0.00  0.00    +0.000 A 
ATOM     30  O   UNL     1      47.887   8.824  17.537  0.00  0.00    +0.000 OA
ATOM     31  C   UNL     1      48.314   6.612  18.267  0.00  0.00    +0.000 A 
ATOM     32  H   UNL     1      47.634   9.370  19.928  0.00  0.00    +0.000 HD
ENDBRANCH  19  22
ENDBRANCH   1  20
TORSDOF 7
ENDMDL
MODEL 4
REMARK VINA RESULT:    -7.256      3.255      7.624
REMARK INTER + INTRA:         -11.126
REMARK INTER:                  -9.804
REMARK INTRA:                  -1.322
REMARK UNBOUND:                -0.900
REMARK  Name = 
REMARK  7 active torsions:
REMARK  status: ('A' for Active; 'I' for Inactive)
REMARK    1  A    between atoms: C_2  and  C_19
REMARK    2  A    between atoms: N_3  and  C_4
REMARK    3  A    between atoms: C_4  and  C_5
REMARK    4  A    between atoms: C_8  and  C_9
REMARK    5  A    between atoms: C_9  and  N_10
REMARK    6  A    between atoms: N_10  and  C_11
REMARK    7  A    between atoms: C_11  and  C_12
REMARK                            x       y       z     vdW  Elec       q    Type
REMARK                         _______ _______ _______ _____ _____    ______ ____
ROOT
ATOM      1  C   UNL     1      48.230   8.070  12.192  0.00  0.00    +0.000 C 
ENDROOT
BRANCH   1   2
ATOM      2  C   UNL     1      48.948   7.647  13.438  0.00  0.00    +0.000 A 
ATOM      3  C   UNL     1      50.130   8.272  13.838  0.00  0.00    +0.000 A 
ATOM      4  C   UNL     1      50.749   7.890  15.025  0.00  0.00    +0.000 A 
ATOM      5  C   UNL     1      50.176   6.873  15.782  0.00  0.00    +0.000 A 
ATOM      6  N   UNL     1      49.049   6.219  15.395  0.00  0.00    +0.000 NA
ATOM      7  C   UNL     1      48.469   6.616  14.238  0.00  0.00    +0.000 A 
BRANCH   5   8
ATOM      8  C   UNL     1      50.820   6.434  17.083  0.00  0.00    +0.000 C 
BRANCH   8   9
ATOM      9  N   UNL     1      49.865   5.869  18.056  0.00  0.00    +0.000 NA
ATOM     10  H   UNL     1      48.995   5.730  17.536  0.00  0.00    +0.000 HD
BRANCH   9  11
ATOM     11  C   UNL     1      50.305   4.555  18.528  0.00  0.00    +0.000 C 
BRANCH  11  12
ATOM     12  C   UNL     1      49.790   3.507  17.617  0.00  0.00    +0.000 A 
ATOM     13  C   UNL     1      50.341   2.337  17.142  0.00  0.00    +0.000 A 
ATOM     14  N   UNL     1      49.465   1.687  16.313  0.00  0.00    +0.000 NA
ATOM     15  C   UNL     1      48.393   2.442  16.277  0.00  0.00    +0.000 A 
ATOM     16  N   UNL     1      48.536   3.547  17.060  0.00  0.00    +0.000 N 
ATOM     17  H   UNL     1      47.868   4.295  17.192  0.00  0.00    +0.000 HD
ENDBRANCH  11  12
ENDBRANCH   9  11
ENDBRANCH   8   9
ENDBRANCH   5   8
ENDBRANCH   1   2
BRANCH   1  20
ATOM     18  O   UNL     1      45.441   7.835  11.956  0.00  0.00    +0.000 OA
ATOM     19  C   UNL     1      46.150   6.946  11.491  0.00  0.00    +0.000 C 
ATOM     20  N   UNL     1      47.517   6.978  11.583  0.00  0.00    +0.000 N 
ATOM     21  H   UNL     1      48.067   6.313  11.048  0.00  0.00    +0.000 HD
BRANCH  19  22
ATOM     22  C   UNL     1      45.567   5.761  10.851  0.00  0.00    +0.000 A 
ATOM     23  C   UNL     1      45.794   5.528   9.501  0.00  0.00    +0.000 A 
ATOM     24  S   UNL     1      45.042   4.113   8.915  0.00  0.00    +0.000 S 
ATOM     25  C   UNL     1      44.422   3.740  10.455  0.00  0.00    +0.000 A 
ATOM     26  N   UNL     1      43.698   2.607  10.661  0.00  0.00    +0.000 NA
ATOM     27  C   UNL     1      43.329   2.425  11.885  0.00  0.00    +0.000 A 
ATOM     28  N   UNL     1      43.600   3.283  12.918  0.00  0.00    +0.000 N 
ATOM     29  C   UNL     1      44.257   4.479  12.741  0.00  0.00    +0.000 A 
ATOM     30  O   UNL     1      44.359   5.292  13.654  0.00  0.00    +0.000 OA
ATOM     31  C   UNL     1      44.751   4.700  11.394  0.00  0.00    +0.000 A 
ATOM     32  H   UNL     1      43.251   3.098  13.846  0.00  0.00    +0.000 HD
ENDBRANCH  19  22
ENDBRANCH   1  20
TORSDOF 7
ENDMDL
MODEL 5
REMARK VINA RESULT:    -7.150      3.110      4.526
REMARK INTER + INTRA:         -10.975
REMARK INTER:                 -10.223
REMARK INTRA:                  -0.752
REMARK UNBOUND:                -0.900
REMARK  Name = 
REMARK  7 active torsions:
REMARK  status: ('A' for Active; 'I' for Inactive)
REMARK    1  A    between atoms: C_2  and  C_19
REMARK    2  A    between atoms: N_3  and  C_4
REMARK    3  A    between atoms: C_4  and  C_5
REMARK    4  A    between atoms: C_8  and  C_9
REMARK    5  A    between atoms: C_9  and  N_10
REMARK    6  A    between atoms: N_10  and  C_11
REMARK    7  A    between atoms: C_11  and  C_12
REMARK                            x       y       z     vdW  Elec       q    Type
REMARK                         _______ _______ _______ _____ _____    ______ ____
ROOT
ATOM      1  C   UNL     1      49.067   6.445  16.665  0.00  0.00    +0.000 C 
ENDROOT
BRANCH   1   2
ATOM      2  C   UNL     1      48.211   5.721  15.671  0.00  0.00    +0.000 A 
ATOM      3  C   UNL     1      47.971   6.251  14.401  0.00  0.00    +0.000 A 
ATOM      4  C   UNL     1      47.211   5.533  13.483  0.00  0.00    +0.000 A 
ATOM      5  C   UNL     1      46.689   4.300  13.862  0.00  0.00    +0.000 A 
ATOM      6  N   UNL     1      46.871   3.780  15.104  0.00  0.00    +0.000 NA
ATOM      7  C   UNL     1      47.618   4.500  15.973  0.00  0.00    +0.000 A 
BRANCH   5   8
ATOM      8  C   UNL     1      45.860   3.488  12.885  0.00  0.00    +0.000 C 
BRANCH   8   9
ATOM      9  N   UNL     1      44.423   3.819  12.908  0.00  0.00    +0.000 NA
ATOM     10  H   UNL     1      44.353   4.760  12.512  0.00  0.00    +0.000 HD
BRANCH   9  11
ATOM     11  C   UNL     1      43.659   2.922  12.040  0.00  0.00    +0.000 C 
BRANCH  11  12
ATOM     12  C   UNL     1      44.054   3.147  10.630  0.00  0.00    +0.000 A 
ATOM     13  C   UNL     1      44.033   4.266   9.827  0.00  0.00    +0.000 A 
ATOM     14  N   UNL     1      44.507   3.978   8.574  0.00  0.00    +0.000 NA
ATOM     15  C   UNL     1      44.815   2.703   8.604  0.00  0.00    +0.000 A 
ATOM     16  N   UNL     1      44.572   2.159   9.828  0.00  0.00    +0.000 N 
ATOM     17  H   UNL     1      44.704   1.197  10.109  0.00  0.00    +0.000 HD
ENDBRANCH  11  12
ENDBRANCH   9  11
ENDBRANCH   8   9
ENDBRANCH   5   8
ENDBRANCH   1   2
BRANCH   1  20
ATOM     18  O   UNL     1      49.273   4.939  19.027  0.00  0.00    +0.000 OA
ATOM     19  C   UNL     1      50.215   4.934  18.239  0.00  0.00    +0.000 C 
ATOM     20  N   UNL     1      50.200   5.657  17.076  0.00  0.00    +0.000 N 
ATOM     21  H   UNL     1      50.924   5.498  16.382  0.00  0.00    +0.000 HD
BRANCH  19  22
ATOM     22  C   UNL     1      51.447   4.188  18.526  0.00  0.00    +0.000 A 
ATOM     23  C   UNL     1      52.428   4.763  19.323  0.00  0.00    +0.000 A 
ATOM     24  S   UNL     1      53.793   3.766  19.553  0.00  0.00    +0.000 S 
ATOM     25  C   UNL     1      53.102   2.514  18.631  0.00  0.00    +0.000 A 
ATOM     26  N   UNL     1      53.751   1.331  18.461  0.00  0.00    +0.000 NA
ATOM     27  C   UNL     1      53.092   0.454  17.779  0.00  0.00    +0.000 A 
ATOM     28  N   UNL     1      51.852   0.660  17.232  0.00  0.00    +0.000 N 
ATOM     29  C   UNL     1      51.196   1.867  17.309  0.00  0.00    +0.000 A 
ATOM     30  O   UNL     1      50.155   2.067  16.691  0.00  0.00    +0.000 OA
ATOM     31  C   UNL     1      51.864   2.865  18.122  0.00  0.00    +0.000 A 
ATOM     32  H   UNL     1      51.408  -0.057  16.679  0.00  0.00    +0.000 HD
ENDBRANCH  19  22
ENDBRANCH   1  20
TORSDOF 7
ENDMDL
MODEL 6
REMARK VINA RESULT:    -7.108      2.164      3.710
REMARK INTER + INTRA:         -10.916
REMARK INTER:                  -9.914
REMARK INTRA:                  -1.002
REMARK UNBOUND:                -0.900
REMARK  Name = 
REMARK  7 active torsions:
REMARK  status: ('A' for Active; 'I' for Inactive)
REMARK    1  A    between atoms: C_2  and  C_19
REMARK    2  A    between atoms: N_3  and  C_4
REMARK    3  A    between atoms: C_4  and  C_5
REMARK    4  A    between atoms: C_8  and  C_9
REMARK    5  A    between atoms: C_9  and  N_10
REMARK    6  A    between atoms: N_10  and  C_11
REMARK    7  A    between atoms: C_11  and  C_12
REMARK                            x       y       z     vdW  Elec       q    Type
REMARK                         _______ _______ _______ _____ _____    ______ ____
ROOT
ATOM      1  C   UNL     1      46.774   4.736  14.654  0.00  0.00    +0.000 C 
ENDROOT
BRANCH   1   2
ATOM      2  C   UNL     1      45.973   4.711  13.387  0.00  0.00    +0.000 A 
ATOM      3  C   UNL     1      45.537   5.893  12.784  0.00  0.00    +0.000 A 
ATOM      4  C   UNL     1      44.836   5.841  11.583  0.00  0.00    +0.000 A 
ATOM      5  C   UNL     1      44.571   4.599  11.015  0.00  0.00    +0.000 A 
ATOM      6  N   UNL     1      44.947   3.431  11.601  0.00  0.00    +0.000 NA
ATOM      7  C   UNL     1      45.630   3.515  12.767  0.00  0.00    +0.000 A 
BRANCH   5   8
ATOM      8  C   UNL     1      43.814   4.503   9.704  0.00  0.00    +0.000 C 
BRANCH   8   9
ATOM      9  N   UNL     1      44.346   3.479   8.785  0.00  0.00    +0.000 NA
ATOM     10  H   UNL     1      43.650   3.394   8.039  0.00  0.00    +0.000 HD
BRANCH   9  11
ATOM     11  C   UNL     1      45.597   3.919   8.167  0.00  0.00    +0.000 C 
BRANCH  11  12
ATOM     12  C   UNL     1      46.370   2.737   7.721  0.00  0.00    +0.000 A 
ATOM     13  C   UNL     1      47.411   2.591   6.832  0.00  0.00    +0.000 A 
ATOM     14  N   UNL     1      47.803   1.280   6.750  0.00  0.00    +0.000 NA
ATOM     15  C   UNL     1      47.016   0.629   7.574  0.00  0.00    +0.000 A 
ATOM     16  N   UNL     1      46.142   1.468   8.195  0.00  0.00    +0.000 N 
ATOM     17  H   UNL     1      45.420   1.220   8.859  0.00  0.00    +0.000 HD
ENDBRANCH  11  12
ENDBRANCH   9  11
ENDBRANCH   8   9
ENDBRANCH   5   8
ENDBRANCH   1   2
BRANCH   1  20
ATOM     18  O   UNL     1      48.981   5.095  16.353  0.00  0.00    +0.000 OA
ATOM     19  C   UNL     1      48.658   6.012  15.602  0.00  0.00    +0.000 C 
ATOM     20  N   UNL     1      47.583   5.922  14.758  0.00  0.00    +0.000 N 
ATOM     21  H   UNL     1      47.450   6.632  14.045  0.00  0.00    +0.000 HD
BRANCH  19  22
ATOM     22  C   UNL     1      49.381   7.290  15.603  0.00  0.00    +0.000 A 
ATOM     23  C   UNL     1      49.639   7.932  16.807  0.00  0.00    +0.000 A 
ATOM     24  S   UNL     1      50.481   9.405  16.631  0.00  0.00    +0.000 S 
ATOM     25  C   UNL     1      50.566   9.216  14.942  0.00  0.00    +0.000 A 
ATOM     26  N   UNL     1      51.209  10.131  14.168  0.00  0.00    +0.000 NA
ATOM     27  C   UNL     1      51.237   9.841  12.910  0.00  0.00    +0.000 A 
ATOM     28  N   UNL     1      50.664   8.727  12.352  0.00  0.00    +0.000 N 
ATOM     29  C   UNL     1      49.935   7.819  13.084  0.00  0.00    +0.000 A 
ATOM     30  O   UNL     1      49.314   6.913  12.539  0.00  0.00    +0.000 OA
ATOM     31  C   UNL     1      49.928   8.065  14.514  0.00  0.00    +0.000 A 
ATOM     32  H   UNL     1      50.693   8.579  11.355  0.00  0.00    +0.000 HD
ENDBRANCH  19  22
ENDBRANCH   1  20
TORSDOF 7
ENDMDL
MODEL 7
REMARK VINA RESULT:    -7.067      3.285      7.707
REMARK INTER + INTRA:         -10.858
REMARK INTER:                  -9.982
REMARK INTRA:                  -0.876
REMARK UNBOUND:                -0.900
REMARK  Name = 
REMARK  7 active torsions:
REMARK  status: ('A' for Active; 'I' for Inactive)
REMARK    1  A    between atoms: C_2  and  C_19
REMARK    2  A    between atoms: N_3  and  C_4
REMARK    3  A    between atoms: C_4  and  C_5
REMARK    4  A    between atoms: C_8  and  C_9
REMARK    5  A    between atoms: C_9  and  N_10
REMARK    6  A    between atoms: N_10  and  C_11
REMARK    7  A    between atoms: C_11  and  C_12
REMARK                            x       y       z     vdW  Elec       q    Type
REMARK                         _______ _______ _______ _____ _____    ______ ____
ROOT
ATOM      1  C   UNL     1      48.975   8.447  15.154  0.00  0.00    +0.000 C 
ENDROOT
BRANCH   1   2
ATOM      2  C   UNL     1      49.138   7.781  16.486  0.00  0.00    +0.000 A 
ATOM      3  C   UNL     1      48.300   8.096  17.559  0.00  0.00    +0.000 A 
ATOM      4  C   UNL     1      48.444   7.428  18.771  0.00  0.00    +0.000 A 
ATOM      5  C   UNL     1      49.440   6.463  18.890  0.00  0.00    +0.000 A 
ATOM      6  N   UNL     1      50.296   6.167  17.876  0.00  0.00    +0.000 NA
ATOM      7  C   UNL     1      50.128   6.832  16.709  0.00  0.00    +0.000 A 
BRANCH   5   8
ATOM      8  C   UNL     1      49.623   5.710  20.194  0.00  0.00    +0.000 C 
BRANCH   8   9
ATOM      9  N   UNL     1      49.511   4.246  20.054  0.00  0.00    +0.000 NA
ATOM     10  H   UNL     1      49.176   3.910  20.962  0.00  0.00    +0.000 HD
BRANCH   9  11
ATOM     11  C   UNL     1      48.502   3.885  19.057  0.00  0.00    +0.000 C 
BRANCH  11  12
ATOM     12  C   UNL     1      49.123   3.040  18.011  0.00  0.00    +0.000 A 
ATOM     13  C   UNL     1      48.621   2.461  16.867  0.00  0.00    +0.000 A 
ATOM     14  N   UNL     1      49.596   1.760  16.206  0.00  0.00    +0.000 NA
ATOM     15  C   UNL     1      50.680   1.904  16.931  0.00  0.00    +0.000 A 
ATOM     16  N   UNL     1      50.449   2.681  18.025  0.00  0.00    +0.000 N 
ATOM     17  H   UNL     1      51.107   2.929  18.752  0.00  0.00    +0.000 HD
ENDBRANCH  11  12
ENDBRANCH   9  11
ENDBRANCH   8   9
ENDBRANCH   5   8
ENDBRANCH   1   2
BRANCH   1  20
ATOM     18  O   UNL     1      48.980   6.410  13.220  0.00  0.00    +0.000 OA
ATOM     19  C   UNL     1      47.911   6.938  13.519  0.00  0.00    +0.000 C 
ATOM     20  N   UNL     1      47.829   7.951  14.438  0.00  0.00    +0.000 N 
ATOM     21  H   UNL     1      46.917   8.244  14.774  0.00  0.00    +0.000 HD
BRANCH  19  22
ATOM     22  C   UNL     1      46.656   6.547  12.865  0.00  0.00    +0.000 A 
ATOM     23  C   UNL     1      45.889   7.509  12.222  0.00  0.00    +0.000 A 
ATOM     24  S   UNL     1      44.463   6.889  11.521  0.00  0.00    +0.000 S 
ATOM     25  C   UNL     1      44.843   5.307  12.017  0.00  0.00    +0.000 A 
ATOM     26  N   UNL     1      44.033   4.261  11.696  0.00  0.00    +0.000 NA
ATOM     27  C   UNL     1      44.464   3.111  12.095  0.00  0.00    +0.000 A 
ATOM     28  N   UNL     1      45.621   2.913  12.804  0.00  0.00    +0.000 N 
ATOM     29  C   UNL     1      46.426   3.949  13.219  0.00  0.00    +0.000 A 
ATOM     30  O   UNL     1      47.375   3.755  13.972  0.00  0.00    +0.000 OA
ATOM     31  C   UNL     1      46.020   5.256  12.740  0.00  0.00    +0.000 A 
ATOM     32  H   UNL     1      45.882   1.990  13.116  0.00  0.00    +0.000 HD
ENDBRANCH  19  22
ENDBRANCH   1  20
TORSDOF 7
ENDMDL
MODEL 8
REMARK VINA RESULT:    -6.972      2.519      3.176
REMARK INTER + INTRA:         -10.725
REMARK INTER:                 -10.048
REMARK INTRA:                  -0.677
REMARK UNBOUND:                -0.900
REMARK  Name = 
REMARK  7 active torsions:
REMARK  status: ('A' for Active; 'I' for Inactive)
REMARK    1  A    between atoms: C_2  and  C_19
REMARK    2  A    between atoms: N_3  and  C_4
REMARK    3  A    between atoms: C_4  and  C_5
REMARK    4  A    between atoms: C_8  and  C_9
REMARK    5  A    between atoms: C_9  and  N_10
REMARK    6  A    between atoms: N_10  and  C_11
REMARK    7  A    between atoms: C_11  and  C_12
REMARK                            x       y       z     vdW  Elec       q    Type
REMARK                         _______ _______ _______ _____ _____    ______ ____
ROOT
ATOM      1  C   UNL     1      47.050   4.324  14.892  0.00  0.00    +0.000 C 
ENDROOT
BRANCH   1   2
ATOM      2  C   UNL     1      46.382   4.428  13.554  0.00  0.00    +0.000 A 
ATOM      3  C   UNL     1      45.919   3.293  12.887  0.00  0.00    +0.000 A 
ATOM      4  C   UNL     1      45.260   3.425  11.668  0.00  0.00    +0.000 A 
ATOM      5  C   UNL     1      45.092   4.698  11.131  0.00  0.00    +0.000 A 
ATOM      6  N   UNL     1      45.570   5.816  11.739  0.00  0.00    +0.000 NA
ATOM      7  C   UNL     1      46.203   5.655  12.924  0.00  0.00    +0.000 A 
BRANCH   5   8
ATOM      8  C   UNL     1      44.375   4.881   9.808  0.00  0.00    +0.000 C 
BRANCH   8   9
ATOM      9  N   UNL     1      45.217   4.593   8.631  0.00  0.00    +0.000 NA
ATOM     10  H   UNL     1      46.181   4.603   8.976  0.00  0.00    +0.000 HD
BRANCH   9  11
ATOM     11  C   UNL     1      44.954   3.250   8.110  0.00  0.00    +0.000 C 
BRANCH  11  12
ATOM     12  C   UNL     1      46.214   2.668   7.591  0.00  0.00    +0.000 A 
ATOM     13  C   UNL     1      46.718   1.386   7.603  0.00  0.00    +0.000 A 
ATOM     14  N   UNL     1      47.942   1.337   6.988  0.00  0.00    +0.000 NA
ATOM     15  C   UNL     1      48.188   2.567   6.604  0.00  0.00    +0.000 A 
ATOM     16  N   UNL     1      47.168   3.406   6.934  0.00  0.00    +0.000 N 
ATOM     17  H   UNL     1      47.115   4.403   6.770  0.00  0.00    +0.000 HD
ENDBRANCH  11  12
ENDBRANCH   9  11
ENDBRANCH   8   9
ENDBRANCH   5   8
ENDBRANCH   1   2
BRANCH   1  20
ATOM     18  O   UNL     1      49.156   4.765  16.696  0.00  0.00    +0.000 OA
ATOM     19  C   UNL     1      48.559   5.735  16.237  0.00  0.00    +0.000 C 
ATOM     20  N   UNL     1      47.509   5.603  15.367  0.00  0.00    +0.000 N 
ATOM     21  H   UNL     1      47.153   6.424  14.888  0.00  0.00    +0.000 HD
BRANCH  19  22
ATOM     22  C   UNL     1      48.905   7.105  16.637  0.00  0.00    +0.000 A 
ATOM     23  C   UNL     1      49.739   7.867  15.829  0.00  0.00    +0.000 A 
ATOM     24  S   UNL     1      50.043   9.429  16.442  0.00  0.00    +0.000 S 
ATOM     25  C   UNL     1      49.038   9.157  17.787  0.00  0.00    +0.000 A 
ATOM     26  N   UNL     1      48.825  10.133  18.710  0.00  0.00    +0.000 NA
ATOM     27  C   UNL     1      48.005   9.807  19.652  0.00  0.00    +0.000 A 
ATOM     28  N   UNL     1      47.394   8.586  19.769  0.00  0.00    +0.000 N 
ATOM     29  C   UNL     1      47.644   7.543  18.906  0.00  0.00    +0.000 A 
ATOM     30  O   UNL     1      47.195   6.421  19.116  0.00  0.00    +0.000 OA
ATOM     31  C   UNL     1      48.508   7.879  17.790  0.00  0.00    +0.000 A 
ATOM     32  H   UNL     1      46.790   8.384  20.551  0.00  0.00    +0.000 HD
ENDBRANCH  19  22
ENDBRANCH   1  20
TORSDOF 7
ENDMDL
MODEL 9
REMARK VINA RESULT:    -6.970      4.236      9.183
REMARK INTER + INTRA:         -10.722
REMARK INTER:                 -10.029
REMARK INTRA:                  -0.693
REMARK UNBOUND:                -0.900
REMARK  Name = 
REMARK  7 active torsions:
REMARK  status: ('A' for Active; 'I' for Inactive)
REMARK    1  A    between atoms: C_2  and  C_19
REMARK    2  A    between atoms: N_3  and  C_4
REMARK    3  A    between atoms: C_4  and  C_5
REMARK    4  A    between atoms: C_8  and  C_9
REMARK    5  A    between atoms: C_9  and  N_10
REMARK    6  A    between atoms: N_10  and  C_11
REMARK    7  A    between atoms: C_11  and  C_12
REMARK                            x       y       z     vdW  Elec       q    Type
REMARK                         _______ _______ _______ _____ _____    ______ ____
ROOT
ATOM      1  C   UNL     1      47.125   3.380  16.928  0.00  0.00    +0.000 C 
ENDROOT
BRANCH   1   2
ATOM      2  C   UNL     1      48.605   3.383  17.166  0.00  0.00    +0.000 A 
ATOM      3  C   UNL     1      49.251   4.507  17.684  0.00  0.00    +0.000 A 
ATOM      4  C   UNL     1      50.619   4.465  17.938  0.00  0.00    +0.000 A 
ATOM      5  C   UNL     1      51.318   3.297  17.652  0.00  0.00    +0.000 A 
ATOM      6  N   UNL     1      50.722   2.203  17.108  0.00  0.00    +0.000 NA
ATOM      7  C   UNL     1      49.391   2.274  16.876  0.00  0.00    +0.000 A 
BRANCH   5   8
ATOM      8  C   UNL     1      52.808   3.212  17.921  0.00  0.00    +0.000 C 
BRANCH   8   9
ATOM      9  N   UNL     1      53.205   2.021  18.697  0.00  0.00    +0.000 NA
ATOM     10  H   UNL     1      52.332   1.529  18.907  0.00  0.00    +0.000 HD
BRANCH   9  11
ATOM     11  C   UNL     1      54.031   1.119  17.894  0.00  0.00    +0.000 C 
BRANCH  11  12
ATOM     12  C   UNL     1      54.197  -0.167  18.611  0.00  0.00    +0.000 A 
ATOM     13  C   UNL     1      55.198  -0.655  19.421  0.00  0.00    +0.000 A 
ATOM     14  N   UNL     1      54.897  -1.917  19.863  0.00  0.00    +0.000 NA
ATOM     15  C   UNL     1      53.731  -2.202  19.334  0.00  0.00    +0.000 A 
ATOM     16  N   UNL     1      53.260  -1.170  18.580  0.00  0.00    +0.000 N 
ATOM     17  H   UNL     1      52.398  -1.139  18.052  0.00  0.00    +0.000 HD
ENDBRANCH  11  12
ENDBRANCH   9  11
ENDBRANCH   8   9
ENDBRANCH   5   8
ENDBRANCH   1   2
BRANCH   1  20
ATOM     18  O   UNL     1      47.293   3.058  14.143  0.00  0.00    +0.000 OA
ATOM     19  C   UNL     1      46.833   4.105  14.590  0.00  0.00    +0.000 C 
ATOM     20  N   UNL     1      46.736   4.346  15.935  0.00  0.00    +0.000 N 
ATOM     21  H   UNL     1      46.204   5.148  16.259  0.00  0.00    +0.000 HD
BRANCH  19  22
ATOM     22  C   UNL     1      46.405   5.192  13.700  0.00  0.00    +0.000 A 
ATOM     23  C   UNL     1      47.258   6.261  13.462  0.00  0.00    +0.000 A 
ATOM     24  S   UNL     1      46.606   7.436  12.412  0.00  0.00    +0.000 S 
ATOM     25  C   UNL     1      45.176   6.537  12.207  0.00  0.00    +0.000 A 
ATOM     26  N   UNL     1      44.189   6.974  11.378  0.00  0.00    +0.000 NA
ATOM     27  C   UNL     1      43.182   6.172  11.281  0.00  0.00    +0.000 A 
ATOM     28  N   UNL     1      43.061   4.983  11.952  0.00  0.00    +0.000 N 
ATOM     29  C   UNL     1      43.995   4.543  12.861  0.00  0.00    +0.000 A 
ATOM     30  O   UNL     1      43.794   3.549  13.551  0.00  0.00    +0.000 OA
ATOM     31  C   UNL     1      45.179   5.376  12.958  0.00  0.00    +0.000 A 
ATOM     32  H   UNL     1      42.229   4.421  11.857  0.00  0.00    +0.000 HD
ENDBRANCH  19  22
ENDBRANCH   1  20
TORSDOF 7
ENDMDL
