MODEL 1
REMARK VINA RESULT:    -8.476      0.000      0.000
REMARK INTER + INTRA:         -12.363
REMARK INTER:                 -11.449
REMARK INTRA:                  -0.914
REMARK UNBOUND:                -0.914
REMARK  Name = 
REMARK  8 active torsions:
REMARK  status: ('A' for Active; 'I' for Inactive)
REMARK    1  A    between atoms: C_1  and  C_2
REMARK    2  A    between atoms: C_2  and  C_3
REMARK    3  A    between atoms: C_2  and  C_4
REMARK    4  A    between atoms: C_2  and  C_15
REMARK    5  A    between atoms: C_4  and  O_5
REMARK    6  A    between atoms: O_5  and  C_6
REMARK    7  A    between atoms: C_9  and  C_10
REMARK    8  A    between atoms: C_20  and  C_21
REMARK                            x       y       z     vdW  Elec       q    Type
REMARK                         _______ _______ _______ _____ _____    ______ ____
ROOT
ATOM      1  C   UNL     1      42.817   5.865  11.280  0.00  0.00    +0.000 C 
ATOM      2  C   UNL     1      43.663   4.868  12.113  0.00  0.00    +0.000 C 
ATOM      3  C   UNL     1      42.953   4.646  13.465  0.00  0.00    +0.000 C 
ENDROOT
BRANCH   2   4
ATOM      4  C   UNL     1      45.082   5.412  12.393  0.00  0.00    +0.000 A 
ATOM      5  C   UNL     1      45.712   6.286  11.494  0.00  0.00    +0.000 A 
ATOM      6  C   UNL     1      47.010   6.757  11.718  0.00  0.00    +0.000 A 
ATOM      7  C   UNL     1      47.717   6.383  12.861  0.00  0.00    +0.000 A 
ATOM      8 CL   UNL     1      49.303   7.048  13.032  0.00  0.00    +0.000 Cl
ATOM      9  C   UNL     1      47.110   5.545  13.801  0.00  0.00    +0.000 A 
ATOM     10  C   UNL     1      45.795   5.084  13.563  0.00  0.00    +0.000 A 
BRANCH   9  11
ATOM     11  C   UNL     1      47.741   5.102  15.075  0.00  0.00    +0.000 C 
ATOM     12  N   UNL     1      48.156   6.054  15.962  0.00  0.00    +0.000 N 
ATOM     13  O   UNL     1      47.922   3.914  15.309  0.00  0.00    +0.000 OA
ATOM     14  H   UNL     1      47.951   7.039  15.846  0.00  0.00    +0.000 HD
ATOM     15  H   UNL     1      48.528   5.742  16.847  0.00  0.00    +0.000 HD
ENDBRANCH   9  11
ENDBRANCH   2   4
BRANCH   2  16
ATOM     16  C   UNL     1      43.650   3.510  11.347  0.00  0.00    +0.000 C 
BRANCH  16  17
ATOM     17  O   UNL     1      43.506   3.722   9.937  0.00  0.00    +0.000 OA
BRANCH  17  18
ATOM     18  C   UNL     1      44.518   3.263   9.145  0.00  0.00    +0.000 A 
ATOM     19  C   UNL     1      44.990   1.953   9.090  0.00  0.00    +0.000 A 
ATOM     20  C   UNL     1      46.026   1.629   8.214  0.00  0.00    +0.000 A 
ATOM     21  C   UNL     1      46.561   2.632   7.417  0.00  0.00    +0.000 A 
ATOM     22  N   UNL     1      46.137   3.926   7.445  0.00  0.00    +0.000 NA
ATOM     23  C   UNL     1      45.131   4.200   8.312  0.00  0.00    +0.000 A 
BRANCH  21  24
ATOM     24  C   UNL     1      47.656   2.294   6.453  0.00  0.00    +0.000 C 
ATOM     25  N   UNL     1      47.746   3.096   5.351  0.00  0.00    +0.000 N 
ATOM     26  O   UNL     1      48.418   1.353   6.627  0.00  0.00    +0.000 OA
ATOM     27  H   UNL     1      47.089   3.860   5.229  0.00  0.00    +0.000 HD
ATOM     28  H   UNL     1      48.449   2.907   4.653  0.00  0.00    +0.000 HD
ENDBRANCH  21  24
ENDBRANCH  17  18
ENDBRANCH  16  17
ENDBRANCH   2  16
TORSDOF 6
ENDMDL
MODEL 2
REMARK VINA RESULT:    -8.103      1.596      1.993
REMARK INTER + INTRA:         -11.859
REMARK INTER:                 -11.178
REMARK INTRA:                  -0.680
REMARK UNBOUND:                -0.914
REMARK  Name = 
REMARK  8 active torsions:
REMARK  status: ('A' for Active; 'I' for Inactive)
REMARK    1  A    between atoms: C_1  and  C_2
REMARK    2  A    between atoms: C_2  and  C_3
REMARK    3  A    between atoms: C_2  and  C_4
REMARK    4  A    between atoms: C_2  and  C_15
REMARK    5  A    between atoms: C_4  and  O_5
REMARK    6  A    between atoms: O_5  and  C_6
REMARK    7  A    between atoms: C_9  and  C_10
REMARK    8  A    between atoms: C_20  and  C_21
REMARK                            x       y       z     vdW  Elec       q    Type
REMARK                         _______ _______ _______ _____ _____    ______ ____
ROOT
ATOM      1  C   UNL     1      43.040   4.867  13.224  0.00  0.00    +0.000 C 
ATOM      2  C   UNL     1      44.164   4.767  12.162  0.00  0.00    +0.000 C 
ATOM      3  C   UNL     1      44.993   3.498  12.454  0.00  0.00    +0.000 C 
ENDROOT
BRANCH   2   4
ATOM      4  C   UNL     1      45.110   5.987  12.210  0.00  0.00    +0.000 A 
ATOM      5  C   UNL     1      44.669   7.261  11.820  0.00  0.00    +0.000 A 
ATOM      6  C   UNL     1      45.526   8.366  11.825  0.00  0.00    +0.000 A 
ATOM      7  C   UNL     1      46.853   8.240  12.241  0.00  0.00    +0.000 A 
ATOM      8 CL   UNL     1      47.803   9.683  12.220  0.00  0.00    +0.000 Cl
ATOM      9  C   UNL     1      47.320   6.996  12.675  0.00  0.00    +0.000 A 
ATOM     10  C   UNL     1      46.439   5.890  12.670  0.00  0.00    +0.000 A 
BRANCH   9  11
ATOM     11  C   UNL     1      48.698   6.735  13.174  0.00  0.00    +0.000 C 
ATOM     12  N   UNL     1      49.749   6.949  12.329  0.00  0.00    +0.000 N 
ATOM     13  O   UNL     1      48.888   6.300  14.304  0.00  0.00    +0.000 OA
ATOM     14  H   UNL     1      49.643   7.385  11.422  0.00  0.00    +0.000 HD
ATOM     15  H   UNL     1      50.681   6.825  12.698  0.00  0.00    +0.000 HD
ENDBRANCH   9  11
ENDBRANCH   2   4
BRANCH   2  16
ATOM     16  C   UNL     1      43.468   4.567  10.781  0.00  0.00    +0.000 C 
BRANCH  16  17
ATOM     17  O   UNL     1      43.673   3.234  10.296  0.00  0.00    +0.000 OA
BRANCH  17  18
ATOM     18  C   UNL     1      44.585   3.084   9.291  0.00  0.00    +0.000 A 
ATOM     19  C   UNL     1      45.001   4.076   8.405  0.00  0.00    +0.000 A 
ATOM     20  C   UNL     1      45.957   3.776   7.434  0.00  0.00    +0.000 A 
ATOM     21  C   UNL     1      46.467   2.486   7.380  0.00  0.00    +0.000 A 
ATOM     22  N   UNL     1      46.083   1.485   8.220  0.00  0.00    +0.000 NA
ATOM     23  C   UNL     1      45.149   1.817   9.146  0.00  0.00    +0.000 A 
BRANCH  21  24
ATOM     24  C   UNL     1      47.513   2.156   6.361  0.00  0.00    +0.000 C 
ATOM     25  N   UNL     1      47.728   3.105   5.400  0.00  0.00    +0.000 N 
ATOM     26  O   UNL     1      48.133   1.102   6.371  0.00  0.00    +0.000 OA
ATOM     27  H   UNL     1      47.187   3.963   5.411  0.00  0.00    +0.000 HD
ATOM     28  H   UNL     1      48.404   2.933   4.672  0.00  0.00    +0.000 HD
ENDBRANCH  21  24
ENDBRANCH  17  18
ENDBRANCH  16  17
ENDBRANCH   2  16
TORSDOF 6
ENDMDL
MODEL 3
REMARK VINA RESULT:    -7.649      1.967      2.305
REMARK INTER + INTRA:         -11.246
REMARK INTER:                 -10.506
REMARK INTRA:                  -0.740
REMARK UNBOUND:                -0.914
REMARK  Name = 
REMARK  8 active torsions:
REMARK  status: ('A' for Active; 'I' for Inactive)
REMARK    1  A    between atoms: C_1  and  C_2
REMARK    2  A    between atoms: C_2  and  C_3
REMARK    3  A    between atoms: C_2  and  C_4
REMARK    4  A    between atoms: C_2  and  C_15
REMARK    5  A    between atoms: C_4  and  O_5
REMARK    6  A    between atoms: O_5  and  C_6
REMARK    7  A    between atoms: C_9  and  C_10
REMARK    8  A    between atoms: C_20  and  C_21
REMARK                            x       y       z     vdW  Elec       q    Type
REMARK                         _______ _______ _______ _____ _____    ______ ____
ROOT
ATOM      1  C   UNL     1      42.782   5.570  11.584  0.00  0.00    +0.000 C 
ATOM      2  C   UNL     1      43.746   4.656  12.384  0.00  0.00    +0.000 C 
ATOM      3  C   UNL     1      43.053   4.263  13.705  0.00  0.00    +0.000 C 
ENDROOT
BRANCH   2   4
ATOM      4  C   UNL     1      45.070   5.376  12.725  0.00  0.00    +0.000 A 
ATOM      5  C   UNL     1      46.144   4.681  13.302  0.00  0.00    +0.000 A 
ATOM      6  C   UNL     1      47.334   5.329  13.649  0.00  0.00    +0.000 A 
ATOM      7  C   UNL     1      47.499   6.695  13.411  0.00  0.00    +0.000 A 
ATOM      8 CL   UNL     1      49.022   7.372  13.866  0.00  0.00    +0.000 Cl
ATOM      9  C   UNL     1      46.467   7.415  12.802  0.00  0.00    +0.000 A 
ATOM     10  C   UNL     1      45.274   6.743  12.451  0.00  0.00    +0.000 A 
BRANCH   9  11
ATOM     11  C   UNL     1      46.530   8.863  12.462  0.00  0.00    +0.000 C 
ATOM     12  N   UNL     1      45.434   9.638  12.711  0.00  0.00    +0.000 N 
ATOM     13  O   UNL     1      47.525   9.345  11.934  0.00  0.00    +0.000 OA
ATOM     14  H   UNL     1      44.627   9.300  13.220  0.00  0.00    +0.000 HD
ATOM     15  H   UNL     1      45.509  10.629  12.532  0.00  0.00    +0.000 HD
ENDBRANCH   9  11
ENDBRANCH   2   4
BRANCH   2  16
ATOM     16  C   UNL     1      43.937   3.354  11.547  0.00  0.00    +0.000 C 
BRANCH  16  17
ATOM     17  O   UNL     1      43.618   3.583  10.169  0.00  0.00    +0.000 OA
BRANCH  17  18
ATOM     18  C   UNL     1      44.568   3.228   9.256  0.00  0.00    +0.000 A 
ATOM     19  C   UNL     1      45.099   1.952   9.076  0.00  0.00    +0.000 A 
ATOM     20  C   UNL     1      46.057   1.737   8.086  0.00  0.00    +0.000 A 
ATOM     21  C   UNL     1      46.457   2.812   7.304  0.00  0.00    +0.000 A 
ATOM     22  N   UNL     1      45.972   4.077   7.451  0.00  0.00    +0.000 NA
ATOM     23  C   UNL     1      45.045   4.243   8.427  0.00  0.00    +0.000 A 
BRANCH  21  24
ATOM     24  C   UNL     1      47.466   2.592   6.219  0.00  0.00    +0.000 C 
ATOM     25  N   UNL     1      48.681   2.115   6.625  0.00  0.00    +0.000 N 
ATOM     26  O   UNL     1      47.231   2.832   5.043  0.00  0.00    +0.000 OA
ATOM     27  H   UNL     1      48.848   1.940   7.610  0.00  0.00    +0.000 HD
ATOM     28  H   UNL     1      49.410   1.966   5.945  0.00  0.00    +0.000 HD
ENDBRANCH  21  24
ENDBRANCH  17  18
ENDBRANCH  16  17
ENDBRANCH   2  16
TORSDOF 6
ENDMDL
MODEL 4
REMARK VINA RESULT:    -7.445      2.795      3.738
REMARK INTER + INTRA:         -10.970
REMARK INTER:                 -10.507
REMARK INTRA:                  -0.464
REMARK UNBOUND:                -0.914
REMARK  Name = 
REMARK  8 active torsions:
REMARK  status: ('A' for Active; 'I' for Inactive)
REMARK    1  A    between atoms: C_1  and  C_2
REMARK    2  A    between atoms: C_2  and  C_3
REMARK    3  A    between atoms: C_2  and  C_4
REMARK    4  A    between atoms: C_2  and  C_15
REMARK    5  A    between atoms: C_4  and  O_5
REMARK    6  A    between atoms: O_5  and  C_6
REMARK    7  A    between atoms: C_9  and  C_10
REMARK    8  A    between atoms: C_20  and  C_21
REMARK                            x       y       z     vdW  Elec       q    Type
REMARK                         _______ _______ _______ _____ _____    ______ ____
ROOT
ATOM      1  C   UNL     1      43.059   4.589  13.441  0.00  0.00    +0.000 C 
ATOM      2  C   UNL     1      44.137   4.708  12.333  0.00  0.00    +0.000 C 
ATOM      3  C   UNL     1      45.336   3.822  12.730  0.00  0.00    +0.000 C 
ENDROOT
BRANCH   2   4
ATOM      4  C   UNL     1      44.638   6.160  12.172  0.00  0.00    +0.000 A 
ATOM      5  C   UNL     1      45.898   6.549  12.653  0.00  0.00    +0.000 A 
ATOM      6  C   UNL     1      46.347   7.869  12.546  0.00  0.00    +0.000 A 
ATOM      7  C   UNL     1      45.559   8.844  11.933  0.00  0.00    +0.000 A 
ATOM      8 CL   UNL     1      46.237  10.432  11.845  0.00  0.00    +0.000 Cl
ATOM      9  C   UNL     1      44.315   8.489  11.405  0.00  0.00    +0.000 A 
ATOM     10  C   UNL     1      43.878   7.149  11.515  0.00  0.00    +0.000 A 
BRANCH   9  11
ATOM     11  C   UNL     1      43.396   9.423  10.698  0.00  0.00    +0.000 C 
ATOM     12  N   UNL     1      42.061   9.361  10.978  0.00  0.00    +0.000 N 
ATOM     13  O   UNL     1      43.817  10.204   9.853  0.00  0.00    +0.000 OA
ATOM     14  H   UNL     1      41.684   8.792  11.726  0.00  0.00    +0.000 HD
ATOM     15  H   UNL     1      41.456  10.038  10.537  0.00  0.00    +0.000 HD
ENDBRANCH   9  11
ENDBRANCH   2   4
BRANCH   2  16
ATOM     16  C   UNL     1      43.519   4.109  11.032  0.00  0.00    +0.000 C 
BRANCH  16  17
ATOM     17  O   UNL     1      44.048   4.759   9.870  0.00  0.00    +0.000 OA
BRANCH  17  18
ATOM     18  C   UNL     1      44.886   4.020   9.086  0.00  0.00    +0.000 A 
ATOM     19  C   UNL     1      45.781   4.519   8.142  0.00  0.00    +0.000 A 
ATOM     20  C   UNL     1      46.589   3.638   7.424  0.00  0.00    +0.000 A 
ATOM     21  C   UNL     1      46.475   2.278   7.675  0.00  0.00    +0.000 A 
ATOM     22  N   UNL     1      45.608   1.746   8.582  0.00  0.00    +0.000 NA
ATOM     23  C   UNL     1      44.838   2.637   9.255  0.00  0.00    +0.000 A 
BRANCH  21  24
ATOM     24  C   UNL     1      47.354   1.321   6.931  0.00  0.00    +0.000 C 
ATOM     25  N   UNL     1      48.463   1.864   6.345  0.00  0.00    +0.000 N 
ATOM     26  O   UNL     1      47.098   0.128   6.837  0.00  0.00    +0.000 OA
ATOM     27  H   UNL     1      48.639   2.860   6.429  0.00  0.00    +0.000 HD
ATOM     28  H   UNL     1      49.083   1.276   5.811  0.00  0.00    +0.000 HD
ENDBRANCH  21  24
ENDBRANCH  17  18
ENDBRANCH  16  17
ENDBRANCH   2  16
TORSDOF 6
ENDMDL
MODEL 5
REMARK VINA RESULT:    -6.591      3.494      5.723
REMARK INTER + INTRA:          -9.817
REMARK INTER:                  -8.922
REMARK INTRA:                  -0.894
REMARK UNBOUND:                -0.914
REMARK  Name = 
REMARK  8 active torsions:
REMARK  status: ('A' for Active; 'I' for Inactive)
REMARK    1  A    between atoms: C_1  and  C_2
REMARK    2  A    between atoms: C_2  and  C_3
REMARK    3  A    between atoms: C_2  and  C_4
REMARK    4  A    between atoms: C_2  and  C_15
REMARK    5  A    between atoms: C_4  and  O_5
REMARK    6  A    between atoms: O_5  and  C_6
REMARK    7  A    between atoms: C_9  and  C_10
REMARK    8  A    between atoms: C_20  and  C_21
REMARK                            x       y       z     vdW  Elec       q    Type
REMARK                         _______ _______ _______ _____ _____    ______ ____
ROOT
ATOM      1  C   UNL     1      50.481   7.828  14.440  0.00  0.00    +0.000 C 
ATOM      2  C   UNL     1      49.007   7.476  14.766  0.00  0.00    +0.000 C 
ATOM      3  C   UNL     1      48.224   8.795  14.938  0.00  0.00    +0.000 C 
ENDROOT
BRANCH   2   4
ATOM      4  C   UNL     1      48.886   6.664  16.074  0.00  0.00    +0.000 A 
ATOM      5  C   UNL     1      49.249   7.224  17.309  0.00  0.00    +0.000 A 
ATOM      6  C   UNL     1      49.178   6.487  18.496  0.00  0.00    +0.000 A 
ATOM      7  C   UNL     1      48.722   5.168  18.492  0.00  0.00    +0.000 A 
ATOM      8 CL   UNL     1      48.662   4.374  20.025  0.00  0.00    +0.000 Cl
ATOM      9  C   UNL     1      48.313   4.587  17.288  0.00  0.00    +0.000 A 
ATOM     10  C   UNL     1      48.385   5.347  16.098  0.00  0.00    +0.000 A 
BRANCH   9  11
ATOM     11  C   UNL     1      47.776   3.206  17.152  0.00  0.00    +0.000 C 
ATOM     12  N   UNL     1      48.595   2.233  16.655  0.00  0.00    +0.000 N 
ATOM     13  O   UNL     1      46.613   2.949  17.442  0.00  0.00    +0.000 OA
ATOM     14  H   UNL     1      49.582   2.382  16.483  0.00  0.00    +0.000 HD
ATOM     15  H   UNL     1      48.239   1.289  16.623  0.00  0.00    +0.000 HD
ENDBRANCH   9  11
ENDBRANCH   2   4
BRANCH   2  16
ATOM     16  C   UNL     1      48.428   6.744  13.516  0.00  0.00    +0.000 C 
BRANCH  16  17
ATOM     17  O   UNL     1      47.035   7.037  13.356  0.00  0.00    +0.000 OA
BRANCH  17  18
ATOM     18  C   UNL     1      46.285   6.098  12.709  0.00  0.00    +0.000 A 
ATOM     19  C   UNL     1      45.937   6.109  11.360  0.00  0.00    +0.000 A 
ATOM     20  C   UNL     1      45.174   5.066  10.835  0.00  0.00    +0.000 A 
ATOM     21  C   UNL     1      44.781   4.039  11.682  0.00  0.00    +0.000 A 
ATOM     22  N   UNL     1      45.091   3.992  13.008  0.00  0.00    +0.000 NA
ATOM     23  C   UNL     1      45.830   5.027  13.479  0.00  0.00    +0.000 A 
BRANCH  21  24
ATOM     24  C   UNL     1      43.985   2.899  11.127  0.00  0.00    +0.000 C 
ATOM     25  N   UNL     1      44.439   2.373   9.950  0.00  0.00    +0.000 N 
ATOM     26  O   UNL     1      42.982   2.467  11.679  0.00  0.00    +0.000 OA
ATOM     27  H   UNL     1      45.266   2.764   9.511  0.00  0.00    +0.000 HD
ATOM     28  H   UNL     1      43.933   1.617   9.514  0.00  0.00    +0.000 HD
ENDBRANCH  21  24
ENDBRANCH  17  18
ENDBRANCH  16  17
ENDBRANCH   2  16
TORSDOF 6
ENDMDL
MODEL 6
REMARK VINA RESULT:    -6.364      3.315      5.266
REMARK INTER + INTRA:          -9.511
REMARK INTER:                  -8.483
REMARK INTRA:                  -1.028
REMARK UNBOUND:                -0.914
REMARK  Name = 
REMARK  8 active torsions:
REMARK  status: ('A' for Active; 'I' for Inactive)
REMARK    1  A    between atoms: C_1  and  C_2
REMARK    2  A    between atoms: C_2  and  C_3
REMARK    3  A    between atoms: C_2  and  C_4
REMARK    4  A    between atoms: C_2  and  C_15
REMARK    5  A    between atoms: C_4  and  O_5
REMARK    6  A    between atoms: O_5  and  C_6
REMARK    7  A    between atoms: C_9  and  C_10
REMARK    8  A    between atoms: C_20  and  C_21
REMARK                            x       y       z     vdW  Elec       q    Type
REMARK                         _______ _______ _______ _____ _____    ______ ____
ROOT
ATOM      1  C   UNL     1      49.696   7.863  12.759  0.00  0.00    +0.000 C 
ATOM      2  C   UNL     1      48.774   8.017  13.995  0.00  0.00    +0.000 C 
ATOM      3  C   UNL     1      48.907   9.464  14.518  0.00  0.00    +0.000 C 
ENDROOT
BRANCH   2   4
ATOM      4  C   UNL     1      49.171   7.051  15.133  0.00  0.00    +0.000 A 
ATOM      5  C   UNL     1      50.464   7.067  15.678  0.00  0.00    +0.000 A 
ATOM      6  C   UNL     1      50.847   6.173  16.683  0.00  0.00    +0.000 A 
ATOM      7  C   UNL     1      49.940   5.243  17.194  0.00  0.00    +0.000 A 
ATOM      8 CL   UNL     1      50.529   4.209  18.447  0.00  0.00    +0.000 Cl
ATOM      9  C   UNL     1      48.631   5.221  16.706  0.00  0.00    +0.000 A 
ATOM     10  C   UNL     1      48.258   6.136  15.695  0.00  0.00    +0.000 A 
BRANCH   9  11
ATOM     11  C   UNL     1      47.561   4.305  17.189  0.00  0.00    +0.000 C 
ATOM     12  N   UNL     1      47.063   4.491  18.446  0.00  0.00    +0.000 N 
ATOM     13  O   UNL     1      47.161   3.379  16.493  0.00  0.00    +0.000 OA
ATOM     14  H   UNL     1      47.303   5.290  19.019  0.00  0.00    +0.000 HD
ATOM     15  H   UNL     1      46.297   3.902  18.741  0.00  0.00    +0.000 HD
ENDBRANCH   9  11
ENDBRANCH   2   4
BRANCH   2  16
ATOM     16  C   UNL     1      47.309   7.831  13.495  0.00  0.00    +0.000 C 
BRANCH  16  17
ATOM     17  O   UNL     1      47.288   7.299  12.165  0.00  0.00    +0.000 OA
BRANCH  17  18
ATOM     18  C   UNL     1      46.538   6.176  11.969  0.00  0.00    +0.000 A 
ATOM     19  C   UNL     1      46.331   5.153  12.893  0.00  0.00    +0.000 A 
ATOM     20  C   UNL     1      45.521   4.070  12.553  0.00  0.00    +0.000 A 
ATOM     21  C   UNL     1      44.942   4.043  11.292  0.00  0.00    +0.000 A 
ATOM     22  N   UNL     1      45.125   5.014  10.355  0.00  0.00    +0.000 NA
ATOM     23  C   UNL     1      45.921   6.048  10.724  0.00  0.00    +0.000 A 
BRANCH  21  24
ATOM     24  C   UNL     1      44.050   2.899  10.922  0.00  0.00    +0.000 C 
ATOM     25  N   UNL     1      44.496   2.100   9.907  0.00  0.00    +0.000 N 
ATOM     26  O   UNL     1      42.981   2.691  11.480  0.00  0.00    +0.000 OA
ATOM     27  H   UNL     1      45.381   2.308   9.456  0.00  0.00    +0.000 HD
ATOM     28  H   UNL     1      43.930   1.326   9.596  0.00  0.00    +0.000 HD
ENDBRANCH  21  24
ENDBRANCH  17  18
ENDBRANCH  16  17
ENDBRANCH   2  16
TORSDOF 6
ENDMDL
MODEL 7
REMARK VINA RESULT:    -6.275      2.917      8.263
REMARK INTER + INTRA:          -9.389
REMARK INTER:                  -9.100
REMARK INTRA:                  -0.290
REMARK UNBOUND:                -0.914
REMARK  Name = 
REMARK  8 active torsions:
REMARK  status: ('A' for Active; 'I' for Inactive)
REMARK    1  A    between atoms: C_1  and  C_2
REMARK    2  A    between atoms: C_2  and  C_3
REMARK    3  A    between atoms: C_2  and  C_4
REMARK    4  A    between atoms: C_2  and  C_15
REMARK    5  A    between atoms: C_4  and  O_5
REMARK    6  A    between atoms: O_5  and  C_6
REMARK    7  A    between atoms: C_9  and  C_10
REMARK    8  A    between atoms: C_20  and  C_21
REMARK                            x       y       z     vdW  Elec       q    Type
REMARK                         _______ _______ _______ _____ _____    ______ ____
ROOT
ATOM      1  C   UNL     1      46.774   9.009  12.338  0.00  0.00    +0.000 C 
ATOM      2  C   UNL     1      47.385   7.602  12.561  0.00  0.00    +0.000 C 
ATOM      3  C   UNL     1      48.630   7.468  11.659  0.00  0.00    +0.000 C 
ENDROOT
BRANCH   2   4
ATOM      4  C   UNL     1      46.391   6.479  12.189  0.00  0.00    +0.000 A 
ATOM      5  C   UNL     1      45.624   5.837  13.173  0.00  0.00    +0.000 A 
ATOM      6  C   UNL     1      44.748   4.794  12.854  0.00  0.00    +0.000 A 
ATOM      7  C   UNL     1      44.594   4.371  11.533  0.00  0.00    +0.000 A 
ATOM      8 CL   UNL     1      43.466   3.088  11.267  0.00  0.00    +0.000 Cl
ATOM      9  C   UNL     1      45.311   5.011  10.518  0.00  0.00    +0.000 A 
ATOM     10  C   UNL     1      46.187   6.068  10.857  0.00  0.00    +0.000 A 
BRANCH   9  11
ATOM     11  C   UNL     1      45.211   4.680   9.070  0.00  0.00    +0.000 C 
ATOM     12  N   UNL     1      44.041   4.156   8.601  0.00  0.00    +0.000 N 
ATOM     13  O   UNL     1      46.167   4.834   8.320  0.00  0.00    +0.000 OA
ATOM     14  H   UNL     1      43.203   4.091   9.166  0.00  0.00    +0.000 HD
ATOM     15  H   UNL     1      43.964   3.991   7.608  0.00  0.00    +0.000 HD
ENDBRANCH   9  11
ENDBRANCH   2   4
BRANCH   2  16
ATOM     16  C   UNL     1      47.869   7.547  14.042  0.00  0.00    +0.000 C 
BRANCH  16  17
ATOM     17  O   UNL     1      48.468   6.279  14.336  0.00  0.00    +0.000 OA
BRANCH  17  18
ATOM     18  C   UNL     1      48.363   5.838  15.623  0.00  0.00    +0.000 A 
ATOM     19  C   UNL     1      47.731   4.670  16.044  0.00  0.00    +0.000 A 
ATOM     20  C   UNL     1      47.719   4.342  17.399  0.00  0.00    +0.000 A 
ATOM     21  C   UNL     1      48.343   5.198  18.296  0.00  0.00    +0.000 A 
ATOM     22  N   UNL     1      48.965   6.353  17.930  0.00  0.00    +0.000 NA
ATOM     23  C   UNL     1      48.951   6.638  16.604  0.00  0.00    +0.000 A 
BRANCH  21  24
ATOM     24  C   UNL     1      48.362   4.845  19.751  0.00  0.00    +0.000 C 
ATOM     25  N   UNL     1      48.489   3.515  20.040  0.00  0.00    +0.000 N 
ATOM     26  O   UNL     1      48.258   5.686  20.633  0.00  0.00    +0.000 OA
ATOM     27  H   UNL     1      48.558   2.842  19.284  0.00  0.00    +0.000 HD
ATOM     28  H   UNL     1      48.486   3.211  21.001  0.00  0.00    +0.000 HD
ENDBRANCH  21  24
ENDBRANCH  17  18
ENDBRANCH  16  17
ENDBRANCH   2  16
TORSDOF 6
ENDMDL
MODEL 8
REMARK VINA RESULT:    -6.190      2.811      6.643
REMARK INTER + INTRA:          -9.276
REMARK INTER:                  -8.414
REMARK INTRA:                  -0.862
REMARK UNBOUND:                -0.914
REMARK  Name = 
REMARK  8 active torsions:
REMARK  status: ('A' for Active; 'I' for Inactive)
REMARK    1  A    between atoms: C_1  and  C_2
REMARK    2  A    between atoms: C_2  and  C_3
REMARK    3  A    between atoms: C_2  and  C_4
REMARK    4  A    between atoms: C_2  and  C_15
REMARK    5  A    between atoms: C_4  and  O_5
REMARK    6  A    between atoms: O_5  and  C_6
REMARK    7  A    between atoms: C_9  and  C_10
REMARK    8  A    between atoms: C_20  and  C_21
REMARK                            x       y       z     vdW  Elec       q    Type
REMARK                         _______ _______ _______ _____ _____    ______ ____
ROOT
ATOM      1  C   UNL     1      43.676   3.609  12.866  0.00  0.00    +0.000 C 
ATOM      2  C   UNL     1      43.995   4.871  12.025  0.00  0.00    +0.000 C 
ATOM      3  C   UNL     1      42.662   5.573  11.686  0.00  0.00    +0.000 C 
ENDROOT
BRANCH   2   4
ATOM      4  C   UNL     1      44.708   4.516  10.702  0.00  0.00    +0.000 A 
ATOM      5  C   UNL     1      45.321   5.508   9.921  0.00  0.00    +0.000 A 
ATOM      6  C   UNL     1      45.938   5.203   8.703  0.00  0.00    +0.000 A 
ATOM      7  C   UNL     1      45.981   3.890   8.233  0.00  0.00    +0.000 A 
ATOM      8 CL   UNL     1      46.790   3.642   6.726  0.00  0.00    +0.000 Cl
ATOM      9  C   UNL     1      45.417   2.867   9.001  0.00  0.00    +0.000 A 
ATOM     10  C   UNL     1      44.803   3.190  10.232  0.00  0.00    +0.000 A 
BRANCH   9  11
ATOM     11  C   UNL     1      45.426   1.425   8.631  0.00  0.00    +0.000 C 
ATOM     12  N   UNL     1      44.302   0.685   8.863  0.00  0.00    +0.000 N 
ATOM     13  O   UNL     1      46.430   0.899   8.165  0.00  0.00    +0.000 OA
ATOM     14  H   UNL     1      43.428   1.096   9.166  0.00  0.00    +0.000 HD
ATOM     15  H   UNL     1      44.300  -0.276   8.554  0.00  0.00    +0.000 HD
ENDBRANCH   9  11
ENDBRANCH   2   4
BRANCH   2  16
ATOM     16  C   UNL     1      44.813   5.833  12.941  0.00  0.00    +0.000 C 
BRANCH  16  17
ATOM     17  O   UNL     1      46.016   5.203  13.395  0.00  0.00    +0.000 OA
BRANCH  17  18
ATOM     18  C   UNL     1      47.151   5.961  13.366  0.00  0.00    +0.000 A 
ATOM     19  C   UNL     1      47.599   6.730  12.293  0.00  0.00    +0.000 A 
ATOM     20  C   UNL     1      48.775   7.469  12.418  0.00  0.00    +0.000 A 
ATOM     21  C   UNL     1      49.469   7.415  13.618  0.00  0.00    +0.000 A 
ATOM     22  N   UNL     1      49.074   6.671  14.688  0.00  0.00    +0.000 NA
ATOM     23  C   UNL     1      47.927   5.964  14.525  0.00  0.00    +0.000 A 
BRANCH  21  24
ATOM     24  C   UNL     1      50.720   8.224  13.776  0.00  0.00    +0.000 C 
ATOM     25  N   UNL     1      51.709   7.974  12.866  0.00  0.00    +0.000 N 
ATOM     26  O   UNL     1      50.861   9.050  14.667  0.00  0.00    +0.000 OA
ATOM     27  H   UNL     1      51.565   7.272  12.148  0.00  0.00    +0.000 HD
ATOM     28  H   UNL     1      52.584   8.470  12.932  0.00  0.00    +0.000 HD
ENDBRANCH  21  24
ENDBRANCH  17  18
ENDBRANCH  16  17
ENDBRANCH   2  16
TORSDOF 6
ENDMDL
MODEL 9
REMARK VINA RESULT:    -5.944      3.911      7.644
REMARK INTER + INTRA:          -8.942
REMARK INTER:                  -7.940
REMARK INTRA:                  -1.002
REMARK UNBOUND:                -0.914
REMARK  Name = 
REMARK  8 active torsions:
REMARK  status: ('A' for Active; 'I' for Inactive)
REMARK    1  A    between atoms: C_1  and  C_2
REMARK    2  A    between atoms: C_2  and  C_3
REMARK    3  A    between atoms: C_2  and  C_4
REMARK    4  A    between atoms: C_2  and  C_15
REMARK    5  A    between atoms: C_4  and  O_5
REMARK    6  A    between atoms: O_5  and  C_6
REMARK    7  A    between atoms: C_9  and  C_10
REMARK    8  A    between atoms: C_20  and  C_21
REMARK                            x       y       z     vdW  Elec       q    Type
REMARK                         _______ _______ _______ _____ _____    ______ ____
ROOT
ATOM      1  C   UNL     1      48.376   9.926  13.442  0.00  0.00    +0.000 C 
ATOM      2  C   UNL     1      48.515   8.570  12.703  0.00  0.00    +0.000 C 
ATOM      3  C   UNL     1      49.299   8.812  11.396  0.00  0.00    +0.000 C 
ENDROOT
BRANCH   2   4
ATOM      4  C   UNL     1      47.139   7.969  12.341  0.00  0.00    +0.000 A 
ATOM      5  C   UNL     1      46.075   8.790  11.935  0.00  0.00    +0.000 A 
ATOM      6  C   UNL     1      44.814   8.261  11.639  0.00  0.00    +0.000 A 
ATOM      7  C   UNL     1      44.579   6.888  11.719  0.00  0.00    +0.000 A 
ATOM      8 CL   UNL     1      42.986   6.359  11.309  0.00  0.00    +0.000 Cl
ATOM      9  C   UNL     1      45.623   6.032  12.081  0.00  0.00    +0.000 A 
ATOM     10  C   UNL     1      46.893   6.582  12.371  0.00  0.00    +0.000 A 
BRANCH   9  11
ATOM     11  C   UNL     1      45.514   4.550  12.170  0.00  0.00    +0.000 C 
ATOM     12  N   UNL     1      45.803   3.946  13.360  0.00  0.00    +0.000 N 
ATOM     13  O   UNL     1      45.210   3.880  11.191  0.00  0.00    +0.000 OA
ATOM     14  H   UNL     1      45.975   4.465  14.212  0.00  0.00    +0.000 HD
ATOM     15  H   UNL     1      45.668   2.947  13.425  0.00  0.00    +0.000 HD
ENDBRANCH   9  11
ENDBRANCH   2   4
BRANCH   2  16
ATOM     16  C   UNL     1      49.385   7.646  13.609  0.00  0.00    +0.000 C 
BRANCH  16  17
ATOM     17  O   UNL     1      49.177   7.949  14.994  0.00  0.00    +0.000 OA
BRANCH  17  18
ATOM     18  C   UNL     1      48.834   6.903  15.802  0.00  0.00    +0.000 A 
ATOM     19  C   UNL     1      48.929   6.873  17.192  0.00  0.00    +0.000 A 
ATOM     20  C   UNL     1      48.524   5.733  17.886  0.00  0.00    +0.000 A 
ATOM     21  C   UNL     1      48.036   4.653  17.164  0.00  0.00    +0.000 A 
ATOM     22  N   UNL     1      47.935   4.636  15.805  0.00  0.00    +0.000 NA
ATOM     23  C   UNL     1      48.342   5.762  15.168  0.00  0.00    +0.000 A 
BRANCH  21  24
ATOM     24  C   UNL     1      47.573   3.433  17.897  0.00  0.00    +0.000 C 
ATOM     25  N   UNL     1      48.316   3.075  18.987  0.00  0.00    +0.000 N 
ATOM     26  O   UNL     1      46.599   2.782  17.543  0.00  0.00    +0.000 OA
ATOM     27  H   UNL     1      49.127   3.628  19.245  0.00  0.00    +0.000 HD
ATOM     28  H   UNL     1      48.069   2.250  19.510  0.00  0.00    +0.000 HD
ENDBRANCH  21  24
ENDBRANCH  17  18
ENDBRANCH  16  17
ENDBRANCH   2  16
TORSDOF 6
ENDMDL
