MODEL 1
REMARK VINA RESULT:    -8.719      0.000      0.000
REMARK INTER + INTRA:         -12.945
REMARK INTER:                 -11.777
REMARK INTRA:                  -1.168
REMARK UNBOUND:                -1.168
REMARK  Name = 
REMARK  9 active torsions:
REMARK  status: ('A' for Active; 'I' for Inactive)
REMARK    1  A    between atoms: C_1  and  N_2
REMARK    2  A    between atoms: N_5  and  C_6
REMARK    3  A    between atoms: C_10  and  C_11
REMARK    4  A    between atoms: C_11  and  C_12
REMARK    5  A    between atoms: C_11  and  C_13
REMARK    6  A    between atoms: C_11  and  C_14
REMARK    7  A    between atoms: C_14  and  N_15
REMARK    8  A    between atoms: N_15  and  C_16
REMARK    9  A    between atoms: C_19  and  C_20
REMARK                            x       y       z     vdW  Elec       q    Type
REMARK                         _______ _______ _______ _____ _____    ______ ____
ROOT
ATOM      1  C   UNL     1      43.879   4.823  12.043  0.00  0.00    +0.000 C 
ATOM      2  C   UNL     1      43.034   4.762  13.338  0.00  0.00    +0.000 C 
ATOM      3  C   UNL     1      43.139   5.715  11.020  0.00  0.00    +0.000 C 
ENDROOT
BRANCH   1   8
ATOM      4  C   UNL     1      47.173   5.699  13.922  0.00  0.00    +0.000 A 
ATOM      5  C   UNL     1      47.832   6.431  12.929  0.00  0.00    +0.000 A 
ATOM      6  C   UNL     1      47.230   6.693  11.696  0.00  0.00    +0.000 A 
ATOM      7  C   UNL     1      45.958   6.196  11.415  0.00  0.00    +0.000 A 
ATOM      8  C   UNL     1      45.253   5.448  12.371  0.00  0.00    +0.000 A 
ATOM      9  C   UNL     1      45.875   5.261  13.620  0.00  0.00    +0.000 A 
BRANCH   4  14
ATOM     10  C   UNL     1      48.030   5.378  19.376  0.00  0.00    +0.000 C 
ATOM     11  N   UNL     1      48.314   5.125  17.967  0.00  0.00    +0.000 NA
ATOM     12  C   UNL     1      47.197   4.398  17.324  0.00  0.00    +0.000 C 
ATOM     13  C   UNL     1      47.451   4.113  15.822  0.00  0.00    +0.000 C 
ATOM     14  N   UNL     1      47.768   5.361  15.118  0.00  0.00    +0.000 N 
ATOM     15  C   UNL     1      48.840   6.160  15.740  0.00  0.00    +0.000 C 
ATOM     16  C   UNL     1      48.543   6.394  17.239  0.00  0.00    +0.000 C 
ENDBRANCH   4  14
ENDBRANCH   1   8
BRANCH   1  17
ATOM     17  C   UNL     1      43.937   3.355  11.480  0.00  0.00    +0.000 C 
BRANCH  17  18
ATOM     18  N   UNL     1      43.734   3.287  10.025  0.00  0.00    +0.000 N 
ATOM     19  H   UNL     1      43.050   3.946   9.661  0.00  0.00    +0.000 HD
BRANCH  18  20
ATOM     20  C   UNL     1      44.798   3.037   9.160  0.00  0.00    +0.000 A 
ATOM     21  C   UNL     1      45.294   1.755   8.903  0.00  0.00    +0.000 A 
ATOM     22  C   UNL     1      46.275   1.537   7.926  0.00  0.00    +0.000 A 
ATOM     23  C   UNL     1      46.766   2.603   7.169  0.00  0.00    +0.000 A 
ATOM     24  C   UNL     1      46.301   3.892   7.423  0.00  0.00    +0.000 A 
ATOM     25  C   UNL     1      45.320   4.099   8.403  0.00  0.00    +0.000 A 
BRANCH  23  26
ATOM     26  C   UNL     1      47.778   2.311   6.116  0.00  0.00    +0.000 C 
ATOM     27  N   UNL     1      47.790   3.119   5.012  0.00  0.00    +0.000 N 
ATOM     28  O   UNL     1      48.543   1.363   6.207  0.00  0.00    +0.000 OA
ATOM     29  H   UNL     1      47.023   3.733   4.779  0.00  0.00    +0.000 HD
ATOM     30  H   UNL     1      48.398   2.827   4.256  0.00  0.00    +0.000 HD
ENDBRANCH  23  26
ENDBRANCH  18  20
ENDBRANCH  17  18
ENDBRANCH   1  17
TORSDOF 6
ENDMDL
MODEL 2
REMARK VINA RESULT:    -7.881      1.304      1.625
REMARK INTER + INTRA:         -11.813
REMARK INTER:                 -10.787
REMARK INTRA:                  -1.026
REMARK UNBOUND:                -1.168
REMARK  Name = 
REMARK  9 active torsions:
REMARK  status: ('A' for Active; 'I' for Inactive)
REMARK    1  A    between atoms: C_1  and  N_2
REMARK    2  A    between atoms: N_5  and  C_6
REMARK    3  A    between atoms: C_10  and  C_11
REMARK    4  A    between atoms: C_11  and  C_12
REMARK    5  A    between atoms: C_11  and  C_13
REMARK    6  A    between atoms: C_11  and  C_14
REMARK    7  A    between atoms: C_14  and  N_15
REMARK    8  A    between atoms: N_15  and  C_16
REMARK    9  A    between atoms: C_19  and  C_20
REMARK                            x       y       z     vdW  Elec       q    Type
REMARK                         _______ _______ _______ _____ _____    ______ ____
ROOT
ATOM      1  C   UNL     1      43.579   4.810  12.293  0.00  0.00    +0.000 C 
ATOM      2  C   UNL     1      43.035   4.485  13.705  0.00  0.00    +0.000 C 
ATOM      3  C   UNL     1      42.401   5.293  11.416  0.00  0.00    +0.000 C 
ENDROOT
BRANCH   1   8
ATOM      4  C   UNL     1      46.833   6.730  13.227  0.00  0.00    +0.000 A 
ATOM      5  C   UNL     1      46.641   7.905  12.494  0.00  0.00    +0.000 A 
ATOM      6  C   UNL     1      45.477   8.119  11.750  0.00  0.00    +0.000 A 
ATOM      7  C   UNL     1      44.487   7.139  11.698  0.00  0.00    +0.000 A 
ATOM      8  C   UNL     1      44.629   5.936  12.408  0.00  0.00    +0.000 A 
ATOM      9  C   UNL     1      45.791   5.792  13.191  0.00  0.00    +0.000 A 
BRANCH   4  14
ATOM     10  C   UNL     1      50.850   7.165  17.003  0.00  0.00    +0.000 C 
ATOM     11  N   UNL     1      50.166   6.594  15.847  0.00  0.00    +0.000 NA
ATOM     12  C   UNL     1      48.819   6.107  16.217  0.00  0.00    +0.000 C 
ATOM     13  C   UNL     1      48.050   5.498  15.017  0.00  0.00    +0.000 C 
ATOM     14  N   UNL     1      47.999   6.459  13.909  0.00  0.00    +0.000 N 
ATOM     15  C   UNL     1      49.307   7.023  13.527  0.00  0.00    +0.000 C 
ATOM     16  C   UNL     1      50.034   7.596  14.765  0.00  0.00    +0.000 C 
ENDBRANCH   4  14
ENDBRANCH   1   8
BRANCH   1  17
ATOM     17  C   UNL     1      44.122   3.456  11.703  0.00  0.00    +0.000 C 
BRANCH  17  18
ATOM     18  N   UNL     1      43.830   3.292  10.271  0.00  0.00    +0.000 N 
ATOM     19  H   UNL     1      43.091   3.896   9.917  0.00  0.00    +0.000 HD
BRANCH  18  20
ATOM     20  C   UNL     1      44.848   3.043   9.352  0.00  0.00    +0.000 A 
ATOM     21  C   UNL     1      45.315   1.760   9.054  0.00  0.00    +0.000 A 
ATOM     22  C   UNL     1      46.245   1.544   8.028  0.00  0.00    +0.000 A 
ATOM     23  C   UNL     1      46.713   2.616   7.263  0.00  0.00    +0.000 A 
ATOM     24  C   UNL     1      46.277   3.906   7.557  0.00  0.00    +0.000 A 
ATOM     25  C   UNL     1      45.346   4.110   8.587  0.00  0.00    +0.000 A 
BRANCH  23  26
ATOM     26  C   UNL     1      47.669   2.327   6.158  0.00  0.00    +0.000 C 
ATOM     27  N   UNL     1      47.664   3.173   5.083  0.00  0.00    +0.000 N 
ATOM     28  O   UNL     1      48.403   1.351   6.184  0.00  0.00    +0.000 OA
ATOM     29  H   UNL     1      46.910   3.821   4.905  0.00  0.00    +0.000 HD
ATOM     30  H   UNL     1      48.229   2.888   4.293  0.00  0.00    +0.000 HD
ENDBRANCH  23  26
ENDBRANCH  18  20
ENDBRANCH  17  18
ENDBRANCH   1  17
TORSDOF 6
ENDMDL
MODEL 3
REMARK VINA RESULT:    -7.806      2.216      3.758
REMARK INTER + INTRA:         -11.712
REMARK INTER:                 -10.529
REMARK INTRA:                  -1.183
REMARK UNBOUND:                -1.168
REMARK  Name = 
REMARK  9 active torsions:
REMARK  status: ('A' for Active; 'I' for Inactive)
REMARK    1  A    between atoms: C_1  and  N_2
REMARK    2  A    between atoms: N_5  and  C_6
REMARK    3  A    between atoms: C_10  and  C_11
REMARK    4  A    between atoms: C_11  and  C_12
REMARK    5  A    between atoms: C_11  and  C_13
REMARK    6  A    between atoms: C_11  and  C_14
REMARK    7  A    between atoms: C_14  and  N_15
REMARK    8  A    between atoms: N_15  and  C_16
REMARK    9  A    between atoms: C_19  and  C_20
REMARK                            x       y       z     vdW  Elec       q    Type
REMARK                         _______ _______ _______ _____ _____    ______ ____
ROOT
ATOM      1  C   UNL     1      43.643   5.109  12.146  0.00  0.00    +0.000 C 
ATOM      2  C   UNL     1      42.746   5.021  13.405  0.00  0.00    +0.000 C 
ATOM      3  C   UNL     1      43.194   6.332  11.314  0.00  0.00    +0.000 C 
ENDROOT
BRANCH   1   8
ATOM      4  C   UNL     1      47.078   6.776  12.896  0.00  0.00    +0.000 A 
ATOM      5  C   UNL     1      47.726   5.719  13.541  0.00  0.00    +0.000 A 
ATOM      6  C   UNL     1      47.112   4.474  13.697  0.00  0.00    +0.000 A 
ATOM      7  C   UNL     1      45.812   4.269  13.236  0.00  0.00    +0.000 A 
ATOM      8  C   UNL     1      45.110   5.297  12.588  0.00  0.00    +0.000 A 
ATOM      9  C   UNL     1      45.792   6.515  12.400  0.00  0.00    +0.000 A 
BRANCH   4  14
ATOM     10  C   UNL     1      48.865  11.479  10.598  0.00  0.00    +0.000 C 
ATOM     11  N   UNL     1      48.597  10.549  11.690  0.00  0.00    +0.000 NA
ATOM     12  C   UNL     1      47.153  10.245  11.784  0.00  0.00    +0.000 C 
ATOM     13  C   UNL     1      46.820   9.254  12.928  0.00  0.00    +0.000 C 
ATOM     14  N   UNL     1      47.628   8.036  12.793  0.00  0.00    +0.000 N 
ATOM     15  C   UNL     1      49.075   8.274  12.641  0.00  0.00    +0.000 C 
ATOM     16  C   UNL     1      49.343   9.285  11.501  0.00  0.00    +0.000 C 
ENDBRANCH   4  14
ENDBRANCH   1   8
BRANCH   1  17
ATOM     17  C   UNL     1      43.365   3.805  11.310  0.00  0.00    +0.000 C 
BRANCH  17  18
ATOM     18  N   UNL     1      43.524   4.002   9.862  0.00  0.00    +0.000 N 
ATOM     19  H   UNL     1      43.209   4.908   9.520  0.00  0.00    +0.000 HD
BRANCH  18  20
ATOM     20  C   UNL     1      44.630   3.494   9.182  0.00  0.00    +0.000 A 
ATOM     21  C   UNL     1      44.930   2.129   9.119  0.00  0.00    +0.000 A 
ATOM     22  C   UNL     1      45.973   1.651   8.315  0.00  0.00    +0.000 A 
ATOM     23  C   UNL     1      46.729   2.534   7.539  0.00  0.00    +0.000 A 
ATOM     24  C   UNL     1      46.460   3.900   7.604  0.00  0.00    +0.000 A 
ATOM     25  C   UNL     1      45.414   4.368   8.412  0.00  0.00    +0.000 A 
BRANCH  23  26
ATOM     26  C   UNL     1      47.799   1.970   6.671  0.00  0.00    +0.000 C 
ATOM     27  N   UNL     1      48.701   2.846   6.133  0.00  0.00    +0.000 N 
ATOM     28  O   UNL     1      47.852   0.777   6.411  0.00  0.00    +0.000 OA
ATOM     29  H   UNL     1      48.542   3.842   6.106  0.00  0.00    +0.000 HD
ATOM     30  H   UNL     1      49.341   2.459   5.449  0.00  0.00    +0.000 HD
ENDBRANCH  23  26
ENDBRANCH  18  20
ENDBRANCH  17  18
ENDBRANCH   1  17
TORSDOF 6
ENDMDL
MODEL 4
REMARK VINA RESULT:    -7.196      2.658      8.168
REMARK INTER + INTRA:         -10.889
REMARK INTER:                  -9.643
REMARK INTRA:                  -1.246
REMARK UNBOUND:                -1.168
REMARK  Name = 
REMARK  9 active torsions:
REMARK  status: ('A' for Active; 'I' for Inactive)
REMARK    1  A    between atoms: C_1  and  N_2
REMARK    2  A    between atoms: N_5  and  C_6
REMARK    3  A    between atoms: C_10  and  C_11
REMARK    4  A    between atoms: C_11  and  C_12
REMARK    5  A    between atoms: C_11  and  C_13
REMARK    6  A    between atoms: C_11  and  C_14
REMARK    7  A    between atoms: C_14  and  N_15
REMARK    8  A    between atoms: N_15  and  C_16
REMARK    9  A    between atoms: C_19  and  C_20
REMARK                            x       y       z     vdW  Elec       q    Type
REMARK                         _______ _______ _______ _____ _____    ______ ____
ROOT
ATOM      1  C   UNL     1      46.622   7.877  12.125  0.00  0.00    +0.000 C 
ATOM      2  C   UNL     1      47.941   7.560  11.378  0.00  0.00    +0.000 C 
ATOM      3  C   UNL     1      46.040   9.188  11.550  0.00  0.00    +0.000 C 
ENDROOT
BRANCH   1   8
ATOM      4  C   UNL     1      44.849   4.813  10.508  0.00  0.00    +0.000 A 
ATOM      5  C   UNL     1      43.928   4.507  11.514  0.00  0.00    +0.000 A 
ATOM      6  C   UNL     1      43.826   5.284  12.670  0.00  0.00    +0.000 A 
ATOM      7  C   UNL     1      44.673   6.374  12.861  0.00  0.00    +0.000 A 
ATOM      8  C   UNL     1      45.624   6.723  11.889  0.00  0.00    +0.000 A 
ATOM      9  C   UNL     1      45.648   5.948  10.715  0.00  0.00    +0.000 A 
BRANCH   4  14
ATOM     10  C   UNL     1      47.228   1.278   6.981  0.00  0.00    +0.000 C 
ATOM     11  N   UNL     1      46.181   2.172   7.468  0.00  0.00    +0.000 NA
ATOM     12  C   UNL     1      45.658   1.713   8.773  0.00  0.00    +0.000 C 
ATOM     13  C   UNL     1      44.547   2.637   9.333  0.00  0.00    +0.000 C 
ATOM     14  N   UNL     1      45.025   4.024   9.392  0.00  0.00    +0.000 N 
ATOM     15  C   UNL     1      45.609   4.525   8.134  0.00  0.00    +0.000 C 
ATOM     16  C   UNL     1      46.693   3.553   7.614  0.00  0.00    +0.000 C 
ENDBRANCH   4  14
ENDBRANCH   1   8
BRANCH   1  17
ATOM     17  C   UNL     1      47.011   8.118  13.631  0.00  0.00    +0.000 C 
BRANCH  17  18
ATOM     18  N   UNL     1      48.233   7.407  14.033  0.00  0.00    +0.000 N 
ATOM     19  H   UNL     1      49.054   7.999  14.136  0.00  0.00    +0.000 HD
BRANCH  18  20
ATOM     20  C   UNL     1      48.185   6.343  14.932  0.00  0.00    +0.000 A 
ATOM     21  C   UNL     1      48.796   6.374  16.190  0.00  0.00    +0.000 A 
ATOM     22  C   UNL     1      48.610   5.337  17.114  0.00  0.00    +0.000 A 
ATOM     23  C   UNL     1      47.788   4.251  16.801  0.00  0.00    +0.000 A 
ATOM     24  C   UNL     1      47.187   4.190  15.545  0.00  0.00    +0.000 A 
ATOM     25  C   UNL     1      47.381   5.233  14.628  0.00  0.00    +0.000 A 
BRANCH  23  26
ATOM     26  C   UNL     1      47.592   3.196  17.833  0.00  0.00    +0.000 C 
ATOM     27  N   UNL     1      48.483   3.156  18.870  0.00  0.00    +0.000 N 
ATOM     28  O   UNL     1      46.698   2.369  17.743  0.00  0.00    +0.000 OA
ATOM     29  H   UNL     1      49.369   3.639  18.844  0.00  0.00    +0.000 HD
ATOM     30  H   UNL     1      48.407   2.358  19.489  0.00  0.00    +0.000 HD
ENDBRANCH  23  26
ENDBRANCH  18  20
ENDBRANCH  17  18
ENDBRANCH   1  17
TORSDOF 6
ENDMDL
MODEL 5
REMARK VINA RESULT:    -7.139      1.826      2.818
REMARK INTER + INTRA:         -10.811
REMARK INTER:                 -10.041
REMARK INTRA:                  -0.770
REMARK UNBOUND:                -1.168
REMARK  Name = 
REMARK  9 active torsions:
REMARK  status: ('A' for Active; 'I' for Inactive)
REMARK    1  A    between atoms: C_1  and  N_2
REMARK    2  A    between atoms: N_5  and  C_6
REMARK    3  A    between atoms: C_10  and  C_11
REMARK    4  A    between atoms: C_11  and  C_12
REMARK    5  A    between atoms: C_11  and  C_13
REMARK    6  A    between atoms: C_11  and  C_14
REMARK    7  A    between atoms: C_14  and  N_15
REMARK    8  A    between atoms: N_15  and  C_16
REMARK    9  A    between atoms: C_19  and  C_20
REMARK                            x       y       z     vdW  Elec       q    Type
REMARK                         _______ _______ _______ _____ _____    ______ ____
ROOT
ATOM      1  C   UNL     1      45.835   6.337  11.993  0.00  0.00    +0.000 C 
ATOM      2  C   UNL     1      45.150   7.660  12.412  0.00  0.00    +0.000 C 
ATOM      3  C   UNL     1      46.869   6.652  10.888  0.00  0.00    +0.000 C 
ENDROOT
BRANCH   1   8
ATOM      4  C   UNL     1      48.135   6.008  15.115  0.00  0.00    +0.000 A 
ATOM      5  C   UNL     1      47.764   4.735  15.558  0.00  0.00    +0.000 A 
ATOM      6  C   UNL     1      46.835   3.961  14.856  0.00  0.00    +0.000 A 
ATOM      7  C   UNL     1      46.230   4.462  13.705  0.00  0.00    +0.000 A 
ATOM      8  C   UNL     1      46.558   5.738  13.219  0.00  0.00    +0.000 A 
ATOM      9  C   UNL     1      47.542   6.455  13.925  0.00  0.00    +0.000 A 
BRANCH   4  14
ATOM     10  C   UNL     1      50.140   9.039  19.284  0.00  0.00    +0.000 C 
ATOM     11  N   UNL     1      50.140   8.442  17.952  0.00  0.00    +0.000 NA
ATOM     12  C   UNL     1      50.093   6.966  18.035  0.00  0.00    +0.000 C 
ATOM     13  C   UNL     1      50.084   6.286  16.642  0.00  0.00    +0.000 C 
ATOM     14  N   UNL     1      48.990   6.824  15.824  0.00  0.00    +0.000 N 
ATOM     15  C   UNL     1      48.950   8.295  15.746  0.00  0.00    +0.000 C 
ATOM     16  C   UNL     1      48.982   8.916  17.162  0.00  0.00    +0.000 C 
ENDBRANCH   4  14
ENDBRANCH   1   8
BRANCH   1  17
ATOM     17  C   UNL     1      44.707   5.427  11.380  0.00  0.00    +0.000 C 
BRANCH  17  18
ATOM     18  N   UNL     1      44.689   5.441   9.910  0.00  0.00    +0.000 N 
ATOM     19  H   UNL     1      44.876   6.350   9.492  0.00  0.00    +0.000 HD
BRANCH  18  20
ATOM     20  C   UNL     1      45.182   4.367   9.172  0.00  0.00    +0.000 A 
ATOM     21  C   UNL     1      46.013   4.518   8.057  0.00  0.00    +0.000 A 
ATOM     22  C   UNL     1      46.594   3.410   7.427  0.00  0.00    +0.000 A 
ATOM     23  C   UNL     1      46.367   2.120   7.917  0.00  0.00    +0.000 A 
ATOM     24  C   UNL     1      45.526   1.945   9.014  0.00  0.00    +0.000 A 
ATOM     25  C   UNL     1      44.949   3.061   9.636  0.00  0.00    +0.000 A 
BRANCH  23  26
ATOM     26  C   UNL     1      47.041   0.980   7.235  0.00  0.00    +0.000 C 
ATOM     27  N   UNL     1      46.718  -0.282   7.651  0.00  0.00    +0.000 N 
ATOM     28  O   UNL     1      47.881   1.158   6.367  0.00  0.00    +0.000 OA
ATOM     29  H   UNL     1      46.241  -0.462   8.523  0.00  0.00    +0.000 HD
ATOM     30  H   UNL     1      47.277  -1.033   7.264  0.00  0.00    +0.000 HD
ENDBRANCH  23  26
ENDBRANCH  18  20
ENDBRANCH  17  18
ENDBRANCH   1  17
TORSDOF 6
ENDMDL
MODEL 6
REMARK VINA RESULT:    -6.614      3.101      5.260
REMARK INTER + INTRA:         -10.102
REMARK INTER:                  -8.865
REMARK INTRA:                  -1.237
REMARK UNBOUND:                -1.168
REMARK  Name = 
REMARK  9 active torsions:
REMARK  status: ('A' for Active; 'I' for Inactive)
REMARK    1  A    between atoms: C_1  and  N_2
REMARK    2  A    between atoms: N_5  and  C_6
REMARK    3  A    between atoms: C_10  and  C_11
REMARK    4  A    between atoms: C_11  and  C_12
REMARK    5  A    between atoms: C_11  and  C_13
REMARK    6  A    between atoms: C_11  and  C_14
REMARK    7  A    between atoms: C_14  and  N_15
REMARK    8  A    between atoms: N_15  and  C_16
REMARK    9  A    between atoms: C_19  and  C_20
REMARK                            x       y       z     vdW  Elec       q    Type
REMARK                         _______ _______ _______ _____ _____    ______ ____
ROOT
ATOM      1  C   UNL     1      48.487   8.247  13.165  0.00  0.00    +0.000 C 
ATOM      2  C   UNL     1      49.344   9.466  12.747  0.00  0.00    +0.000 C 
ATOM      3  C   UNL     1      49.135   6.971  12.579  0.00  0.00    +0.000 C 
ENDROOT
BRANCH   1   8
ATOM      4  C   UNL     1      48.816   6.825  16.773  0.00  0.00    +0.000 A 
ATOM      5  C   UNL     1      48.608   7.992  17.514  0.00  0.00    +0.000 A 
ATOM      6  C   UNL     1      48.317   9.209  16.892  0.00  0.00    +0.000 A 
ATOM      7  C   UNL     1      48.259   9.290  15.501  0.00  0.00    +0.000 A 
ATOM      8  C   UNL     1      48.467   8.153  14.706  0.00  0.00    +0.000 A 
ATOM      9  C   UNL     1      48.698   6.938  15.379  0.00  0.00    +0.000 A 
BRANCH   4  14
ATOM     10  C   UNL     1      50.842   1.701  17.249  0.00  0.00    +0.000 C 
ATOM     11  N   UNL     1      50.219   2.935  17.718  0.00  0.00    +0.000 NA
ATOM     12  C   UNL     1      51.113   4.093  17.504  0.00  0.00    +0.000 C 
ATOM     13  C   UNL     1      50.490   5.430  17.980  0.00  0.00    +0.000 C 
ATOM     14  N   UNL     1      49.178   5.628  17.352  0.00  0.00    +0.000 N 
ATOM     15  C   UNL     1      48.257   4.484  17.484  0.00  0.00    +0.000 C 
ATOM     16  C   UNL     1      48.940   3.179  17.014  0.00  0.00    +0.000 C 
ENDBRANCH   4  14
ENDBRANCH   1   8
BRANCH   1  17
ATOM     17  C   UNL     1      47.076   8.445  12.496  0.00  0.00    +0.000 C 
BRANCH  17  18
ATOM     18  N   UNL     1      45.988   7.794  13.239  0.00  0.00    +0.000 N 
ATOM     19  H   UNL     1      45.346   8.435  13.700  0.00  0.00    +0.000 HD
BRANCH  18  20
ATOM     20  C   UNL     1      45.383   6.632  12.762  0.00  0.00    +0.000 A 
ATOM     21  C   UNL     1      44.610   6.592  11.597  0.00  0.00    +0.000 A 
ATOM     22  C   UNL     1      44.133   5.380  11.082  0.00  0.00    +0.000 A 
ATOM     23  C   UNL     1      44.439   4.174  11.717  0.00  0.00    +0.000 A 
ATOM     24  C   UNL     1      45.189   4.192  12.891  0.00  0.00    +0.000 A 
ATOM     25  C   UNL     1      45.661   5.411  13.398  0.00  0.00    +0.000 A 
BRANCH  23  26
ATOM     26  C   UNL     1      43.941   2.910  11.106  0.00  0.00    +0.000 C 
ATOM     27  N   UNL     1      44.626   2.418  10.029  0.00  0.00    +0.000 N 
ATOM     28  O   UNL     1      42.935   2.352  11.517  0.00  0.00    +0.000 OA
ATOM     29  H   UNL     1      45.287   2.974   9.505  0.00  0.00    +0.000 HD
ATOM     30  H   UNL     1      44.200   1.633   9.554  0.00  0.00    +0.000 HD
ENDBRANCH  23  26
ENDBRANCH  18  20
ENDBRANCH  17  18
ENDBRANCH   1  17
TORSDOF 6
ENDMDL
MODEL 7
REMARK VINA RESULT:    -5.986      4.305      8.306
REMARK INTER + INTRA:          -9.254
REMARK INTER:                  -8.017
REMARK INTRA:                  -1.237
REMARK UNBOUND:                -1.168
REMARK  Name = 
REMARK  9 active torsions:
REMARK  status: ('A' for Active; 'I' for Inactive)
REMARK    1  A    between atoms: C_1  and  N_2
REMARK    2  A    between atoms: N_5  and  C_6
REMARK    3  A    between atoms: C_10  and  C_11
REMARK    4  A    between atoms: C_11  and  C_12
REMARK    5  A    between atoms: C_11  and  C_13
REMARK    6  A    between atoms: C_11  and  C_14
REMARK    7  A    between atoms: C_14  and  N_15
REMARK    8  A    between atoms: N_15  and  C_16
REMARK    9  A    between atoms: C_19  and  C_20
REMARK                            x       y       z     vdW  Elec       q    Type
REMARK                         _______ _______ _______ _____ _____    ______ ____
ROOT
ATOM      1  C   UNL     1      49.243   8.639  12.473  0.00  0.00    +0.000 C 
ATOM      2  C   UNL     1      49.864   7.404  11.775  0.00  0.00    +0.000 C 
ATOM      3  C   UNL     1      49.737   9.910  11.746  0.00  0.00    +0.000 C 
ENDROOT
BRANCH   1   8
ATOM      4  C   UNL     1      45.618   7.225  12.575  0.00  0.00    +0.000 A 
ATOM      5  C   UNL     1      44.893   8.400  12.356  0.00  0.00    +0.000 A 
ATOM      6  C   UNL     1      45.533   9.620  12.127  0.00  0.00    +0.000 A 
ATOM      7  C   UNL     1      46.925   9.697  12.145  0.00  0.00    +0.000 A 
ATOM      8  C   UNL     1      47.705   8.552  12.369  0.00  0.00    +0.000 A 
ATOM      9  C   UNL     1      47.016   7.335  12.535  0.00  0.00    +0.000 A 
BRANCH   4  14
ATOM     10  C   UNL     1      43.420   2.202  11.849  0.00  0.00    +0.000 C 
ATOM     11  N   UNL     1      43.842   3.373  12.612  0.00  0.00    +0.000 NA
ATOM     12  C   UNL     1      45.298   3.597  12.474  0.00  0.00    +0.000 C 
ATOM     13  C   UNL     1      45.792   4.836  13.262  0.00  0.00    +0.000 C 
ATOM     14  N   UNL     1      45.017   6.023  12.878  0.00  0.00    +0.000 N 
ATOM     15  C   UNL     1      43.555   5.846  12.942  0.00  0.00    +0.000 C 
ATOM     16  C   UNL     1      43.124   4.585  12.157  0.00  0.00    +0.000 C 
ENDBRANCH   4  14
ENDBRANCH   1   8
BRANCH   1  17
ATOM     17  C   UNL     1      49.807   8.650  13.942  0.00  0.00    +0.000 C 
BRANCH  17  18
ATOM     18  N   UNL     1      50.264   7.328  14.395  0.00  0.00    +0.000 N 
ATOM     19  H   UNL     1      51.245   7.132  14.212  0.00  0.00    +0.000 HD
BRANCH  18  20
ATOM     20  C   UNL     1      49.786   6.767  15.578  0.00  0.00    +0.000 A 
ATOM     21  C   UNL     1      48.589   6.048  15.659  0.00  0.00    +0.000 A 
ATOM     22  C   UNL     1      48.214   5.389  16.836  0.00  0.00    +0.000 A 
ATOM     23  C   UNL     1      49.046   5.420  17.959  0.00  0.00    +0.000 A 
ATOM     24  C   UNL     1      50.233   6.148  17.907  0.00  0.00    +0.000 A 
ATOM     25  C   UNL     1      50.598   6.805  16.724  0.00  0.00    +0.000 A 
BRANCH  23  26
ATOM     26  C   UNL     1      48.620   4.669  19.172  0.00  0.00    +0.000 C 
ATOM     27  N   UNL     1      48.452   3.317  19.049  0.00  0.00    +0.000 N 
ATOM     28  O   UNL     1      48.387   5.236  20.228  0.00  0.00    +0.000 OA
ATOM     29  H   UNL     1      48.378   2.857  18.153  0.00  0.00    +0.000 HD
ATOM     30  H   UNL     1      48.043   2.847  19.847  0.00  0.00    +0.000 HD
ENDBRANCH  23  26
ENDBRANCH  18  20
ENDBRANCH  17  18
ENDBRANCH   1  17
TORSDOF 6
ENDMDL
MODEL 8
REMARK VINA RESULT:    -5.963      3.746      6.056
REMARK INTER + INTRA:          -9.223
REMARK INTER:                  -8.007
REMARK INTRA:                  -1.216
REMARK UNBOUND:                -1.168
REMARK  Name = 
REMARK  9 active torsions:
REMARK  status: ('A' for Active; 'I' for Inactive)
REMARK    1  A    between atoms: C_1  and  N_2
REMARK    2  A    between atoms: N_5  and  C_6
REMARK    3  A    between atoms: C_10  and  C_11
REMARK    4  A    between atoms: C_11  and  C_12
REMARK    5  A    between atoms: C_11  and  C_13
REMARK    6  A    between atoms: C_11  and  C_14
REMARK    7  A    between atoms: C_14  and  N_15
REMARK    8  A    between atoms: N_15  and  C_16
REMARK    9  A    between atoms: C_19  and  C_20
REMARK                            x       y       z     vdW  Elec       q    Type
REMARK                         _______ _______ _______ _____ _____    ______ ____
ROOT
ATOM      1  C   UNL     1      50.191   8.834  12.615  0.00  0.00    +0.000 C 
ATOM      2  C   UNL     1      50.371  10.371  12.593  0.00  0.00    +0.000 C 
ATOM      3  C   UNL     1      50.835   8.250  11.336  0.00  0.00    +0.000 C 
ENDROOT
BRANCH   1   8
ATOM      4  C   UNL     1      50.834   6.905  15.934  0.00  0.00    +0.000 A 
ATOM      5  C   UNL     1      52.219   7.064  16.043  0.00  0.00    +0.000 A 
ATOM      6  C   UNL     1      52.943   7.813  15.111  0.00  0.00    +0.000 A 
ATOM      7  C   UNL     1      52.295   8.396  14.023  0.00  0.00    +0.000 A 
ATOM      8  C   UNL     1      50.907   8.263  13.858  0.00  0.00    +0.000 A 
ATOM      9  C   UNL     1      50.213   7.551  14.854  0.00  0.00    +0.000 A 
BRANCH   4  14
ATOM     10  C   UNL     1      47.578   2.794  17.689  0.00  0.00    +0.000 C 
ATOM     11  N   UNL     1      48.403   3.990  17.826  0.00  0.00    +0.000 NA
ATOM     12  C   UNL     1      49.790   3.731  17.385  0.00  0.00    +0.000 C 
ATOM     13  C   UNL     1      50.703   4.977  17.506  0.00  0.00    +0.000 C 
ATOM     14  N   UNL     1      50.105   6.113  16.793  0.00  0.00    +0.000 N 
ATOM     15  C   UNL     1      48.702   6.391  17.151  0.00  0.00    +0.000 C 
ATOM     16  C   UNL     1      47.846   5.108  17.031  0.00  0.00    +0.000 C 
ENDBRANCH   4  14
ENDBRANCH   1   8
BRANCH   1  17
ATOM     17  C   UNL     1      48.641   8.566  12.563  0.00  0.00    +0.000 C 
BRANCH  17  18
ATOM     18  N   UNL     1      48.292   7.333  11.843  0.00  0.00    +0.000 N 
ATOM     19  H   UNL     1      49.083   6.735  11.618  0.00  0.00    +0.000 HD
BRANCH  18  20
ATOM     20  C   UNL     1      47.120   6.637  12.133  0.00  0.00    +0.000 A 
ATOM     21  C   UNL     1      46.058   6.512  11.232  0.00  0.00    +0.000 A 
ATOM     22  C   UNL     1      44.957   5.693  11.513  0.00  0.00    +0.000 A 
ATOM     23  C   UNL     1      44.907   4.962  12.704  0.00  0.00    +0.000 A 
ATOM     24  C   UNL     1      45.944   5.088  13.626  0.00  0.00    +0.000 A 
ATOM     25  C   UNL     1      47.041   5.912  13.334  0.00  0.00    +0.000 A 
BRANCH  23  26
ATOM     26  C   UNL     1      43.734   4.075  12.936  0.00  0.00    +0.000 C 
ATOM     27  N   UNL     1      43.876   2.749  12.632  0.00  0.00    +0.000 N 
ATOM     28  O   UNL     1      42.668   4.513  13.342  0.00  0.00    +0.000 OA
ATOM     29  H   UNL     1      44.631   2.401  12.059  0.00  0.00    +0.000 HD
ATOM     30  H   UNL     1      43.032   2.191  12.678  0.00  0.00    +0.000 HD
ENDBRANCH  23  26
ENDBRANCH  18  20
ENDBRANCH  17  18
ENDBRANCH   1  17
TORSDOF 6
ENDMDL
