MODEL 1
REMARK VINA RESULT:    -8.282      0.000      0.000
REMARK INTER + INTRA:         -11.719
REMARK INTER:                 -10.703
REMARK INTRA:                  -1.016
REMARK UNBOUND:                -1.016
REMARK  Name = 
REMARK  5 active torsions:
REMARK  status: ('A' for Active; 'I' for Inactive)
REMARK    1  A    between atoms: C_2  and  C_3
REMARK    2  A    between atoms: C_6  and  N_7
REMARK    3  A    between atoms: N_7  and  C_8
REMARK    4  A    between atoms: C_8  and  C_9
REMARK    5  A    between atoms: C_14  and  C_15
REMARK                            x       y       z     vdW  Elec       q    Type
REMARK                         _______ _______ _______ _____ _____    ______ ____
ROOT
ATOM      1  C   UNL     1      43.971   4.806  11.543  0.00  0.00    +0.000 C 
ATOM      2  C   UNL     1      43.130   3.686  12.131  0.00  0.00    +0.000 C 
ATOM      3  C   UNL     1      42.674   5.093  12.299  0.00  0.00    +0.000 C 
ENDROOT
BRANCH   1   4
ATOM      4  C   UNL     1      45.194   5.360  12.271  0.00  0.00    +0.000 A 
ATOM      5  C   UNL     1      45.910   4.554  13.175  0.00  0.00    +0.000 A 
ATOM      6  C   UNL     1      47.142   4.960  13.681  0.00  0.00    +0.000 A 
ATOM      7  C   UNL     1      47.662   6.198  13.315  0.00  0.00    +0.000 A 
ATOM      8  F   UNL     1      48.876   6.523  13.784  0.00  0.00    +0.000 F 
ATOM      9  C   UNL     1      46.956   7.080  12.482  0.00  0.00    +0.000 A 
ATOM     10  C   UNL     1      45.714   6.633  11.984  0.00  0.00    +0.000 A 
BRANCH   9  11
ATOM     11  C   UNL     1      47.483   8.406  12.098  0.00  0.00    +0.000 A 
ATOM     12  C   UNL     1      46.696   9.563  12.168  0.00  0.00    +0.000 A 
ATOM     13  C   UNL     1      47.243  10.783  11.799  0.00  0.00    +0.000 A 
ATOM     14  N   UNL     1      48.516  10.940  11.382  0.00  0.00    +0.000 NA
ATOM     15  C   UNL     1      49.269   9.826  11.322  0.00  0.00    +0.000 A 
ATOM     16  C   UNL     1      48.807   8.562  11.660  0.00  0.00    +0.000 A 
ENDBRANCH   9  11
ENDBRANCH   1   4
BRANCH   1  17
ATOM     17  N   UNL     1      44.015   4.954  10.084  0.00  0.00    +0.000 N 
ATOM     18  H   UNL     1      43.223   5.384   9.618  0.00  0.00    +0.000 HD
BRANCH  17  22
ATOM     19  C   UNL     1      46.665   2.794   7.575  0.00  0.00    +0.000 A 
ATOM     20  C   UNL     1      45.761   2.099   8.380  0.00  0.00    +0.000 A 
ATOM     21  C   UNL     1      44.881   2.802   9.218  0.00  0.00    +0.000 A 
ATOM     22  C   UNL     1      44.851   4.202   9.234  0.00  0.00    +0.000 A 
ATOM     23  C   UNL     1      45.772   4.880   8.425  0.00  0.00    +0.000 A 
ATOM     24  C   UNL     1      46.674   4.188   7.601  0.00  0.00    +0.000 A 
BRANCH  19  26
ATOM     25  N   UNL     1      48.300   1.505   6.022  0.00  0.00    +0.000 NA
ATOM     26  C   UNL     1      47.565   2.072   6.723  0.00  0.00    +0.000 C 
ENDBRANCH  19  26
ENDBRANCH  17  22
ENDBRANCH   1  17
TORSDOF 5
ENDMDL
MODEL 2
REMARK VINA RESULT:    -8.273      2.396      3.890
REMARK INTER + INTRA:         -11.707
REMARK INTER:                 -11.197
REMARK INTRA:                  -0.510
REMARK UNBOUND:                -1.016
REMARK  Name = 
REMARK  5 active torsions:
REMARK  status: ('A' for Active; 'I' for Inactive)
REMARK    1  A    between atoms: C_2  and  C_3
REMARK    2  A    between atoms: C_6  and  N_7
REMARK    3  A    between atoms: N_7  and  C_8
REMARK    4  A    between atoms: C_8  and  C_9
REMARK    5  A    between atoms: C_14  and  C_15
REMARK                            x       y       z     vdW  Elec       q    Type
REMARK                         _______ _______ _______ _____ _____    ______ ____
ROOT
ATOM      1  C   UNL     1      44.211   4.371  11.809  0.00  0.00    +0.000 C 
ATOM      2  C   UNL     1      43.482   3.255  12.535  0.00  0.00    +0.000 C 
ATOM      3  C   UNL     1      43.028   4.659  12.731  0.00  0.00    +0.000 C 
ENDROOT
BRANCH   1   4
ATOM      4  C   UNL     1      45.514   4.961  12.344  0.00  0.00    +0.000 A 
ATOM      5  C   UNL     1      46.117   6.057  11.702  0.00  0.00    +0.000 A 
ATOM      6  C   UNL     1      47.177   6.743  12.290  0.00  0.00    +0.000 A 
ATOM      7  C   UNL     1      47.673   6.319  13.519  0.00  0.00    +0.000 A 
ATOM      8  F   UNL     1      48.658   7.042  14.073  0.00  0.00    +0.000 F 
ATOM      9  C   UNL     1      47.166   5.182  14.169  0.00  0.00    +0.000 A 
ATOM     10  C   UNL     1      46.090   4.516  13.547  0.00  0.00    +0.000 A 
BRANCH   9  11
ATOM     11  C   UNL     1      47.693   4.706  15.465  0.00  0.00    +0.000 A 
ATOM     12  C   UNL     1      48.323   5.570  16.370  0.00  0.00    +0.000 A 
ATOM     13  C   UNL     1      48.796   5.070  17.574  0.00  0.00    +0.000 A 
ATOM     14  N   UNL     1      48.674   3.781  17.952  0.00  0.00    +0.000 NA
ATOM     15  C   UNL     1      48.062   2.957  17.081  0.00  0.00    +0.000 A 
ATOM     16  C   UNL     1      47.568   3.362  15.850  0.00  0.00    +0.000 A 
ENDBRANCH   9  11
ENDBRANCH   1   4
BRANCH   1  17
ATOM     17  N   UNL     1      44.048   4.482  10.354  0.00  0.00    +0.000 N 
ATOM     18  H   UNL     1      43.149   4.781   9.990  0.00  0.00    +0.000 HD
BRANCH  17  22
ATOM     19  C   UNL     1      46.648   2.647   7.551  0.00  0.00    +0.000 A 
ATOM     20  C   UNL     1      45.918   1.850   8.436  0.00  0.00    +0.000 A 
ATOM     21  C   UNL     1      45.057   2.445   9.371  0.00  0.00    +0.000 A 
ATOM     22  C   UNL     1      44.870   3.833   9.411  0.00  0.00    +0.000 A 
ATOM     23  C   UNL     1      45.618   4.614   8.520  0.00  0.00    +0.000 A 
ATOM     24  C   UNL     1      46.500   4.032   7.596  0.00  0.00    +0.000 A 
BRANCH  19  26
ATOM     25  N   UNL     1      48.254   1.557   5.824  0.00  0.00    +0.000 NA
ATOM     26  C   UNL     1      47.529   2.035   6.599  0.00  0.00    +0.000 C 
ENDBRANCH  19  26
ENDBRANCH  17  22
ENDBRANCH   1  17
TORSDOF 5
ENDMDL
MODEL 3
REMARK VINA RESULT:    -8.152      1.701      2.378
REMARK INTER + INTRA:         -11.551
REMARK INTER:                 -10.491
REMARK INTRA:                  -1.060
REMARK UNBOUND:                -1.016
REMARK  Name = 
REMARK  5 active torsions:
REMARK  status: ('A' for Active; 'I' for Inactive)
REMARK    1  A    between atoms: C_2  and  C_3
REMARK    2  A    between atoms: C_6  and  N_7
REMARK    3  A    between atoms: N_7  and  C_8
REMARK    4  A    between atoms: C_8  and  C_9
REMARK    5  A    between atoms: C_14  and  C_15
REMARK                            x       y       z     vdW  Elec       q    Type
REMARK                         _______ _______ _______ _____ _____    ______ ____
ROOT
ATOM      1  C   UNL     1      44.569   4.426  11.615  0.00  0.00    +0.000 C 
ATOM      2  C   UNL     1      45.011   3.379  12.623  0.00  0.00    +0.000 C 
ATOM      3  C   UNL     1      43.742   4.119  12.863  0.00  0.00    +0.000 C 
ENDROOT
BRANCH   1   4
ATOM      4  C   UNL     1      45.129   5.846  11.633  0.00  0.00    +0.000 A 
ATOM      5  C   UNL     1      44.286   6.948  11.403  0.00  0.00    +0.000 A 
ATOM      6  C   UNL     1      44.725   8.250  11.627  0.00  0.00    +0.000 A 
ATOM      7  C   UNL     1      46.031   8.471  12.054  0.00  0.00    +0.000 A 
ATOM      8  F   UNL     1      46.393   9.738  12.309  0.00  0.00    +0.000 F 
ATOM      9  C   UNL     1      46.943   7.418  12.222  0.00  0.00    +0.000 A 
ATOM     10  C   UNL     1      46.462   6.112  11.991  0.00  0.00    +0.000 A 
BRANCH   9  11
ATOM     11  C   UNL     1      48.339   7.635  12.656  0.00  0.00    +0.000 A 
ATOM     12  C   UNL     1      49.317   8.127  11.781  0.00  0.00    +0.000 A 
ATOM     13  C   UNL     1      50.611   8.316  12.242  0.00  0.00    +0.000 A 
ATOM     14  N   UNL     1      51.001   8.069  13.508  0.00  0.00    +0.000 NA
ATOM     15  C   UNL     1      50.056   7.601  14.346  0.00  0.00    +0.000 A 
ATOM     16  C   UNL     1      48.740   7.371  13.974  0.00  0.00    +0.000 A 
ENDBRANCH   9  11
ENDBRANCH   1   4
BRANCH   1  17
ATOM     17  N   UNL     1      44.102   3.974  10.299  0.00  0.00    +0.000 N 
ATOM     18  H   UNL     1      43.123   3.729  10.192  0.00  0.00    +0.000 HD
BRANCH  17  22
ATOM     19  C   UNL     1      46.750   2.559   7.305  0.00  0.00    +0.000 A 
ATOM     20  C   UNL     1      46.122   1.646   8.154  0.00  0.00    +0.000 A 
ATOM     21  C   UNL     1      45.247   2.101   9.152  0.00  0.00    +0.000 A 
ATOM     22  C   UNL     1      44.943   3.462   9.291  0.00  0.00    +0.000 A 
ATOM     23  C   UNL     1      45.590   4.361   8.434  0.00  0.00    +0.000 A 
ATOM     24  C   UNL     1      46.486   3.920   7.447  0.00  0.00    +0.000 A 
BRANCH  19  26
ATOM     25  N   UNL     1      48.384   1.696   5.478  0.00  0.00    +0.000 NA
ATOM     26  C   UNL     1      47.647   2.089   6.288  0.00  0.00    +0.000 C 
ENDBRANCH  19  26
ENDBRANCH  17  22
ENDBRANCH   1  17
TORSDOF 5
ENDMDL
MODEL 4
REMARK VINA RESULT:    -6.589      2.130      2.813
REMARK INTER + INTRA:          -9.531
REMARK INTER:                  -9.195
REMARK INTRA:                  -0.336
REMARK UNBOUND:                -1.016
REMARK  Name = 
REMARK  5 active torsions:
REMARK  status: ('A' for Active; 'I' for Inactive)
REMARK    1  A    between atoms: C_2  and  C_3
REMARK    2  A    between atoms: C_6  and  N_7
REMARK    3  A    between atoms: N_7  and  C_8
REMARK    4  A    between atoms: C_8  and  C_9
REMARK    5  A    between atoms: C_14  and  C_15
REMARK                            x       y       z     vdW  Elec       q    Type
REMARK                         _______ _______ _______ _____ _____    ______ ____
ROOT
ATOM      1  C   UNL     1      44.107   5.681  11.071  0.00  0.00    +0.000 C 
ATOM      2  C   UNL     1      43.109   6.775  11.411  0.00  0.00    +0.000 C 
ATOM      3  C   UNL     1      44.422   7.155  10.821  0.00  0.00    +0.000 C 
ENDROOT
BRANCH   1   4
ATOM      4  C   UNL     1      45.021   5.071  12.132  0.00  0.00    +0.000 A 
ATOM      5  C   UNL     1      44.957   3.696  12.420  0.00  0.00    +0.000 A 
ATOM      6  C   UNL     1      45.919   3.082  13.218  0.00  0.00    +0.000 A 
ATOM      7  C   UNL     1      46.944   3.845  13.769  0.00  0.00    +0.000 A 
ATOM      8  F   UNL     1      47.879   3.203  14.486  0.00  0.00    +0.000 F 
ATOM      9  C   UNL     1      47.013   5.235  13.584  0.00  0.00    +0.000 A 
ATOM     10  C   UNL     1      46.025   5.821  12.766  0.00  0.00    +0.000 A 
BRANCH   9  11
ATOM     11  C   UNL     1      48.083   6.065  14.177  0.00  0.00    +0.000 A 
ATOM     12  C   UNL     1      48.356   6.047  15.551  0.00  0.00    +0.000 A 
ATOM     13  C   UNL     1      49.374   6.843  16.055  0.00  0.00    +0.000 A 
ATOM     14  N   UNL     1      50.150   7.641  15.293  0.00  0.00    +0.000 NA
ATOM     15  C   UNL     1      49.886   7.650  13.973  0.00  0.00    +0.000 A 
ATOM     16  C   UNL     1      48.883   6.897  13.380  0.00  0.00    +0.000 A 
ENDBRANCH   9  11
ENDBRANCH   1   4
BRANCH   1  17
ATOM     17  N   UNL     1      43.812   4.794   9.940  0.00  0.00    +0.000 N 
ATOM     18  H   UNL     1      42.891   4.373   9.884  0.00  0.00    +0.000 HD
BRANCH  17  22
ATOM     19  C   UNL     1      46.636   2.763   7.514  0.00  0.00    +0.000 A 
ATOM     20  C   UNL     1      46.674   4.157   7.593  0.00  0.00    +0.000 A 
ATOM     21  C   UNL     1      45.742   4.841   8.390  0.00  0.00    +0.000 A 
ATOM     22  C   UNL     1      44.792   4.153   9.156  0.00  0.00    +0.000 A 
ATOM     23  C   UNL     1      44.767   2.756   9.056  0.00  0.00    +0.000 A 
ATOM     24  C   UNL     1      45.678   2.062   8.244  0.00  0.00    +0.000 A 
BRANCH  19  26
ATOM     25  N   UNL     1      48.370   1.521   6.032  0.00  0.00    +0.000 NA
ATOM     26  C   UNL     1      47.588   2.067   6.697  0.00  0.00    +0.000 C 
ENDBRANCH  19  26
ENDBRANCH  17  22
ENDBRANCH   1  17
TORSDOF 5
ENDMDL
MODEL 5
REMARK VINA RESULT:    -6.217      3.498      7.641
REMARK INTER + INTRA:          -9.050
REMARK INTER:                  -8.005
REMARK INTRA:                  -1.045
REMARK UNBOUND:                -1.016
REMARK  Name = 
REMARK  5 active torsions:
REMARK  status: ('A' for Active; 'I' for Inactive)
REMARK    1  A    between atoms: C_2  and  C_3
REMARK    2  A    between atoms: C_6  and  N_7
REMARK    3  A    between atoms: N_7  and  C_8
REMARK    4  A    between atoms: C_8  and  C_9
REMARK    5  A    between atoms: C_14  and  C_15
REMARK                            x       y       z     vdW  Elec       q    Type
REMARK                         _______ _______ _______ _____ _____    ______ ____
ROOT
ATOM      1  C   UNL     1      48.766   8.128  12.609  0.00  0.00    +0.000 C 
ATOM      2  C   UNL     1      49.879   7.642  11.697  0.00  0.00    +0.000 C 
ATOM      3  C   UNL     1      49.301   8.995  11.472  0.00  0.00    +0.000 C 
ENDROOT
BRANCH   1   4
ATOM      4  C   UNL     1      47.310   7.722  12.387  0.00  0.00    +0.000 A 
ATOM      5  C   UNL     1      46.264   8.560  12.812  0.00  0.00    +0.000 A 
ATOM      6  C   UNL     1      44.947   8.319  12.431  0.00  0.00    +0.000 A 
ATOM      7  C   UNL     1      44.652   7.211  11.642  0.00  0.00    +0.000 A 
ATOM      8  F   UNL     1      43.378   7.049  11.254  0.00  0.00    +0.000 F 
ATOM      9  C   UNL     1      45.641   6.294  11.254  0.00  0.00    +0.000 A 
ATOM     10  C   UNL     1      46.964   6.573  11.655  0.00  0.00    +0.000 A 
BRANCH   9  11
ATOM     11  C   UNL     1      45.344   5.102  10.433  0.00  0.00    +0.000 A 
ATOM     12  C   UNL     1      44.692   3.982  10.965  0.00  0.00    +0.000 A 
ATOM     13  C   UNL     1      44.434   2.891  10.149  0.00  0.00    +0.000 A 
ATOM     14  N   UNL     1      44.760   2.838   8.841  0.00  0.00    +0.000 NA
ATOM     15  C   UNL     1      45.381   3.920   8.334  0.00  0.00    +0.000 A 
ATOM     16  C   UNL     1      45.690   5.051   9.075  0.00  0.00    +0.000 A 
ENDBRANCH   9  11
ENDBRANCH   1   4
BRANCH   1  17
ATOM     17  N   UNL     1      49.098   8.459  14.000  0.00  0.00    +0.000 N 
ATOM     18  H   UNL     1      49.332   9.420  14.225  0.00  0.00    +0.000 HD
BRANCH  17  22
ATOM     19  C   UNL     1      50.453   5.756  16.974  0.00  0.00    +0.000 A 
ATOM     20  C   UNL     1      49.105   5.758  16.609  0.00  0.00    +0.000 A 
ATOM     21  C   UNL     1      48.643   6.650  15.629  0.00  0.00    +0.000 A 
ATOM     22  C   UNL     1      49.517   7.518  14.962  0.00  0.00    +0.000 A 
ATOM     23  C   UNL     1      50.864   7.506  15.349  0.00  0.00    +0.000 A 
ATOM     24  C   UNL     1      51.334   6.635  16.345  0.00  0.00    +0.000 A 
BRANCH  19  26
ATOM     25  N   UNL     1      51.320   4.114  18.791  0.00  0.00    +0.000 NA
ATOM     26  C   UNL     1      50.921   4.845  17.978  0.00  0.00    +0.000 C 
ENDBRANCH  19  26
ENDBRANCH  17  22
ENDBRANCH   1  17
TORSDOF 5
ENDMDL
MODEL 6
REMARK VINA RESULT:    -5.917      3.355      6.141
REMARK INTER + INTRA:          -8.662
REMARK INTER:                  -7.841
REMARK INTRA:                  -0.822
REMARK UNBOUND:                -1.016
REMARK  Name = 
REMARK  5 active torsions:
REMARK  status: ('A' for Active; 'I' for Inactive)
REMARK    1  A    between atoms: C_2  and  C_3
REMARK    2  A    between atoms: C_6  and  N_7
REMARK    3  A    between atoms: N_7  and  C_8
REMARK    4  A    between atoms: C_8  and  C_9
REMARK    5  A    between atoms: C_14  and  C_15
REMARK                            x       y       z     vdW  Elec       q    Type
REMARK                         _______ _______ _______ _____ _____    ______ ____
ROOT
ATOM      1  C   UNL     1      48.251   8.196  12.476  0.00  0.00    +0.000 C 
ATOM      2  C   UNL     1      49.202   8.921  11.539  0.00  0.00    +0.000 C 
ATOM      3  C   UNL     1      49.285   7.438  11.645  0.00  0.00    +0.000 C 
ENDROOT
BRANCH   1   4
ATOM      4  C   UNL     1      48.527   8.088  13.974  0.00  0.00    +0.000 A 
ATOM      5  C   UNL     1      48.588   9.245  14.772  0.00  0.00    +0.000 A 
ATOM      6  C   UNL     1      48.622   9.160  16.161  0.00  0.00    +0.000 A 
ATOM      7  C   UNL     1      48.629   7.910  16.774  0.00  0.00    +0.000 A 
ATOM      8  F   UNL     1      48.606   7.878  18.115  0.00  0.00    +0.000 F 
ATOM      9  C   UNL     1      48.651   6.721  16.029  0.00  0.00    +0.000 A 
ATOM     10  C   UNL     1      48.612   6.845  14.625  0.00  0.00    +0.000 A 
BRANCH   9  11
ATOM     11  C   UNL     1      48.679   5.386  16.662  0.00  0.00    +0.000 A 
ATOM     12  C   UNL     1      47.588   4.509  16.585  0.00  0.00    +0.000 A 
ATOM     13  C   UNL     1      47.669   3.266  17.194  0.00  0.00    +0.000 A 
ATOM     14  N   UNL     1      48.756   2.824  17.858  0.00  0.00    +0.000 NA
ATOM     15  C   UNL     1      49.802   3.668  17.924  0.00  0.00    +0.000 A 
ATOM     16  C   UNL     1      49.811   4.934  17.356  0.00  0.00    +0.000 A 
ENDBRANCH   9  11
ENDBRANCH   1   4
BRANCH   1  17
ATOM     17  N   UNL     1      46.831   8.128  12.114  0.00  0.00    +0.000 N 
ATOM     18  H   UNL     1      46.255   8.951  12.258  0.00  0.00    +0.000 HD
BRANCH  17  22
ATOM     19  C   UNL     1      44.503   4.602  11.757  0.00  0.00    +0.000 A 
ATOM     20  C   UNL     1      45.288   5.018  10.680  0.00  0.00    +0.000 A 
ATOM     21  C   UNL     1      46.061   6.186  10.784  0.00  0.00    +0.000 A 
ATOM     22  C   UNL     1      46.103   6.930  11.971  0.00  0.00    +0.000 A 
ATOM     23  C   UNL     1      45.301   6.498  13.036  0.00  0.00    +0.000 A 
ATOM     24  C   UNL     1      44.506   5.345  12.936  0.00  0.00    +0.000 A 
BRANCH  19  26
ATOM     25  N   UNL     1      43.080   2.436  11.574  0.00  0.00    +0.000 NA
ATOM     26  C   UNL     1      43.713   3.409  11.646  0.00  0.00    +0.000 C 
ENDBRANCH  19  26
ENDBRANCH  17  22
ENDBRANCH   1  17
TORSDOF 5
ENDMDL
MODEL 7
REMARK VINA RESULT:    -5.881      2.577      6.999
REMARK INTER + INTRA:          -8.616
REMARK INTER:                  -7.575
REMARK INTRA:                  -1.041
REMARK UNBOUND:                -1.016
REMARK  Name = 
REMARK  5 active torsions:
REMARK  status: ('A' for Active; 'I' for Inactive)
REMARK    1  A    between atoms: C_2  and  C_3
REMARK    2  A    between atoms: C_6  and  N_7
REMARK    3  A    between atoms: N_7  and  C_8
REMARK    4  A    between atoms: C_8  and  C_9
REMARK    5  A    between atoms: C_14  and  C_15
REMARK                            x       y       z     vdW  Elec       q    Type
REMARK                         _______ _______ _______ _____ _____    ______ ____
ROOT
ATOM      1  C   UNL     1      48.743   7.364  13.686  0.00  0.00    +0.000 C 
ATOM      2  C   UNL     1      49.087   8.208  14.901  0.00  0.00    +0.000 C 
ATOM      3  C   UNL     1      48.791   6.762  15.089  0.00  0.00    +0.000 C 
ENDROOT
BRANCH   1   4
ATOM      4  C   UNL     1      47.334   7.339  13.098  0.00  0.00    +0.000 A 
ATOM      5  C   UNL     1      46.489   8.457  13.224  0.00  0.00    +0.000 A 
ATOM      6  C   UNL     1      45.293   8.539  12.516  0.00  0.00    +0.000 A 
ATOM      7  C   UNL     1      44.907   7.485  11.695  0.00  0.00    +0.000 A 
ATOM      8  F   UNL     1      43.774   7.632  10.990  0.00  0.00    +0.000 F 
ATOM      9  C   UNL     1      45.667   6.310  11.591  0.00  0.00    +0.000 A 
ATOM     10  C   UNL     1      46.875   6.264  12.318  0.00  0.00    +0.000 A 
BRANCH   9  11
ATOM     11  C   UNL     1      45.263   5.172  10.739  0.00  0.00    +0.000 A 
ATOM     12  C   UNL     1      44.574   4.068  11.257  0.00  0.00    +0.000 A 
ATOM     13  C   UNL     1      44.216   3.029  10.411  0.00  0.00    +0.000 A 
ATOM     14  N   UNL     1      44.476   3.014   9.088  0.00  0.00    +0.000 NA
ATOM     15  C   UNL     1      45.133   4.081   8.595  0.00  0.00    +0.000 A 
ATOM     16  C   UNL     1      45.541   5.160   9.364  0.00  0.00    +0.000 A 
ENDBRANCH   9  11
ENDBRANCH   1   4
BRANCH   1  17
ATOM     17  N   UNL     1      49.808   7.061  12.723  0.00  0.00    +0.000 N 
ATOM     18  H   UNL     1      50.326   6.195  12.832  0.00  0.00    +0.000 HD
BRANCH  17  22
ATOM     19  C   UNL     1      51.745   9.841  10.173  0.00  0.00    +0.000 A 
ATOM     20  C   UNL     1      50.658  10.257  10.944  0.00  0.00    +0.000 A 
ATOM     21  C   UNL     1      50.006   9.346  11.789  0.00  0.00    +0.000 A 
ATOM     22  C   UNL     1      50.451   8.024  11.919  0.00  0.00    +0.000 A 
ATOM     23  C   UNL     1      51.538   7.625  11.130  0.00  0.00    +0.000 A 
ATOM     24  C   UNL     1      52.184   8.521  10.263  0.00  0.00    +0.000 A 
BRANCH  19  26
ATOM     25  N   UNL     1      52.950  11.516   8.594  0.00  0.00    +0.000 NA
ATOM     26  C   UNL     1      52.407  10.774   9.308  0.00  0.00    +0.000 C 
ENDBRANCH  19  26
ENDBRANCH  17  22
ENDBRANCH   1  17
TORSDOF 5
ENDMDL
MODEL 8
REMARK VINA RESULT:    -5.847      4.865      7.384
REMARK INTER + INTRA:          -8.572
REMARK INTER:                  -7.405
REMARK INTRA:                  -1.167
REMARK UNBOUND:                -1.016
REMARK  Name = 
REMARK  5 active torsions:
REMARK  status: ('A' for Active; 'I' for Inactive)
REMARK    1  A    between atoms: C_2  and  C_3
REMARK    2  A    between atoms: C_6  and  N_7
REMARK    3  A    between atoms: N_7  and  C_8
REMARK    4  A    between atoms: C_8  and  C_9
REMARK    5  A    between atoms: C_14  and  C_15
REMARK                            x       y       z     vdW  Elec       q    Type
REMARK                         _______ _______ _______ _____ _____    ______ ____
ROOT
ATOM      1  C   UNL     1      48.972   7.686  15.267  0.00  0.00    +0.000 C 
ATOM      2  C   UNL     1      48.254   9.024  15.235  0.00  0.00    +0.000 C 
ATOM      3  C   UNL     1      49.739   9.005  15.332  0.00  0.00    +0.000 C 
ENDROOT
BRANCH   1   4
ATOM      4  C   UNL     1      49.109   6.878  16.555  0.00  0.00    +0.000 A 
ATOM      5  C   UNL     1      48.279   7.148  17.657  0.00  0.00    +0.000 A 
ATOM      6  C   UNL     1      48.236   6.292  18.755  0.00  0.00    +0.000 A 
ATOM      7  C   UNL     1      49.053   5.166  18.780  0.00  0.00    +0.000 A 
ATOM      8  F   UNL     1      48.939   4.341  19.832  0.00  0.00    +0.000 F 
ATOM      9  C   UNL     1      49.961   4.887  17.746  0.00  0.00    +0.000 A 
ATOM     10  C   UNL     1      49.973   5.773  16.649  0.00  0.00    +0.000 A 
BRANCH   9  11
ATOM     11  C   UNL     1      50.850   3.707  17.765  0.00  0.00    +0.000 A 
ATOM     12  C   UNL     1      50.420   2.451  17.317  0.00  0.00    +0.000 A 
ATOM     13  C   UNL     1      51.297   1.376  17.354  0.00  0.00    +0.000 A 
ATOM     14  N   UNL     1      52.571   1.462  17.784  0.00  0.00    +0.000 NA
ATOM     15  C   UNL     1      52.981   2.673  18.208  0.00  0.00    +0.000 A 
ATOM     16  C   UNL     1      52.174   3.801  18.220  0.00  0.00    +0.000 A 
ENDBRANCH   9  11
ENDBRANCH   1   4
BRANCH   1  17
ATOM     17  N   UNL     1      49.004   6.882  14.039  0.00  0.00    +0.000 N 
ATOM     18  H   UNL     1      49.842   6.903  13.469  0.00  0.00    +0.000 HD
BRANCH  17  22
ATOM     19  C   UNL     1      45.648   5.460  11.871  0.00  0.00    +0.000 A 
ATOM     20  C   UNL     1      45.952   4.898  13.113  0.00  0.00    +0.000 A 
ATOM     21  C   UNL     1      47.062   5.357  13.839  0.00  0.00    +0.000 A 
ATOM     22  C   UNL     1      47.857   6.411  13.368  0.00  0.00    +0.000 A 
ATOM     23  C   UNL     1      47.539   6.954  12.117  0.00  0.00    +0.000 A 
ATOM     24  C   UNL     1      46.445   6.488  11.371  0.00  0.00    +0.000 A 
BRANCH  19  26
ATOM     25  N   UNL     1      43.604   4.608  10.513  0.00  0.00    +0.000 NA
ATOM     26  C   UNL     1      44.514   4.987  11.131  0.00  0.00    +0.000 C 
ENDBRANCH  19  26
ENDBRANCH  17  22
ENDBRANCH   1  17
TORSDOF 5
ENDMDL
MODEL 9
REMARK VINA RESULT:    -5.754      4.363      7.696
REMARK INTER + INTRA:          -8.452
REMARK INTER:                  -7.190
REMARK INTRA:                  -1.262
REMARK UNBOUND:                -1.016
REMARK  Name = 
REMARK  5 active torsions:
REMARK  status: ('A' for Active; 'I' for Inactive)
REMARK    1  A    between atoms: C_2  and  C_3
REMARK    2  A    between atoms: C_6  and  N_7
REMARK    3  A    between atoms: N_7  and  C_8
REMARK    4  A    between atoms: C_8  and  C_9
REMARK    5  A    between atoms: C_14  and  C_15
REMARK                            x       y       z     vdW  Elec       q    Type
REMARK                         _______ _______ _______ _____ _____    ______ ____
ROOT
ATOM      1  C   UNL     1      48.717   8.321  16.953  0.00  0.00    +0.000 C 
ATOM      2  C   UNL     1      49.516   9.393  17.673  0.00  0.00    +0.000 C 
ATOM      3  C   UNL     1      48.117   9.692  17.263  0.00  0.00    +0.000 C 
ENDROOT
BRANCH   1   4
ATOM      4  C   UNL     1      48.861   8.084  15.451  0.00  0.00    +0.000 A 
ATOM      5  C   UNL     1      50.029   8.482  14.776  0.00  0.00    +0.000 A 
ATOM      6  C   UNL     1      50.274   8.086  13.464  0.00  0.00    +0.000 A 
ATOM      7  C   UNL     1      49.333   7.309  12.794  0.00  0.00    +0.000 A 
ATOM      8  F   UNL     1      49.636   6.905  11.551  0.00  0.00    +0.000 F 
ATOM      9  C   UNL     1      48.113   6.949  13.388  0.00  0.00    +0.000 A 
ATOM     10  C   UNL     1      47.902   7.364  14.719  0.00  0.00    +0.000 A 
BRANCH   9  11
ATOM     11  C   UNL     1      47.094   6.142  12.685  0.00  0.00    +0.000 A 
ATOM     12  C   UNL     1      46.573   4.965  13.238  0.00  0.00    +0.000 A 
ATOM     13  C   UNL     1      45.615   4.247  12.537  0.00  0.00    +0.000 A 
ATOM     14  N   UNL     1      45.127   4.620  11.337  0.00  0.00    +0.000 NA
ATOM     15  C   UNL     1      45.627   5.755  10.813  0.00  0.00    +0.000 A 
ATOM     16  C   UNL     1      46.593   6.532  11.434  0.00  0.00    +0.000 A 
ENDBRANCH   9  11
ENDBRANCH   1   4
BRANCH   1  17
ATOM     17  N   UNL     1      48.283   7.144  17.715  0.00  0.00    +0.000 N 
ATOM     18  H   UNL     1      47.685   7.284  18.522  0.00  0.00    +0.000 HD
BRANCH  17  22
ATOM     19  C   UNL     1      50.149   3.343  17.479  0.00  0.00    +0.000 A 
ATOM     20  C   UNL     1      50.925   4.475  17.740  0.00  0.00    +0.000 A 
ATOM     21  C   UNL     1      50.320   5.739  17.817  0.00  0.00    +0.000 A 
ATOM     22  C   UNL     1      48.934   5.894  17.685  0.00  0.00    +0.000 A 
ATOM     23  C   UNL     1      48.176   4.747  17.415  0.00  0.00    +0.000 A 
ATOM     24  C   UNL     1      48.772   3.480  17.312  0.00  0.00    +0.000 A 
BRANCH  19  26
ATOM     25  N   UNL     1      51.294   1.015  17.341  0.00  0.00    +0.000 NA
ATOM     26  C   UNL     1      50.772   2.053  17.398  0.00  0.00    +0.000 C 
ENDBRANCH  19  26
ENDBRANCH  17  22
ENDBRANCH   1  17
TORSDOF 5
ENDMDL
