MODEL 1
REMARK VINA RESULT:    -7.500      0.000      0.000
REMARK INTER + INTRA:         -11.277
REMARK INTER:                 -10.131
REMARK INTRA:                  -1.146
REMARK UNBOUND:                -1.146
REMARK  Name = 
REMARK  7 active torsions:
REMARK  status: ('A' for Active; 'I' for Inactive)
REMARK    1  A    between atoms: C_1  and  C_2
REMARK    2  A    between atoms: C_2  and  N_3
REMARK    3  A    between atoms: C_2  and  C_16
REMARK    4  A    between atoms: C_4  and  C_6
REMARK    5  A    between atoms: C_19  and  C_20
REMARK    6  A    between atoms: C_20  and  N_21
REMARK    7  A    between atoms: C_22  and  C_24
REMARK                            x       y       z     vdW  Elec       q    Type
REMARK                         _______ _______ _______ _____ _____    ______ ____
ROOT
ATOM      1  C   UNL     1      46.456   9.017  13.283  0.00  0.00    +0.000 C 
ATOM      2  C   UNL     1      47.173   7.669  13.143  0.00  0.00    +0.000 C 
ENDROOT
BRANCH   2   3
ATOM      3  C   UNL     1      46.316   6.692  12.347  0.00  0.00    +0.000 A 
ATOM      4  C   UNL     1      46.455   6.582  10.958  0.00  0.00    +0.000 A 
ATOM      5  C   UNL     1      45.702   5.646  10.238  0.00  0.00    +0.000 A 
ATOM      6  C   UNL     1      44.792   4.804  10.892  0.00  0.00    +0.000 A 
ATOM      7  C   UNL     1      44.648   4.914  12.278  0.00  0.00    +0.000 A 
ATOM      8  C   UNL     1      45.397   5.849  12.996  0.00  0.00    +0.000 A 
BRANCH   6   9
ATOM      9  C   UNL     1      43.999   3.777  10.125  0.00  0.00    +0.000 C 
BRANCH   9  10
ATOM     10  N   UNL     1      44.500   3.628   8.777  0.00  0.00    +0.000 N 
ATOM     11  C   UNL     1      45.343   2.587   8.448  0.00  0.00    +0.000 C 
ATOM     12  O   UNL     1      45.681   1.730   9.258  0.00  0.00    +0.000 OA
ATOM     13  H   UNL     1      44.157   4.261   8.068  0.00  0.00    +0.000 HD
BRANCH  11  14
ATOM     14  C   UNL     1      45.785   2.581   6.991  0.00  0.00    +0.000 C 
ATOM     15  C   UNL     1      46.611   1.365   6.622  0.00  0.00    +0.000 C 
ATOM     16  C   UNL     1      48.014   1.786   7.000  0.00  0.00    +0.000 C 
ATOM     17  O   UNL     1      48.085   3.200   6.776  0.00  0.00    +0.000 OA
ATOM     18  C   UNL     1      46.748   3.720   6.706  0.00  0.00    +0.000 C 
ENDBRANCH  11  14
ENDBRANCH   9  10
ENDBRANCH   6   9
ENDBRANCH   2   3
BRANCH   2  19
ATOM     19  N   UNL     1      47.496   7.062  14.428  0.00  0.00    +0.000 N 
ATOM     20  C   UNL     1      48.764   6.984  14.942  0.00  0.00    +0.000 C 
ATOM     21  O   UNL     1      49.741   7.472  14.384  0.00  0.00    +0.000 OA
ATOM     22  H   UNL     1      46.814   6.392  14.769  0.00  0.00    +0.000 HD
BRANCH  20  23
ATOM     23  C   UNL     1      48.881   6.342  16.258  0.00  0.00    +0.000 A 
ATOM     24  C   UNL     1      49.541   6.998  17.287  0.00  0.00    +0.000 A 
ATOM     25  S   UNL     1      49.550   6.130  18.755  0.00  0.00    +0.000 S 
ATOM     26  C   UNL     1      48.714   4.825  18.051  0.00  0.00    +0.000 A 
ATOM     27  N   UNL     1      48.421   3.710  18.773  0.00  0.00    +0.000 NA
ATOM     28  C   UNL     1      47.820   2.784  18.104  0.00  0.00    +0.000 A 
ATOM     29  N   UNL     1      47.476   2.875  16.780  0.00  0.00    +0.000 N 
ATOM     30  C   UNL     1      47.712   3.998  16.023  0.00  0.00    +0.000 A 
ATOM     31  O   UNL     1      47.329   4.077  14.861  0.00  0.00    +0.000 OA
ATOM     32  C   UNL     1      48.411   5.059  16.722  0.00  0.00    +0.000 A 
ATOM     33  H   UNL     1      46.993   2.119  16.320  0.00  0.00    +0.000 HD
ENDBRANCH  20  23
ENDBRANCH   2  19
TORSDOF 6
ENDMDL
MODEL 2
REMARK VINA RESULT:    -7.194      3.658      5.367
REMARK INTER + INTRA:         -10.864
REMARK INTER:                  -9.427
REMARK INTRA:                  -1.437
REMARK UNBOUND:                -1.146
REMARK  Name = 
REMARK  7 active torsions:
REMARK  status: ('A' for Active; 'I' for Inactive)
REMARK    1  A    between atoms: C_1  and  C_2
REMARK    2  A    between atoms: C_2  and  N_3
REMARK    3  A    between atoms: C_2  and  C_16
REMARK    4  A    between atoms: C_4  and  C_6
REMARK    5  A    between atoms: C_19  and  C_20
REMARK    6  A    between atoms: C_20  and  N_21
REMARK    7  A    between atoms: C_22  and  C_24
REMARK                            x       y       z     vdW  Elec       q    Type
REMARK                         _______ _______ _______ _____ _____    ______ ____
ROOT
ATOM      1  C   UNL     1      47.496   2.909  17.687  0.00  0.00    +0.000 C 
ATOM      2  C   UNL     1      48.342   4.160  17.419  0.00  0.00    +0.000 C 
ENDROOT
BRANCH   2   3
ATOM      3  C   UNL     1      47.968   4.775  16.076  0.00  0.00    +0.000 A 
ATOM      4  C   UNL     1      48.529   5.990  15.661  0.00  0.00    +0.000 A 
ATOM      5  C   UNL     1      48.221   6.525  14.404  0.00  0.00    +0.000 A 
ATOM      6  C   UNL     1      47.342   5.860  13.538  0.00  0.00    +0.000 A 
ATOM      7  C   UNL     1      46.777   4.649  13.951  0.00  0.00    +0.000 A 
ATOM      8  C   UNL     1      47.082   4.116  15.205  0.00  0.00    +0.000 A 
BRANCH   6   9
ATOM      9  C   UNL     1      47.029   6.417  12.174  0.00  0.00    +0.000 C 
BRANCH   9  10
ATOM     10  N   UNL     1      45.961   5.678  11.539  0.00  0.00    +0.000 N 
ATOM     11  C   UNL     1      44.722   6.253  11.346  0.00  0.00    +0.000 C 
ATOM     12  O   UNL     1      44.474   7.410  11.668  0.00  0.00    +0.000 OA
ATOM     13  H   UNL     1      46.168   4.759  11.174  0.00  0.00    +0.000 HD
BRANCH  11  14
ATOM     14  C   UNL     1      43.708   5.337  10.673  0.00  0.00    +0.000 C 
ATOM     15  C   UNL     1      42.675   4.782  11.633  0.00  0.00    +0.000 C 
ATOM     16  C   UNL     1      43.357   3.550  12.183  0.00  0.00    +0.000 C 
ATOM     17  O   UNL     1      44.178   3.036  11.126  0.00  0.00    +0.000 OA
ATOM     18  C   UNL     1      44.371   4.074  10.153  0.00  0.00    +0.000 C 
ENDBRANCH  11  14
ENDBRANCH   9  10
ENDBRANCH   6   9
ENDBRANCH   2   3
BRANCH   2  19
ATOM     19  N   UNL     1      49.773   3.887  17.421  0.00  0.00    +0.000 N 
ATOM     20  C   UNL     1      50.618   4.233  18.442  0.00  0.00    +0.000 C 
ATOM     21  O   UNL     1      50.229   4.759  19.481  0.00  0.00    +0.000 OA
ATOM     22  H   UNL     1      50.185   3.753  16.503  0.00  0.00    +0.000 HD
BRANCH  20  23
ATOM     23  C   UNL     1      52.028   3.862  18.259  0.00  0.00    +0.000 A 
ATOM     24  C   UNL     1      53.021   4.805  18.479  0.00  0.00    +0.000 A 
ATOM     25  S   UNL     1      54.600   4.198  18.260  0.00  0.00    +0.000 S 
ATOM     26  C   UNL     1      54.006   2.666  17.814  0.00  0.00    +0.000 A 
ATOM     27  N   UNL     1      54.854   1.661  17.462  0.00  0.00    +0.000 NA
ATOM     28  C   UNL     1      54.267   0.567  17.109  0.00  0.00    +0.000 A 
ATOM     29  N   UNL     1      52.909   0.382  17.087  0.00  0.00    +0.000 N 
ATOM     30  C   UNL     1      52.016   1.351  17.477  0.00  0.00    +0.000 A 
ATOM     31  O   UNL     1      50.810   1.133  17.514  0.00  0.00    +0.000 OA
ATOM     32  C   UNL     1      52.624   2.612  17.856  0.00  0.00    +0.000 A 
ATOM     33  H   UNL     1      52.514  -0.506  16.815  0.00  0.00    +0.000 HD
ENDBRANCH  20  23
ENDBRANCH   2  19
TORSDOF 6
ENDMDL
MODEL 3
REMARK VINA RESULT:    -7.054      3.520      7.865
REMARK INTER + INTRA:         -10.675
REMARK INTER:                  -9.262
REMARK INTRA:                  -1.413
REMARK UNBOUND:                -1.146
REMARK  Name = 
REMARK  7 active torsions:
REMARK  status: ('A' for Active; 'I' for Inactive)
REMARK    1  A    between atoms: C_1  and  C_2
REMARK    2  A    between atoms: C_2  and  N_3
REMARK    3  A    between atoms: C_2  and  C_16
REMARK    4  A    between atoms: C_4  and  C_6
REMARK    5  A    between atoms: C_19  and  C_20
REMARK    6  A    between atoms: C_20  and  N_21
REMARK    7  A    between atoms: C_22  and  C_24
REMARK                            x       y       z     vdW  Elec       q    Type
REMARK                         _______ _______ _______ _____ _____    ______ ____
ROOT
ATOM      1  C   UNL     1      49.330   8.632  11.391  0.00  0.00    +0.000 C 
ATOM      2  C   UNL     1      48.089   8.218  12.192  0.00  0.00    +0.000 C 
ENDROOT
BRANCH   2   3
ATOM      3  C   UNL     1      48.475   7.864  13.623  0.00  0.00    +0.000 A 
ATOM      4  C   UNL     1      48.128   6.625  14.175  0.00  0.00    +0.000 A 
ATOM      5  C   UNL     1      48.528   6.285  15.473  0.00  0.00    +0.000 A 
ATOM      6  C   UNL     1      49.280   7.179  16.247  0.00  0.00    +0.000 A 
ATOM      7  C   UNL     1      49.625   8.419  15.701  0.00  0.00    +0.000 A 
ATOM      8  C   UNL     1      49.223   8.759  14.407  0.00  0.00    +0.000 A 
BRANCH   6   9
ATOM      9  C   UNL     1      49.738   6.807  17.634  0.00  0.00    +0.000 C 
BRANCH   9  10
ATOM     10  N   UNL     1      49.428   5.427  17.936  0.00  0.00    +0.000 N 
ATOM     11  C   UNL     1      50.316   4.420  17.623  0.00  0.00    +0.000 C 
ATOM     12  O   UNL     1      51.409   4.638  17.111  0.00  0.00    +0.000 OA
ATOM     13  H   UNL     1      48.580   5.230  18.448  0.00  0.00    +0.000 HD
BRANCH  11  14
ATOM     14  C   UNL     1      49.833   3.025  17.998  0.00  0.00    +0.000 C 
ATOM     15  C   UNL     1      49.615   2.125  16.798  0.00  0.00    +0.000 C 
ATOM     16  C   UNL     1      48.199   2.457  16.385  0.00  0.00    +0.000 C 
ATOM     17  O   UNL     1      47.490   2.776  17.589  0.00  0.00    +0.000 OA
ATOM     18  C   UNL     1      48.447   3.073  18.617  0.00  0.00    +0.000 C 
ENDBRANCH  11  14
ENDBRANCH   9  10
ENDBRANCH   6   9
ENDBRANCH   2   3
BRANCH   2  19
ATOM     19  N   UNL     1      47.391   7.081  11.606  0.00  0.00    +0.000 N 
ATOM     20  C   UNL     1      46.040   7.045  11.381  0.00  0.00    +0.000 C 
ATOM     21  O   UNL     1      45.300   7.999  11.605  0.00  0.00    +0.000 OA
ATOM     22  H   UNL     1      47.871   6.191  11.693  0.00  0.00    +0.000 HD
BRANCH  20  23
ATOM     23  C   UNL     1      45.526   5.810  10.773  0.00  0.00    +0.000 A 
ATOM     24  C   UNL     1      45.747   5.564   9.425  0.00  0.00    +0.000 A 
ATOM     25  S   UNL     1      45.119   4.070   8.893  0.00  0.00    +0.000 S 
ATOM     26  C   UNL     1      44.486   3.726  10.434  0.00  0.00    +0.000 A 
ATOM     27  N   UNL     1      43.783   2.583  10.664  0.00  0.00    +0.000 NA
ATOM     28  C   UNL     1      43.328   2.468  11.866  0.00  0.00    +0.000 A 
ATOM     29  N   UNL     1      43.520   3.389  12.864  0.00  0.00    +0.000 N 
ATOM     30  C   UNL     1      44.260   4.534  12.692  0.00  0.00    +0.000 A 
ATOM     31  O   UNL     1      44.473   5.304  13.623  0.00  0.00    +0.000 OA
ATOM     32  C   UNL     1      44.771   4.724  11.348  0.00  0.00    +0.000 A 
ATOM     33  H   UNL     1      43.149   3.231  13.789  0.00  0.00    +0.000 HD
ENDBRANCH  20  23
ENDBRANCH   2  19
TORSDOF 6
ENDMDL
MODEL 4
REMARK VINA RESULT:    -6.912      2.264      3.256
REMARK INTER + INTRA:         -10.482
REMARK INTER:                  -8.910
REMARK INTRA:                  -1.572
REMARK UNBOUND:                -1.146
REMARK  Name = 
REMARK  7 active torsions:
REMARK  status: ('A' for Active; 'I' for Inactive)
REMARK    1  A    between atoms: C_1  and  C_2
REMARK    2  A    between atoms: C_2  and  N_3
REMARK    3  A    between atoms: C_2  and  C_16
REMARK    4  A    between atoms: C_4  and  C_6
REMARK    5  A    between atoms: C_19  and  C_20
REMARK    6  A    between atoms: C_20  and  N_21
REMARK    7  A    between atoms: C_22  and  C_24
REMARK                            x       y       z     vdW  Elec       q    Type
REMARK                         _______ _______ _______ _____ _____    ______ ____
ROOT
ATOM      1  C   UNL     1      48.935  10.047  14.807  0.00  0.00    +0.000 C 
ATOM      2  C   UNL     1      48.955   8.595  14.315  0.00  0.00    +0.000 C 
ENDROOT
BRANCH   2   3
ATOM      3  C   UNL     1      47.741   8.316  13.437  0.00  0.00    +0.000 A 
ATOM      4  C   UNL     1      47.563   7.063  12.836  0.00  0.00    +0.000 A 
ATOM      5  C   UNL     1      46.420   6.795  12.072  0.00  0.00    +0.000 A 
ATOM      6  C   UNL     1      45.434   7.775  11.890  0.00  0.00    +0.000 A 
ATOM      7  C   UNL     1      45.611   9.027  12.486  0.00  0.00    +0.000 A 
ATOM      8  C   UNL     1      46.752   9.296  13.246  0.00  0.00    +0.000 A 
BRANCH   6   9
ATOM      9  C   UNL     1      44.190   7.483  11.092  0.00  0.00    +0.000 C 
BRANCH   9  10
ATOM     10  N   UNL     1      44.063   6.068  10.818  0.00  0.00    +0.000 N 
ATOM     11  C   UNL     1      43.103   5.309  11.452  0.00  0.00    +0.000 C 
ATOM     12  O   UNL     1      42.298   5.789  12.244  0.00  0.00    +0.000 OA
ATOM     13  H   UNL     1      44.647   5.669  10.096  0.00  0.00    +0.000 HD
BRANCH  11  14
ATOM     14  C   UNL     1      43.111   3.838  11.058  0.00  0.00    +0.000 C 
ATOM     15  C   UNL     1      43.548   2.921  12.182  0.00  0.00    +0.000 C 
ATOM     16  C   UNL     1      45.054   2.920  12.046  0.00  0.00    +0.000 C 
ATOM     17  O   UNL     1      45.334   3.059  10.648  0.00  0.00    +0.000 OA
ATOM     18  C   UNL     1      44.159   3.562   9.995  0.00  0.00    +0.000 C 
ENDBRANCH  11  14
ENDBRANCH   9  10
ENDBRANCH   6   9
ENDBRANCH   2   3
BRANCH   2  19
ATOM     19  N   UNL     1      48.971   7.628  15.405  0.00  0.00    +0.000 N 
ATOM     20  C   UNL     1      50.090   6.948  15.809  0.00  0.00    +0.000 C 
ATOM     21  O   UNL     1      51.199   7.137  15.320  0.00  0.00    +0.000 OA
ATOM     22  H   UNL     1      48.071   7.213  15.623  0.00  0.00    +0.000 HD
BRANCH  20  23
ATOM     23  C   UNL     1      49.902   6.021  16.934  0.00  0.00    +0.000 A 
ATOM     24  C   UNL     1      50.716   6.123  18.052  0.00  0.00    +0.000 A 
ATOM     25  S   UNL     1      50.337   4.998  19.277  0.00  0.00    +0.000 S 
ATOM     26  C   UNL     1      49.104   4.303  18.332  0.00  0.00    +0.000 A 
ATOM     27  N   UNL     1      48.384   3.243  18.790  0.00  0.00    +0.000 NA
ATOM     28  C   UNL     1      47.509   2.792  17.955  0.00  0.00    +0.000 A 
ATOM     29  N   UNL     1      47.281   3.311  16.707  0.00  0.00    +0.000 N 
ATOM     30  C   UNL     1      47.952   4.408  16.220  0.00  0.00    +0.000 A 
ATOM     31  O   UNL     1      47.676   4.893  15.127  0.00  0.00    +0.000 OA
ATOM     32  C   UNL     1      48.967   4.936  17.110  0.00  0.00    +0.000 A 
ATOM     33  H   UNL     1      46.570   2.920  16.107  0.00  0.00    +0.000 HD
ENDBRANCH  20  23
ENDBRANCH   2  19
TORSDOF 6
ENDMDL
MODEL 5
REMARK VINA RESULT:    -6.856      2.911      8.585
REMARK INTER + INTRA:         -10.407
REMARK INTER:                  -9.022
REMARK INTRA:                  -1.385
REMARK UNBOUND:                -1.146
REMARK  Name = 
REMARK  7 active torsions:
REMARK  status: ('A' for Active; 'I' for Inactive)
REMARK    1  A    between atoms: C_1  and  C_2
REMARK    2  A    between atoms: C_2  and  N_3
REMARK    3  A    between atoms: C_2  and  C_16
REMARK    4  A    between atoms: C_4  and  C_6
REMARK    5  A    between atoms: C_19  and  C_20
REMARK    6  A    between atoms: C_20  and  N_21
REMARK    7  A    between atoms: C_22  and  C_24
REMARK                            x       y       z     vdW  Elec       q    Type
REMARK                         _______ _______ _______ _____ _____    ______ ____
ROOT
ATOM      1  C   UNL     1      49.003   7.792  11.334  0.00  0.00    +0.000 C 
ATOM      2  C   UNL     1      47.709   7.732  12.153  0.00  0.00    +0.000 C 
ENDROOT
BRANCH   2   3
ATOM      3  C   UNL     1      48.020   7.792  13.644  0.00  0.00    +0.000 A 
ATOM      4  C   UNL     1      48.332   6.628  14.360  0.00  0.00    +0.000 A 
ATOM      5  C   UNL     1      48.667   6.695  15.717  0.00  0.00    +0.000 A 
ATOM      6  C   UNL     1      48.694   7.925  16.389  0.00  0.00    +0.000 A 
ATOM      7  C   UNL     1      48.379   9.088  15.678  0.00  0.00    +0.000 A 
ATOM      8  C   UNL     1      48.042   9.021  14.325  0.00  0.00    +0.000 A 
BRANCH   6   9
ATOM      9  C   UNL     1      49.081   8.005  17.843  0.00  0.00    +0.000 C 
BRANCH   9  10
ATOM     10  N   UNL     1      49.257   6.688  18.412  0.00  0.00    +0.000 N 
ATOM     11  C   UNL     1      50.506   6.107  18.476  0.00  0.00    +0.000 C 
ATOM     12  O   UNL     1      51.520   6.680  18.092  0.00  0.00    +0.000 OA
ATOM     13  H   UNL     1      48.454   6.237  18.827  0.00  0.00    +0.000 HD
BRANCH  11  14
ATOM     14  C   UNL     1      50.515   4.715  19.094  0.00  0.00    +0.000 C 
ATOM     15  C   UNL     1      50.815   3.619  18.093  0.00  0.00    +0.000 C 
ATOM     16  C   UNL     1      49.451   3.308  17.519  0.00  0.00    +0.000 C 
ATOM     17  O   UNL     1      48.509   3.521  18.578  0.00  0.00    +0.000 OA
ATOM     18  C   UNL     1      49.134   4.327  19.589  0.00  0.00    +0.000 C 
ENDBRANCH  11  14
ENDBRANCH   9  10
ENDBRANCH   6   9
ENDBRANCH   2   3
BRANCH   2  19
ATOM     19  N   UNL     1      46.927   6.531  11.891  0.00  0.00    +0.000 N 
ATOM     20  C   UNL     1      45.560   6.511  11.798  0.00  0.00    +0.000 C 
ATOM     21  O   UNL     1      44.871   7.523  11.875  0.00  0.00    +0.000 OA
ATOM     22  H   UNL     1      47.390   5.658  12.126  0.00  0.00    +0.000 HD
BRANCH  20  23
ATOM     23  C   UNL     1      44.958   5.200  11.519  0.00  0.00    +0.000 A 
ATOM     24  C   UNL     1      44.245   4.545  12.512  0.00  0.00    +0.000 A 
ATOM     25  S   UNL     1      43.581   3.057  12.007  0.00  0.00    +0.000 S 
ATOM     26  C   UNL     1      44.268   3.214  10.458  0.00  0.00    +0.000 A 
ATOM     27  N   UNL     1      44.107   2.244   9.518  0.00  0.00    +0.000 NA
ATOM     28  C   UNL     1      44.714   2.475   8.402  0.00  0.00    +0.000 A 
ATOM     29  N   UNL     1      45.459   3.595   8.137  0.00  0.00    +0.000 N 
ATOM     30  C   UNL     1      45.613   4.621   9.038  0.00  0.00    +0.000 A 
ATOM     31  O   UNL     1      46.227   5.642   8.747  0.00  0.00    +0.000 OA
ATOM     32  C   UNL     1      44.973   4.397  10.320  0.00  0.00    +0.000 A 
ATOM     33  H   UNL     1      45.897   3.722   7.237  0.00  0.00    +0.000 HD
ENDBRANCH  20  23
ENDBRANCH   2  19
TORSDOF 6
ENDMDL
MODEL 6
REMARK VINA RESULT:    -6.727      2.479      3.671
REMARK INTER + INTRA:         -10.232
REMARK INTER:                  -8.839
REMARK INTRA:                  -1.393
REMARK UNBOUND:                -1.146
REMARK  Name = 
REMARK  7 active torsions:
REMARK  status: ('A' for Active; 'I' for Inactive)
REMARK    1  A    between atoms: C_1  and  C_2
REMARK    2  A    between atoms: C_2  and  N_3
REMARK    3  A    between atoms: C_2  and  C_16
REMARK    4  A    between atoms: C_4  and  C_6
REMARK    5  A    between atoms: C_19  and  C_20
REMARK    6  A    between atoms: C_20  and  N_21
REMARK    7  A    between atoms: C_22  and  C_24
REMARK                            x       y       z     vdW  Elec       q    Type
REMARK                         _______ _______ _______ _____ _____    ______ ____
ROOT
ATOM      1  C   UNL     1      47.862   2.878  15.753  0.00  0.00    +0.000 C 
ATOM      2  C   UNL     1      47.320   4.304  15.903  0.00  0.00    +0.000 C 
ENDROOT
BRANCH   2   3
ATOM      3  C   UNL     1      46.862   4.843  14.553  0.00  0.00    +0.000 A 
ATOM      4  C   UNL     1      47.393   6.031  14.036  0.00  0.00    +0.000 A 
ATOM      5  C   UNL     1      47.008   6.495  12.772  0.00  0.00    +0.000 A 
ATOM      6  C   UNL     1      46.080   5.782  12.001  0.00  0.00    +0.000 A 
ATOM      7  C   UNL     1      45.545   4.597  12.515  0.00  0.00    +0.000 A 
ATOM      8  C   UNL     1      45.927   4.135  13.777  0.00  0.00    +0.000 A 
BRANCH   6   9
ATOM      9  C   UNL     1      45.683   6.261  10.628  0.00  0.00    +0.000 C 
BRANCH   9  10
ATOM     10  N   UNL     1      45.085   5.196   9.854  0.00  0.00    +0.000 N 
ATOM     11  C   UNL     1      45.656   4.777   8.671  0.00  0.00    +0.000 C 
ATOM     12  O   UNL     1      46.698   5.254   8.236  0.00  0.00    +0.000 OA
ATOM     13  H   UNL     1      44.283   4.718  10.241  0.00  0.00    +0.000 HD
BRANCH  11  14
ATOM     14  C   UNL     1      44.897   3.654   7.977  0.00  0.00    +0.000 C 
ATOM     15  C   UNL     1      44.654   2.455   8.871  0.00  0.00    +0.000 C 
ATOM     16  C   UNL     1      45.921   1.647   8.697  0.00  0.00    +0.000 C 
ATOM     17  O   UNL     1      46.361   1.870   7.351  0.00  0.00    +0.000 OA
ATOM     18  C   UNL     1      45.718   3.052   6.850  0.00  0.00    +0.000 C 
ENDBRANCH  11  14
ENDBRANCH   9  10
ENDBRANCH   6   9
ENDBRANCH   2   3
BRANCH   2  19
ATOM     19  N   UNL     1      48.298   5.227  16.462  0.00  0.00    +0.000 N 
ATOM     20  C   UNL     1      48.242   5.724  17.738  0.00  0.00    +0.000 C 
ATOM     21  O   UNL     1      47.382   5.389  18.547  0.00  0.00    +0.000 OA
ATOM     22  H   UNL     1      48.823   5.762  15.778  0.00  0.00    +0.000 HD
BRANCH  20  23
ATOM     23  C   UNL     1      49.330   6.636  18.117  0.00  0.00    +0.000 A 
ATOM     24  C   UNL     1      49.030   7.885  18.640  0.00  0.00    +0.000 A 
ATOM     25  S   UNL     1      50.408   8.797  19.062  0.00  0.00    +0.000 S 
ATOM     26  C   UNL     1      51.454   7.572  18.513  0.00  0.00    +0.000 A 
ATOM     27  N   UNL     1      52.804   7.730  18.561  0.00  0.00    +0.000 NA
ATOM     28  C   UNL     1      53.475   6.739  18.076  0.00  0.00    +0.000 A 
ATOM     29  N   UNL     1      52.918   5.599  17.557  0.00  0.00    +0.000 N 
ATOM     30  C   UNL     1      51.562   5.376  17.530  0.00  0.00    +0.000 A 
ATOM     31  O   UNL     1      51.097   4.316  17.124  0.00  0.00    +0.000 OA
ATOM     32  C   UNL     1      50.761   6.472  18.037  0.00  0.00    +0.000 A 
ATOM     33  H   UNL     1      53.501   4.854  17.207  0.00  0.00    +0.000 HD
ENDBRANCH  20  23
ENDBRANCH   2  19
TORSDOF 6
ENDMDL
MODEL 7
REMARK VINA RESULT:    -6.654      5.208      7.105
REMARK INTER + INTRA:         -10.133
REMARK INTER:                  -8.931
REMARK INTRA:                  -1.203
REMARK UNBOUND:                -1.146
REMARK  Name = 
REMARK  7 active torsions:
REMARK  status: ('A' for Active; 'I' for Inactive)
REMARK    1  A    between atoms: C_1  and  C_2
REMARK    2  A    between atoms: C_2  and  N_3
REMARK    3  A    between atoms: C_2  and  C_16
REMARK    4  A    between atoms: C_4  and  C_6
REMARK    5  A    between atoms: C_19  and  C_20
REMARK    6  A    between atoms: C_20  and  N_21
REMARK    7  A    between atoms: C_22  and  C_24
REMARK                            x       y       z     vdW  Elec       q    Type
REMARK                         _______ _______ _______ _____ _____    ______ ____
ROOT
ATOM      1  C   UNL     1      50.960   9.632  12.391  0.00  0.00    +0.000 C 
ATOM      2  C   UNL     1      50.475   8.535  11.436  0.00  0.00    +0.000 C 
ENDROOT
BRANCH   2   3
ATOM      3  C   UNL     1      49.328   7.752  12.064  0.00  0.00    +0.000 A 
ATOM      4  C   UNL     1      48.189   7.423  11.319  0.00  0.00    +0.000 A 
ATOM      5  C   UNL     1      47.162   6.660  11.886  0.00  0.00    +0.000 A 
ATOM      6  C   UNL     1      47.250   6.212  13.211  0.00  0.00    +0.000 A 
ATOM      7  C   UNL     1      48.384   6.542  13.960  0.00  0.00    +0.000 A 
ATOM      8  C   UNL     1      49.408   7.306  13.395  0.00  0.00    +0.000 A 
BRANCH   6   9
ATOM      9  C   UNL     1      46.160   5.366  13.817  0.00  0.00    +0.000 C 
BRANCH   9  10
ATOM     10  N   UNL     1      45.246   4.885  12.805  0.00  0.00    +0.000 N 
ATOM     11  C   UNL     1      45.240   3.558  12.433  0.00  0.00    +0.000 C 
ATOM     12  O   UNL     1      45.973   2.723  12.953  0.00  0.00    +0.000 OA
ATOM     13  H   UNL     1      44.564   5.531  12.434  0.00  0.00    +0.000 HD
BRANCH  11  14
ATOM     14  C   UNL     1      44.225   3.219  11.349  0.00  0.00    +0.000 C 
ATOM     15  C   UNL     1      44.861   2.934  10.004  0.00  0.00    +0.000 C 
ATOM     16  C   UNL     1      44.986   4.313   9.394  0.00  0.00    +0.000 C 
ATOM     17  O   UNL     1      43.871   5.072   9.879  0.00  0.00    +0.000 OA
ATOM     18  C   UNL     1      43.338   4.412  11.037  0.00  0.00    +0.000 C 
ENDBRANCH  11  14
ENDBRANCH   9  10
ENDBRANCH   6   9
ENDBRANCH   2   3
BRANCH   2  19
ATOM     19  N   UNL     1      51.528   7.599  11.066  0.00  0.00    +0.000 N 
ATOM     20  C   UNL     1      52.401   7.798  10.029  0.00  0.00    +0.000 C 
ATOM     21  O   UNL     1      52.407   8.819   9.348  0.00  0.00    +0.000 OA
ATOM     22  H   UNL     1      51.377   6.642  11.369  0.00  0.00    +0.000 HD
BRANCH  20  23
ATOM     23  C   UNL     1      53.399   6.739   9.823  0.00  0.00    +0.000 A 
ATOM     24  C   UNL     1      54.323   6.461  10.820  0.00  0.00    +0.000 A 
ATOM     25  S   UNL     1      55.380   5.180  10.433  0.00  0.00    +0.000 S 
ATOM     26  C   UNL     1      54.672   4.988   8.897  0.00  0.00    +0.000 A 
ATOM     27  N   UNL     1      55.138   4.056   8.022  0.00  0.00    +0.000 NA
ATOM     28  C   UNL     1      54.534   4.046   6.881  0.00  0.00    +0.000 A 
ATOM     29  N   UNL     1      53.499   4.877   6.539  0.00  0.00    +0.000 N 
ATOM     30  C   UNL     1      52.965   5.801   7.405  0.00  0.00    +0.000 A 
ATOM     31  O   UNL     1      51.992   6.481   7.095  0.00  0.00    +0.000 OA
ATOM     32  C   UNL     1      53.627   5.872   8.693  0.00  0.00    +0.000 A 
ATOM     33  H   UNL     1      53.059   4.807   5.633  0.00  0.00    +0.000 HD
ENDBRANCH  20  23
ENDBRANCH   2  19
TORSDOF 6
ENDMDL
MODEL 8
REMARK VINA RESULT:    -6.444      4.463      7.184
REMARK INTER + INTRA:          -9.850
REMARK INTER:                  -8.646
REMARK INTRA:                  -1.204
REMARK UNBOUND:                -1.146
REMARK  Name = 
REMARK  7 active torsions:
REMARK  status: ('A' for Active; 'I' for Inactive)
REMARK    1  A    between atoms: C_1  and  C_2
REMARK    2  A    between atoms: C_2  and  N_3
REMARK    3  A    between atoms: C_2  and  C_16
REMARK    4  A    between atoms: C_4  and  C_6
REMARK    5  A    between atoms: C_19  and  C_20
REMARK    6  A    between atoms: C_20  and  N_21
REMARK    7  A    between atoms: C_22  and  C_24
REMARK                            x       y       z     vdW  Elec       q    Type
REMARK                         _______ _______ _______ _____ _____    ______ ____
ROOT
ATOM      1  C   UNL     1      45.298   9.419  12.493  0.00  0.00    +0.000 C 
ATOM      2  C   UNL     1      46.128   8.163  12.789  0.00  0.00    +0.000 C 
ENDROOT
BRANCH   2   3
ATOM      3  C   UNL     1      47.550   8.331  12.267  0.00  0.00    +0.000 A 
ATOM      4  C   UNL     1      48.050   9.598  11.940  0.00  0.00    +0.000 A 
ATOM      5  C   UNL     1      49.373   9.753  11.511  0.00  0.00    +0.000 A 
ATOM      6  C   UNL     1      50.223   8.644  11.395  0.00  0.00    +0.000 A 
ATOM      7  C   UNL     1      49.726   7.378  11.716  0.00  0.00    +0.000 A 
ATOM      8  C   UNL     1      48.405   7.222  12.143  0.00  0.00    +0.000 A 
BRANCH   6   9
ATOM      9  C   UNL     1      51.656   8.809  10.959  0.00  0.00    +0.000 C 
BRANCH   9  10
ATOM     10  N   UNL     1      51.978   7.915   9.869  0.00  0.00    +0.000 N 
ATOM     11  C   UNL     1      53.083   7.093   9.932  0.00  0.00    +0.000 C 
ATOM     12  O   UNL     1      53.820   7.053  10.911  0.00  0.00    +0.000 OA
ATOM     13  H   UNL     1      51.331   7.855   9.095  0.00  0.00    +0.000 HD
BRANCH  11  14
ATOM     14  C   UNL     1      53.283   6.222   8.699  0.00  0.00    +0.000 C 
ATOM     15  C   UNL     1      54.619   6.446   8.020  0.00  0.00    +0.000 C 
ATOM     16  C   UNL     1      54.333   7.611   7.098  0.00  0.00    +0.000 C 
ATOM     17  O   UNL     1      52.967   7.476   6.687  0.00  0.00    +0.000 OA
ATOM     18  C   UNL     1      52.301   6.592   7.602  0.00  0.00    +0.000 C 
ENDBRANCH  11  14
ENDBRANCH   9  10
ENDBRANCH   6   9
ENDBRANCH   2   3
BRANCH   2  19
ATOM     19  N   UNL     1      45.558   6.957  12.203  0.00  0.00    +0.000 N 
ATOM     20  C   UNL     1      45.553   5.734  12.820  0.00  0.00    +0.000 C 
ATOM     21  O   UNL     1      45.983   5.558  13.956  0.00  0.00    +0.000 OA
ATOM     22  H   UNL     1      45.482   6.967  11.190  0.00  0.00    +0.000 HD
BRANCH  20  23
ATOM     23  C   UNL     1      44.922   4.641  12.067  0.00  0.00    +0.000 A 
ATOM     24  C   UNL     1      44.137   3.711  12.732  0.00  0.00    +0.000 A 
ATOM     25  S   UNL     1      43.450   2.537  11.703  0.00  0.00    +0.000 S 
ATOM     26  C   UNL     1      44.221   3.203  10.340  0.00  0.00    +0.000 A 
ATOM     27  N   UNL     1      44.076   2.641   9.109  0.00  0.00    +0.000 NA
ATOM     28  C   UNL     1      44.747   3.225   8.173  0.00  0.00    +0.000 A 
ATOM     29  N   UNL     1      45.543   4.326   8.355  0.00  0.00    +0.000 N 
ATOM     30  C   UNL     1      45.684   4.954   9.569  0.00  0.00    +0.000 A 
ATOM     31  O   UNL     1      46.347   5.980   9.686  0.00  0.00    +0.000 OA
ATOM     32  C   UNL     1      44.972   4.320  10.661  0.00  0.00    +0.000 A 
ATOM     33  H   UNL     1      46.030   4.744   7.576  0.00  0.00    +0.000 HD
ENDBRANCH  20  23
ENDBRANCH   2  19
TORSDOF 6
ENDMDL
MODEL 9
REMARK VINA RESULT:    -6.330      2.800      3.798
REMARK INTER + INTRA:          -9.696
REMARK INTER:                  -8.730
REMARK INTRA:                  -0.966
REMARK UNBOUND:                -1.146
REMARK  Name = 
REMARK  7 active torsions:
REMARK  status: ('A' for Active; 'I' for Inactive)
REMARK    1  A    between atoms: C_1  and  C_2
REMARK    2  A    between atoms: C_2  and  N_3
REMARK    3  A    between atoms: C_2  and  C_16
REMARK    4  A    between atoms: C_4  and  C_6
REMARK    5  A    between atoms: C_19  and  C_20
REMARK    6  A    between atoms: C_20  and  N_21
REMARK    7  A    between atoms: C_22  and  C_24
REMARK                            x       y       z     vdW  Elec       q    Type
REMARK                         _______ _______ _______ _____ _____    ______ ____
ROOT
ATOM      1  C   UNL     1      50.440   9.229  13.217  0.00  0.00    +0.000 C 
ATOM      2  C   UNL     1      49.694   7.975  13.688  0.00  0.00    +0.000 C 
ENDROOT
BRANCH   2   3
ATOM      3  C   UNL     1      48.294   7.932  13.087  0.00  0.00    +0.000 A 
ATOM      4  C   UNL     1      47.946   6.954  12.147  0.00  0.00    +0.000 A 
ATOM      5  C   UNL     1      46.644   6.887  11.636  0.00  0.00    +0.000 A 
ATOM      6  C   UNL     1      45.664   7.800  12.052  0.00  0.00    +0.000 A 
ATOM      7  C   UNL     1      46.010   8.780  12.988  0.00  0.00    +0.000 A 
ATOM      8  C   UNL     1      47.309   8.848  13.495  0.00  0.00    +0.000 A 
BRANCH   6   9
ATOM      9  C   UNL     1      44.254   7.715  11.526  0.00  0.00    +0.000 C 
BRANCH   9  10
ATOM     10  N   UNL     1      43.923   6.365  11.131  0.00  0.00    +0.000 N 
ATOM     11  C   UNL     1      43.337   5.491  12.023  0.00  0.00    +0.000 C 
ATOM     12  O   UNL     1      43.042   5.817  13.168  0.00  0.00    +0.000 OA
ATOM     13  H   UNL     1      44.062   6.103  10.165  0.00  0.00    +0.000 HD
BRANCH  11  14
ATOM     14  C   UNL     1      43.062   4.107  11.450  0.00  0.00    +0.000 C 
ATOM     15  C   UNL     1      43.611   2.986  12.308  0.00  0.00    +0.000 C 
ATOM     16  C   UNL     1      45.037   2.857  11.818  0.00  0.00    +0.000 C 
ATOM     17  O   UNL     1      45.016   3.186  10.423  0.00  0.00    +0.000 OA
ATOM     18  C   UNL     1      43.802   3.899  10.141  0.00  0.00    +0.000 C 
ENDBRANCH  11  14
ENDBRANCH   9  10
ENDBRANCH   6   9
ENDBRANCH   2   3
BRANCH   2  19
ATOM     19  N   UNL     1      49.578   7.896  15.138  0.00  0.00    +0.000 N 
ATOM     20  C   UNL     1      49.083   6.809  15.810  0.00  0.00    +0.000 C 
ATOM     21  O   UNL     1      48.741   5.774  15.245  0.00  0.00    +0.000 OA
ATOM     22  H   UNL     1      49.545   8.791  15.615  0.00  0.00    +0.000 HD
BRANCH  20  23
ATOM     23  C   UNL     1      49.057   6.921  17.275  0.00  0.00    +0.000 A 
ATOM     24  C   UNL     1      48.400   7.987  17.871  0.00  0.00    +0.000 A 
ATOM     25  S   UNL     1      48.434   7.941  19.576  0.00  0.00    +0.000 S 
ATOM     26  C   UNL     1      49.370   6.520  19.573  0.00  0.00    +0.000 A 
ATOM     27  N   UNL     1      49.783   5.951  20.738  0.00  0.00    +0.000 NA
ATOM     28  C   UNL     1      50.519   4.901  20.588  0.00  0.00    +0.000 A 
ATOM     29  N   UNL     1      50.871   4.362  19.378  0.00  0.00    +0.000 N 
ATOM     30  C   UNL     1      50.440   4.875  18.177  0.00  0.00    +0.000 A 
ATOM     31  O   UNL     1      50.714   4.329  17.114  0.00  0.00    +0.000 OA
ATOM     32  C   UNL     1      49.633   6.074  18.291  0.00  0.00    +0.000 A 
ATOM     33  H   UNL     1      51.438   3.528  19.330  0.00  0.00    +0.000 HD
ENDBRANCH  20  23
ENDBRANCH   2  19
TORSDOF 6
ENDMDL
