MODEL 1
REMARK VINA RESULT:    -8.827      0.000      0.000
REMARK INTER + INTRA:         -11.789
REMARK INTER:                 -11.407
REMARK INTRA:                  -0.382
REMARK UNBOUND:                -0.382
REMARK  Name = 
REMARK  6 active torsions:
REMARK  status: ('A' for Active; 'I' for Inactive)
REMARK    1  A    between atoms: C_1  and  C_2
REMARK    2  A    between atoms: C_2  and  N_3
REMARK    3  A    between atoms: C_2  and  C_16
REMARK    4  A    between atoms: C_4  and  C_6
REMARK    5  A    between atoms: C_19  and  O_20
REMARK    6  A    between atoms: O_20  and  C_21
REMARK                            x       y       z     vdW  Elec       q    Type
REMARK                         _______ _______ _______ _____ _____    ______ ____
ROOT
ATOM      1  C   UNL     1      45.232   8.670  12.553  0.00  0.00    +0.000 C 
ATOM      2  C   UNL     1      46.338   7.618  12.398  0.00  0.00    +0.000 C 
ENDROOT
BRANCH   2   3
ATOM      3  C   UNL     1      45.804   6.431  11.610  0.00  0.00    +0.000 A 
ATOM      4  C   UNL     1      44.978   5.489  12.236  0.00  0.00    +0.000 A 
ATOM      5  C   UNL     1      44.532   4.361  11.543  0.00  0.00    +0.000 A 
ATOM      6  C   UNL     1      44.868   4.179  10.199  0.00  0.00    +0.000 A 
ATOM      7  C   UNL     1      45.692   5.109   9.566  0.00  0.00    +0.000 A 
ATOM      8  C   UNL     1      46.149   6.231  10.262  0.00  0.00    +0.000 A 
BRANCH   6   9
ATOM      9  O   UNL     1      44.513   3.075   9.456  0.00  0.00    +0.000 OA
BRANCH   9  10
ATOM     10  C   UNL     1      45.400   2.602   8.499  0.00  0.00    +0.000 A 
ATOM     11  C   UNL     1      45.633   3.429   7.409  0.00  0.00    +0.000 A 
ATOM     12  C   UNL     1      46.523   2.996   6.431  0.00  0.00    +0.000 A 
ATOM     13  C   UNL     1      47.138   1.755   6.568  0.00  0.00    +0.000 A 
ATOM     14  C   UNL     1      46.820   0.987   7.676  0.00  0.00    +0.000 A 
ATOM     15  N   UNL     1      45.954   1.376   8.635  0.00  0.00    +0.000 NA
ENDBRANCH   9  10
ENDBRANCH   6   9
ENDBRANCH   2   3
BRANCH   2  16
ATOM     16  N   UNL     1      46.876   7.170  13.671  0.00  0.00    +0.000 N 
ATOM     17  C   UNL     1      48.183   6.767  13.811  0.00  0.00    +0.000 C 
ATOM     18  O   UNL     1      48.995   6.823  12.892  0.00  0.00    +0.000 OA
ATOM     19  H   UNL     1      46.199   6.809  14.338  0.00  0.00    +0.000 HD
BRANCH  17  20
ATOM     20  C   UNL     1      48.594   6.327  15.148  0.00  0.00    +0.000 A 
ATOM     21  C   UNL     1      49.596   7.019  15.817  0.00  0.00    +0.000 A 
ATOM     22  S   UNL     1      49.950   6.383  17.359  0.00  0.00    +0.000 S 
ATOM     23  C   UNL     1      48.810   5.135  17.165  0.00  0.00    +0.000 A 
ATOM     24  N   UNL     1      48.635   4.190  18.128  0.00  0.00    +0.000 NA
ATOM     25  C   UNL     1      47.764   3.284  17.831  0.00  0.00    +0.000 A 
ATOM     26  N   UNL     1      47.044   3.243  16.665  0.00  0.00    +0.000 N 
ATOM     27  C   UNL     1      47.157   4.199  15.683  0.00  0.00    +0.000 A 
ATOM     28  O   UNL     1      46.457   4.177  14.677  0.00  0.00    +0.000 OA
ATOM     29  C   UNL     1      48.145   5.222  15.956  0.00  0.00    +0.000 A 
ATOM     30  H   UNL     1      46.363   2.515  16.502  0.00  0.00    +0.000 HD
ENDBRANCH  17  20
ENDBRANCH   2  16
TORSDOF 5
ENDMDL
MODEL 2
REMARK VINA RESULT:    -8.746      1.555      2.104
REMARK INTER + INTRA:         -11.685
REMARK INTER:                 -11.009
REMARK INTRA:                  -0.676
REMARK UNBOUND:                -0.382
REMARK  Name = 
REMARK  6 active torsions:
REMARK  status: ('A' for Active; 'I' for Inactive)
REMARK    1  A    between atoms: C_1  and  C_2
REMARK    2  A    between atoms: C_2  and  N_3
REMARK    3  A    between atoms: C_2  and  C_16
REMARK    4  A    between atoms: C_4  and  C_6
REMARK    5  A    between atoms: C_19  and  O_20
REMARK    6  A    between atoms: O_20  and  C_21
REMARK                            x       y       z     vdW  Elec       q    Type
REMARK                         _______ _______ _______ _____ _____    ______ ____
ROOT
ATOM      1  C   UNL     1      45.573   8.030  12.907  0.00  0.00    +0.000 C 
ATOM      2  C   UNL     1      46.477   6.792  12.821  0.00  0.00    +0.000 C 
ENDROOT
BRANCH   2   3
ATOM      3  C   UNL     1      45.918   5.825  11.788  0.00  0.00    +0.000 A 
ATOM      4  C   UNL     1      45.336   4.619  12.199  0.00  0.00    +0.000 A 
ATOM      5  C   UNL     1      44.875   3.694  11.260  0.00  0.00    +0.000 A 
ATOM      6  C   UNL     1      44.948   3.978   9.894  0.00  0.00    +0.000 A 
ATOM      7  C   UNL     1      45.528   5.174   9.473  0.00  0.00    +0.000 A 
ATOM      8  C   UNL     1      46.001   6.095  10.411  0.00  0.00    +0.000 A 
BRANCH   6   9
ATOM      9  O   UNL     1      44.564   3.104   8.901  0.00  0.00    +0.000 OA
BRANCH   9  10
ATOM     10  C   UNL     1      45.542   2.537   8.096  0.00  0.00    +0.000 A 
ATOM     11  C   UNL     1      45.927   3.269   6.982  0.00  0.00    +0.000 A 
ATOM     12  C   UNL     1      46.911   2.740   6.153  0.00  0.00    +0.000 A 
ATOM     13  C   UNL     1      47.468   1.502   6.458  0.00  0.00    +0.000 A 
ATOM     14  C   UNL     1      47.000   0.832   7.575  0.00  0.00    +0.000 A 
ATOM     15  N   UNL     1      46.039   1.315   8.391  0.00  0.00    +0.000 NA
ENDBRANCH   9  10
ENDBRANCH   6   9
ENDBRANCH   2   3
BRANCH   2  16
ATOM     16  N   UNL     1      46.638   6.119  14.098  0.00  0.00    +0.000 N 
ATOM     17  C   UNL     1      47.877   5.858  14.635  0.00  0.00    +0.000 C 
ATOM     18  O   UNL     1      48.920   6.235  14.108  0.00  0.00    +0.000 OA
ATOM     19  H   UNL     1      45.866   5.526  14.390  0.00  0.00    +0.000 HD
BRANCH  17  20
ATOM     20  C   UNL     1      47.899   5.161  15.925  0.00  0.00    +0.000 A 
ATOM     21  C   UNL     1      47.449   3.849  16.001  0.00  0.00    +0.000 A 
ATOM     22  S   UNL     1      47.547   3.184  17.569  0.00  0.00    +0.000 S 
ATOM     23  C   UNL     1      48.151   4.642  18.207  0.00  0.00    +0.000 A 
ATOM     24  N   UNL     1      48.416   4.768  19.534  0.00  0.00    +0.000 NA
ATOM     25  C   UNL     1      48.834   5.939  19.884  0.00  0.00    +0.000 A 
ATOM     26  N   UNL     1      49.022   6.991  19.024  0.00  0.00    +0.000 N 
ATOM     27  C   UNL     1      48.806   6.897  17.669  0.00  0.00    +0.000 A 
ATOM     28  O   UNL     1      49.041   7.832  16.912  0.00  0.00    +0.000 OA
ATOM     29  C   UNL     1      48.308   5.610  17.232  0.00  0.00    +0.000 A 
ATOM     30  H   UNL     1      49.369   7.878  19.360  0.00  0.00    +0.000 HD
ENDBRANCH  17  20
ENDBRANCH   2  16
TORSDOF 5
ENDMDL
MODEL 3
REMARK VINA RESULT:    -8.245      2.681      4.018
REMARK INTER + INTRA:         -11.038
REMARK INTER:                 -10.068
REMARK INTRA:                  -0.969
REMARK UNBOUND:                -0.382
REMARK  Name = 
REMARK  6 active torsions:
REMARK  status: ('A' for Active; 'I' for Inactive)
REMARK    1  A    between atoms: C_1  and  C_2
REMARK    2  A    between atoms: C_2  and  N_3
REMARK    3  A    between atoms: C_2  and  C_16
REMARK    4  A    between atoms: C_4  and  C_6
REMARK    5  A    between atoms: C_19  and  O_20
REMARK    6  A    between atoms: O_20  and  C_21
REMARK                            x       y       z     vdW  Elec       q    Type
REMARK                         _______ _______ _______ _____ _____    ______ ____
ROOT
ATOM      1  C   UNL     1      46.356   4.734  14.355  0.00  0.00    +0.000 C 
ATOM      2  C   UNL     1      45.973   5.756  13.277  0.00  0.00    +0.000 C 
ENDROOT
BRANCH   2   3
ATOM      3  C   UNL     1      45.558   5.027  12.009  0.00  0.00    +0.000 A 
ATOM      4  C   UNL     1      45.096   3.706  12.079  0.00  0.00    +0.000 A 
ATOM      5  C   UNL     1      44.771   3.003  10.916  0.00  0.00    +0.000 A 
ATOM      6  C   UNL     1      44.860   3.622   9.667  0.00  0.00    +0.000 A 
ATOM      7  C   UNL     1      45.322   4.936   9.585  0.00  0.00    +0.000 A 
ATOM      8  C   UNL     1      45.659   5.636  10.746  0.00  0.00    +0.000 A 
BRANCH   6   9
ATOM      9  O   UNL     1      44.607   2.990   8.471  0.00  0.00    +0.000 OA
BRANCH   9  10
ATOM     10  C   UNL     1      45.682   2.557   7.705  0.00  0.00    +0.000 A 
ATOM     11  C   UNL     1      46.001   3.327   6.596  0.00  0.00    +0.000 A 
ATOM     12  C   UNL     1      47.077   2.932   5.807  0.00  0.00    +0.000 A 
ATOM     13  C   UNL     1      47.787   1.783   6.145  0.00  0.00    +0.000 A 
ATOM     14  C   UNL     1      47.375   1.063   7.253  0.00  0.00    +0.000 A 
ATOM     15  N   UNL     1      46.330   1.416   8.030  0.00  0.00    +0.000 NA
ENDBRANCH   9  10
ENDBRANCH   6   9
ENDBRANCH   2   3
BRANCH   2  16
ATOM     16  N   UNL     1      47.040   6.698  12.984  0.00  0.00    +0.000 N 
ATOM     17  C   UNL     1      46.835   8.057  12.984  0.00  0.00    +0.000 C 
ATOM     18  O   UNL     1      45.762   8.566  13.296  0.00  0.00    +0.000 OA
ATOM     19  H   UNL     1      47.810   6.339  12.426  0.00  0.00    +0.000 HD
BRANCH  17  20
ATOM     20  C   UNL     1      47.995   8.896  12.660  0.00  0.00    +0.000 A 
ATOM     21  C   UNL     1      47.824  10.019  11.862  0.00  0.00    +0.000 A 
ATOM     22  S   UNL     1      49.267  10.885  11.586  0.00  0.00    +0.000 S 
ATOM     23  C   UNL     1      50.176   9.762  12.485  0.00  0.00    +0.000 A 
ATOM     24  N   UNL     1      51.523   9.895  12.615  0.00  0.00    +0.000 NA
ATOM     25  C   UNL     1      52.087   8.951  13.293  0.00  0.00    +0.000 A 
ATOM     26  N   UNL     1      51.425   7.894  13.864  0.00  0.00    +0.000 N 
ATOM     27  C   UNL     1      50.060   7.742  13.794  0.00  0.00    +0.000 A 
ATOM     28  O   UNL     1      49.483   6.824  14.364  0.00  0.00    +0.000 OA
ATOM     29  C   UNL     1      49.384   8.760  13.017  0.00  0.00    +0.000 A 
ATOM     30  H   UNL     1      51.924   7.198  14.398  0.00  0.00    +0.000 HD
ENDBRANCH  17  20
ENDBRANCH   2  16
TORSDOF 5
ENDMDL
MODEL 4
REMARK VINA RESULT:    -7.795      2.560      3.355
REMARK INTER + INTRA:         -10.456
REMARK INTER:                  -9.313
REMARK INTRA:                  -1.143
REMARK UNBOUND:                -0.382
REMARK  Name = 
REMARK  6 active torsions:
REMARK  status: ('A' for Active; 'I' for Inactive)
REMARK    1  A    between atoms: C_1  and  C_2
REMARK    2  A    between atoms: C_2  and  N_3
REMARK    3  A    between atoms: C_2  and  C_16
REMARK    4  A    between atoms: C_4  and  C_6
REMARK    5  A    between atoms: C_19  and  O_20
REMARK    6  A    between atoms: O_20  and  C_21
REMARK                            x       y       z     vdW  Elec       q    Type
REMARK                         _______ _______ _______ _____ _____    ______ ____
ROOT
ATOM      1  C   UNL     1      48.485   8.807  13.968  0.00  0.00    +0.000 C 
ATOM      2  C   UNL     1      48.474   7.283  14.151  0.00  0.00    +0.000 C 
ENDROOT
BRANCH   2   3
ATOM      3  C   UNL     1      47.401   6.671  13.264  0.00  0.00    +0.000 A 
ATOM      4  C   UNL     1      46.954   5.364  13.503  0.00  0.00    +0.000 A 
ATOM      5  C   UNL     1      46.015   4.767  12.659  0.00  0.00    +0.000 A 
ATOM      6  C   UNL     1      45.473   5.481  11.588  0.00  0.00    +0.000 A 
ATOM      7  C   UNL     1      45.912   6.781  11.338  0.00  0.00    +0.000 A 
ATOM      8  C   UNL     1      46.861   7.375  12.174  0.00  0.00    +0.000 A 
BRANCH   6   9
ATOM      9  O   UNL     1      44.582   4.954  10.680  0.00  0.00    +0.000 OA
BRANCH   9  10
ATOM     10  C   UNL     1      45.066   4.137   9.667  0.00  0.00    +0.000 A 
ATOM     11  C   UNL     1      44.921   2.770   9.853  0.00  0.00    +0.000 A 
ATOM     12  C   UNL     1      45.385   1.915   8.858  0.00  0.00    +0.000 A 
ATOM     13  C   UNL     1      45.983   2.452   7.722  0.00  0.00    +0.000 A 
ATOM     14  C   UNL     1      46.110   3.829   7.638  0.00  0.00    +0.000 A 
ATOM     15  N   UNL     1      45.679   4.680   8.592  0.00  0.00    +0.000 NA
ENDBRANCH   9  10
ENDBRANCH   6   9
ENDBRANCH   2   3
BRANCH   2  16
ATOM     16  N   UNL     1      48.268   6.881  15.533  0.00  0.00    +0.000 N 
ATOM     17  C   UNL     1      49.288   6.383  16.308  0.00  0.00    +0.000 C 
ATOM     18  O   UNL     1      50.448   6.309  15.910  0.00  0.00    +0.000 OA
ATOM     19  H   UNL     1      47.318   6.622  15.784  0.00  0.00    +0.000 HD
BRANCH  17  20
ATOM     20  C   UNL     1      48.943   6.003  17.682  0.00  0.00    +0.000 A 
ATOM     21  C   UNL     1      49.145   4.695  18.101  0.00  0.00    +0.000 A 
ATOM     22  S   UNL     1      48.698   4.421  19.723  0.00  0.00    +0.000 S 
ATOM     23  C   UNL     1      48.176   6.030  19.907  0.00  0.00    +0.000 A 
ATOM     24  N   UNL     1      47.631   6.460  21.075  0.00  0.00    +0.000 NA
ATOM     25  C   UNL     1      47.246   7.693  21.060  0.00  0.00    +0.000 A 
ATOM     26  N   UNL     1      47.368   8.538  19.987  0.00  0.00    +0.000 N 
ATOM     27  C   UNL     1      47.951   8.158  18.800  0.00  0.00    +0.000 A 
ATOM     28  O   UNL     1      48.106   8.948  17.876  0.00  0.00    +0.000 OA
ATOM     29  C   UNL     1      48.372   6.774  18.757  0.00  0.00    +0.000 A 
ATOM     30  H   UNL     1      47.063   9.498  20.046  0.00  0.00    +0.000 HD
ENDBRANCH  17  20
ENDBRANCH   2  16
TORSDOF 5
ENDMDL
MODEL 5
REMARK VINA RESULT:    -7.653      1.984      2.624
REMARK INTER + INTRA:         -10.272
REMARK INTER:                  -9.374
REMARK INTRA:                  -0.898
REMARK UNBOUND:                -0.382
REMARK  Name = 
REMARK  6 active torsions:
REMARK  status: ('A' for Active; 'I' for Inactive)
REMARK    1  A    between atoms: C_1  and  C_2
REMARK    2  A    between atoms: C_2  and  N_3
REMARK    3  A    between atoms: C_2  and  C_16
REMARK    4  A    between atoms: C_4  and  C_6
REMARK    5  A    between atoms: C_19  and  O_20
REMARK    6  A    between atoms: O_20  and  C_21
REMARK                            x       y       z     vdW  Elec       q    Type
REMARK                         _______ _______ _______ _____ _____    ______ ____
ROOT
ATOM      1  C   UNL     1      48.210   9.518  13.319  0.00  0.00    +0.000 C 
ATOM      2  C   UNL     1      48.247   8.051  13.771  0.00  0.00    +0.000 C 
ENDROOT
BRANCH   2   3
ATOM      3  C   UNL     1      47.175   7.264  13.033  0.00  0.00    +0.000 A 
ATOM      4  C   UNL     1      47.110   5.871  13.169  0.00  0.00    +0.000 A 
ATOM      5  C   UNL     1      46.172   5.128  12.448  0.00  0.00    +0.000 A 
ATOM      6  C   UNL     1      45.253   5.770  11.613  0.00  0.00    +0.000 A 
ATOM      7  C   UNL     1      45.310   7.155  11.468  0.00  0.00    +0.000 A 
ATOM      8  C   UNL     1      46.257   7.898  12.178  0.00  0.00    +0.000 A 
BRANCH   6   9
ATOM      9  O   UNL     1      44.329   5.113  10.832  0.00  0.00    +0.000 OA
BRANCH   9  10
ATOM     10  C   UNL     1      44.779   4.172   9.915  0.00  0.00    +0.000 A 
ATOM     11  C   UNL     1      45.548   4.652   8.864  0.00  0.00    +0.000 A 
ATOM     12  C   UNL     1      46.026   3.741   7.927  0.00  0.00    +0.000 A 
ATOM     13  C   UNL     1      45.714   2.392   8.066  0.00  0.00    +0.000 A 
ATOM     14  C   UNL     1      44.916   2.011   9.131  0.00  0.00    +0.000 A 
ATOM     15  N   UNL     1      44.430   2.873  10.049  0.00  0.00    +0.000 NA
ENDBRANCH   9  10
ENDBRANCH   6   9
ENDBRANCH   2   3
BRANCH   2  16
ATOM     16  N   UNL     1      48.079   7.897  15.206  0.00  0.00    +0.000 N 
ATOM     17  C   UNL     1      48.976   7.194  15.975  0.00  0.00    +0.000 C 
ATOM     18  O   UNL     1      50.007   6.711  15.515  0.00  0.00    +0.000 OA
ATOM     19  H   UNL     1      47.129   7.985  15.556  0.00  0.00    +0.000 HD
BRANCH  17  20
ATOM     20  C   UNL     1      48.683   7.104  17.409  0.00  0.00    +0.000 A 
ATOM     21  C   UNL     1      48.337   8.253  18.109  0.00  0.00    +0.000 A 
ATOM     22  S   UNL     1      48.022   7.976  19.762  0.00  0.00    +0.000 S 
ATOM     23  C   UNL     1      48.382   6.319  19.607  0.00  0.00    +0.000 A 
ATOM     24  N   UNL     1      48.345   5.491  20.685  0.00  0.00    +0.000 NA
ATOM     25  C   UNL     1      48.677   4.270  20.428  0.00  0.00    +0.000 A 
ATOM     26  N   UNL     1      49.029   3.799  19.189  0.00  0.00    +0.000 N 
ATOM     27  C   UNL     1      49.040   4.590  18.064  0.00  0.00    +0.000 A 
ATOM     28  O   UNL     1      49.298   4.133  16.957  0.00  0.00    +0.000 OA
ATOM     29  C   UNL     1      48.704   5.977  18.306  0.00  0.00    +0.000 A 
ATOM     30  H   UNL     1      49.261   2.826  19.052  0.00  0.00    +0.000 HD
ENDBRANCH  17  20
ENDBRANCH   2  16
TORSDOF 5
ENDMDL
MODEL 6
REMARK VINA RESULT:    -7.514      2.826      4.502
REMARK INTER + INTRA:         -10.092
REMARK INTER:                  -8.948
REMARK INTRA:                  -1.145
REMARK UNBOUND:                -0.382
REMARK  Name = 
REMARK  6 active torsions:
REMARK  status: ('A' for Active; 'I' for Inactive)
REMARK    1  A    between atoms: C_1  and  C_2
REMARK    2  A    between atoms: C_2  and  N_3
REMARK    3  A    between atoms: C_2  and  C_16
REMARK    4  A    between atoms: C_4  and  C_6
REMARK    5  A    between atoms: C_19  and  O_20
REMARK    6  A    between atoms: O_20  and  C_21
REMARK                            x       y       z     vdW  Elec       q    Type
REMARK                         _______ _______ _______ _____ _____    ______ ____
ROOT
ATOM      1  C   UNL     1      47.420   4.708  15.288  0.00  0.00    +0.000 C 
ATOM      2  C   UNL     1      47.258   5.881  14.312  0.00  0.00    +0.000 C 
ENDROOT
BRANCH   2   3
ATOM      3  C   UNL     1      46.495   5.417  13.080  0.00  0.00    +0.000 A 
ATOM      4  C   UNL     1      45.843   4.177  13.086  0.00  0.00    +0.000 A 
ATOM      5  C   UNL     1      45.191   3.710  11.942  0.00  0.00    +0.000 A 
ATOM      6  C   UNL     1      45.143   4.495  10.786  0.00  0.00    +0.000 A 
ATOM      7  C   UNL     1      45.792   5.729  10.768  0.00  0.00    +0.000 A 
ATOM      8  C   UNL     1      46.454   6.192  11.908  0.00  0.00    +0.000 A 
BRANCH   6   9
ATOM      9  O   UNL     1      44.566   4.093   9.603  0.00  0.00    +0.000 OA
BRANCH   9  10
ATOM     10  C   UNL     1      45.362   3.468   8.651  0.00  0.00    +0.000 A 
ATOM     11  C   UNL     1      45.553   2.102   8.805  0.00  0.00    +0.000 A 
ATOM     12  C   UNL     1      46.337   1.436   7.868  0.00  0.00    +0.000 A 
ATOM     13  C   UNL     1      46.908   2.155   6.822  0.00  0.00    +0.000 A 
ATOM     14  C   UNL     1      46.685   3.520   6.768  0.00  0.00    +0.000 A 
ATOM     15  N   UNL     1      45.938   4.194   7.667  0.00  0.00    +0.000 NA
ENDBRANCH   9  10
ENDBRANCH   6   9
ENDBRANCH   2   3
BRANCH   2  16
ATOM     16  N   UNL     1      48.528   6.469  13.919  0.00  0.00    +0.000 N 
ATOM     17  C   UNL     1      49.115   7.484  14.637  0.00  0.00    +0.000 C 
ATOM     18  O   UNL     1      48.645   7.912  15.687  0.00  0.00    +0.000 OA
ATOM     19  H   UNL     1      48.772   6.387  12.936  0.00  0.00    +0.000 HD
BRANCH  17  20
ATOM     20  C   UNL     1      50.391   7.997  14.124  0.00  0.00    +0.000 A 
ATOM     21  C   UNL     1      51.543   7.846  14.885  0.00  0.00    +0.000 A 
ATOM     22  S   UNL     1      52.938   8.491  14.145  0.00  0.00    +0.000 S 
ATOM     23  C   UNL     1      52.041   9.033  12.805  0.00  0.00    +0.000 A 
ATOM     24  N   UNL     1      52.638   9.719  11.794  0.00  0.00    +0.000 NA
ATOM     25  C   UNL     1      51.830  10.100  10.861  0.00  0.00    +0.000 A 
ATOM     26  N   UNL     1      50.483   9.846  10.840  0.00  0.00    +0.000 N 
ATOM     27  C   UNL     1      49.844   9.121  11.819  0.00  0.00    +0.000 A 
ATOM     28  O   UNL     1      48.650   8.854  11.748  0.00  0.00    +0.000 OA
ATOM     29  C   UNL     1      50.703   8.697  12.904  0.00  0.00    +0.000 A 
ATOM     30  H   UNL     1      49.909  10.158  10.070  0.00  0.00    +0.000 HD
ENDBRANCH  17  20
ENDBRANCH   2  16
TORSDOF 5
ENDMDL
MODEL 7
REMARK VINA RESULT:    -7.443      3.325      5.354
REMARK INTER + INTRA:         -10.001
REMARK INTER:                  -8.806
REMARK INTRA:                  -1.196
REMARK UNBOUND:                -0.382
REMARK  Name = 
REMARK  6 active torsions:
REMARK  status: ('A' for Active; 'I' for Inactive)
REMARK    1  A    between atoms: C_1  and  C_2
REMARK    2  A    between atoms: C_2  and  N_3
REMARK    3  A    between atoms: C_2  and  C_16
REMARK    4  A    between atoms: C_4  and  C_6
REMARK    5  A    between atoms: C_19  and  O_20
REMARK    6  A    between atoms: O_20  and  C_21
REMARK                            x       y       z     vdW  Elec       q    Type
REMARK                         _______ _______ _______ _____ _____    ______ ____
ROOT
ATOM      1  C   UNL     1      48.016   6.700  18.413  0.00  0.00    +0.000 C 
ATOM      2  C   UNL     1      49.013   6.293  17.320  0.00  0.00    +0.000 C 
ENDROOT
BRANCH   2   3
ATOM      3  C   UNL     1      48.264   5.665  16.155  0.00  0.00    +0.000 A 
ATOM      4  C   UNL     1      47.641   4.420  16.312  0.00  0.00    +0.000 A 
ATOM      5  C   UNL     1      47.003   3.801  15.235  0.00  0.00    +0.000 A 
ATOM      6  C   UNL     1      46.938   4.438  13.992  0.00  0.00    +0.000 A 
ATOM      7  C   UNL     1      47.557   5.676  13.823  0.00  0.00    +0.000 A 
ATOM      8  C   UNL     1      48.206   6.290  14.897  0.00  0.00    +0.000 A 
BRANCH   6   9
ATOM      9  O   UNL     1      46.373   3.881  12.867  0.00  0.00    +0.000 OA
BRANCH   9  10
ATOM     10  C   UNL     1      45.114   4.312  12.470  0.00  0.00    +0.000 A 
ATOM     11  C   UNL     1      44.872   4.339  11.104  0.00  0.00    +0.000 A 
ATOM     12  C   UNL     1      43.620   4.757  10.664  0.00  0.00    +0.000 A 
ATOM     13  C   UNL     1      42.661   5.141  11.597  0.00  0.00    +0.000 A 
ATOM     14  C   UNL     1      43.005   5.108  12.938  0.00  0.00    +0.000 A 
ATOM     15  N   UNL     1      44.213   4.718  13.393  0.00  0.00    +0.000 NA
ENDBRANCH   9  10
ENDBRANCH   6   9
ENDBRANCH   2   3
BRANCH   2  16
ATOM     16  N   UNL     1      50.041   5.384  17.800  0.00  0.00    +0.000 N 
ATOM     17  C   UNL     1      51.327   5.416  17.317  0.00  0.00    +0.000 C 
ATOM     18  O   UNL     1      51.710   6.252  16.504  0.00  0.00    +0.000 OA
ATOM     19  H   UNL     1      49.711   4.510  18.200  0.00  0.00    +0.000 HD
BRANCH  17  20
ATOM     20  C   UNL     1      52.263   4.435  17.879  0.00  0.00    +0.000 A 
ATOM     21  C   UNL     1      53.404   4.878  18.535  0.00  0.00    +0.000 A 
ATOM     22  S   UNL     1      54.381   3.614  19.132  0.00  0.00    +0.000 S 
ATOM     23  C   UNL     1      53.336   2.433  18.493  0.00  0.00    +0.000 A 
ATOM     24  N   UNL     1      53.616   1.108  18.618  0.00  0.00    +0.000 NA
ATOM     25  C   UNL     1      52.755   0.327  18.054  0.00  0.00    +0.000 A 
ATOM     26  N   UNL     1      51.634   0.751  17.388  0.00  0.00    +0.000 N 
ATOM     27  C   UNL     1      51.289   2.077  17.272  0.00  0.00    +0.000 A 
ATOM     28  O   UNL     1      50.249   2.428  16.727  0.00  0.00    +0.000 OA
ATOM     29  C   UNL     1      52.240   2.995  17.864  0.00  0.00    +0.000 A 
ATOM     30  H   UNL     1      50.990   0.086  16.983  0.00  0.00    +0.000 HD
ENDBRANCH  17  20
ENDBRANCH   2  16
TORSDOF 5
ENDMDL
MODEL 8
REMARK VINA RESULT:    -7.334      3.265      7.840
REMARK INTER + INTRA:          -9.861
REMARK INTER:                  -8.866
REMARK INTRA:                  -0.995
REMARK UNBOUND:                -0.382
REMARK  Name = 
REMARK  6 active torsions:
REMARK  status: ('A' for Active; 'I' for Inactive)
REMARK    1  A    between atoms: C_1  and  C_2
REMARK    2  A    between atoms: C_2  and  N_3
REMARK    3  A    between atoms: C_2  and  C_16
REMARK    4  A    between atoms: C_4  and  C_6
REMARK    5  A    between atoms: C_19  and  O_20
REMARK    6  A    between atoms: O_20  and  C_21
REMARK                            x       y       z     vdW  Elec       q    Type
REMARK                         _______ _______ _______ _____ _____    ______ ____
ROOT
ATOM      1  C   UNL     1      49.557   8.315  12.184  0.00  0.00    +0.000 C 
ATOM      2  C   UNL     1      48.398   7.684  12.967  0.00  0.00    +0.000 C 
ENDROOT
BRANCH   2   3
ATOM      3  C   UNL     1      48.927   7.070  14.254  0.00  0.00    +0.000 A 
ATOM      4  C   UNL     1      48.123   6.195  14.996  0.00  0.00    +0.000 A 
ATOM      5  C   UNL     1      48.572   5.673  16.211  0.00  0.00    +0.000 A 
ATOM      6  C   UNL     1      49.850   5.981  16.683  0.00  0.00    +0.000 A 
ATOM      7  C   UNL     1      50.658   6.853  15.954  0.00  0.00    +0.000 A 
ATOM      8  C   UNL     1      50.206   7.386  14.745  0.00  0.00    +0.000 A 
BRANCH   6   9
ATOM      9  O   UNL     1      50.353   5.550  17.891  0.00  0.00    +0.000 OA
BRANCH   9  10
ATOM     10  C   UNL     1      51.119   4.392  17.919  0.00  0.00    +0.000 A 
ATOM     11  C   UNL     1      50.500   3.230  17.484  0.00  0.00    +0.000 A 
ATOM     12  C   UNL     1      51.236   2.049  17.488  0.00  0.00    +0.000 A 
ATOM     13  C   UNL     1      52.554   2.068  17.935  0.00  0.00    +0.000 A 
ATOM     14  C   UNL     1      53.077   3.271  18.378  0.00  0.00    +0.000 A 
ATOM     15  N   UNL     1      52.384   4.428  18.395  0.00  0.00    +0.000 NA
ENDBRANCH   9  10
ENDBRANCH   6   9
ENDBRANCH   2   3
BRANCH   2  16
ATOM     16  N   UNL     1      47.672   6.686  12.199  0.00  0.00    +0.000 N 
ATOM     17  C   UNL     1      46.336   6.820  11.905  0.00  0.00    +0.000 C 
ATOM     18  O   UNL     1      45.687   7.817  12.209  0.00  0.00    +0.000 OA
ATOM     19  H   UNL     1      48.058   5.745  12.215  0.00  0.00    +0.000 HD
BRANCH  17  20
ATOM     20  C   UNL     1      45.722   5.734  11.133  0.00  0.00    +0.000 A 
ATOM     21  C   UNL     1      45.850   5.721   9.750  0.00  0.00    +0.000 A 
ATOM     22  S   UNL     1      45.085   4.391   9.007  0.00  0.00    +0.000 S 
ATOM     23  C   UNL     1      44.519   3.812  10.503  0.00  0.00    +0.000 A 
ATOM     24  N   UNL     1      43.742   2.699  10.575  0.00  0.00    +0.000 NA
ATOM     25  C   UNL     1      43.354   2.397  11.770  0.00  0.00    +0.000 A 
ATOM     26  N   UNL     1      43.683   3.100  12.900  0.00  0.00    +0.000 N 
ATOM     27  C   UNL     1      44.499   4.207  12.880  0.00  0.00    +0.000 A 
ATOM     28  O   UNL     1      44.831   4.783  13.910  0.00  0.00    +0.000 OA
ATOM     29  C   UNL     1      44.936   4.604  11.558  0.00  0.00    +0.000 A 
ATOM     30  H   UNL     1      43.361   2.800  13.809  0.00  0.00    +0.000 HD
ENDBRANCH  17  20
ENDBRANCH   2  16
TORSDOF 5
ENDMDL
MODEL 9
REMARK VINA RESULT:    -7.140      2.913      8.510
REMARK INTER + INTRA:          -9.609
REMARK INTER:                  -8.596
REMARK INTRA:                  -1.013
REMARK UNBOUND:                -0.382
REMARK  Name = 
REMARK  6 active torsions:
REMARK  status: ('A' for Active; 'I' for Inactive)
REMARK    1  A    between atoms: C_1  and  C_2
REMARK    2  A    between atoms: C_2  and  N_3
REMARK    3  A    between atoms: C_2  and  C_16
REMARK    4  A    between atoms: C_4  and  C_6
REMARK    5  A    between atoms: C_19  and  O_20
REMARK    6  A    between atoms: O_20  and  C_21
REMARK                            x       y       z     vdW  Elec       q    Type
REMARK                         _______ _______ _______ _____ _____    ______ ____
ROOT
ATOM      1  C   UNL     1      48.577   8.160  11.404  0.00  0.00    +0.000 C 
ATOM      2  C   UNL     1      47.438   7.888  12.396  0.00  0.00    +0.000 C 
ENDROOT
BRANCH   2   3
ATOM      3  C   UNL     1      47.987   7.893  13.814  0.00  0.00    +0.000 A 
ATOM      4  C   UNL     1      48.050   9.092  14.537  0.00  0.00    +0.000 A 
ATOM      5  C   UNL     1      48.609   9.123  15.817  0.00  0.00    +0.000 A 
ATOM      6  C   UNL     1      49.073   7.948  16.414  0.00  0.00    +0.000 A 
ATOM      7  C   UNL     1      49.018   6.750  15.703  0.00  0.00    +0.000 A 
ATOM      8  C   UNL     1      48.471   6.720  14.418  0.00  0.00    +0.000 A 
BRANCH   6   9
ATOM      9  O   UNL     1      49.681   7.897  17.648  0.00  0.00    +0.000 OA
BRANCH   9  10
ATOM     10  C   UNL     1      49.209   6.988  18.586  0.00  0.00    +0.000 A 
ATOM     11  C   UNL     1      47.964   7.256  19.136  0.00  0.00    +0.000 A 
ATOM     12  C   UNL     1      47.451   6.365  20.074  0.00  0.00    +0.000 A 
ATOM     13  C   UNL     1      48.199   5.249  20.436  0.00  0.00    +0.000 A 
ATOM     14  C   UNL     1      49.445   5.080  19.855  0.00  0.00    +0.000 A 
ATOM     15  N   UNL     1      49.972   5.932  18.951  0.00  0.00    +0.000 NA
ENDBRANCH   9  10
ENDBRANCH   6   9
ENDBRANCH   2   3
BRANCH   2  16
ATOM     16  N   UNL     1      46.746   6.637  12.133  0.00  0.00    +0.000 N 
ATOM     17  C   UNL     1      45.413   6.597  11.800  0.00  0.00    +0.000 C 
ATOM     18  O   UNL     1      44.740   7.610  11.635  0.00  0.00    +0.000 OA
ATOM     19  H   UNL     1      47.149   5.807  12.559  0.00  0.00    +0.000 HD
BRANCH  17  20
ATOM     20  C   UNL     1      44.834   5.268  11.572  0.00  0.00    +0.000 A 
ATOM     21  C   UNL     1      44.123   4.649  12.592  0.00  0.00    +0.000 A 
ATOM     22  S   UNL     1      43.513   3.115  12.164  0.00  0.00    +0.000 S 
ATOM     23  C   UNL     1      44.218   3.207  10.618  0.00  0.00    +0.000 A 
ATOM     24  N   UNL     1      44.109   2.178   9.737  0.00  0.00    +0.000 NA
ATOM     25  C   UNL     1      44.724   2.369   8.617  0.00  0.00    +0.000 A 
ATOM     26  N   UNL     1      45.426   3.502   8.294  0.00  0.00    +0.000 N 
ATOM     27  C   UNL     1      45.528   4.584   9.138  0.00  0.00    +0.000 A 
ATOM     28  O   UNL     1      46.109   5.610   8.803  0.00  0.00    +0.000 OA
ATOM     29  C   UNL     1      44.880   4.405  10.420  0.00  0.00    +0.000 A 
ATOM     30  H   UNL     1      45.870   3.596   7.392  0.00  0.00    +0.000 HD
ENDBRANCH  17  20
ENDBRANCH   2  16
TORSDOF 5
ENDMDL
