MODEL 1
REMARK VINA RESULT:    -7.590      0.000      0.000
REMARK INTER + INTRA:         -11.960
REMARK INTER:                 -10.695
REMARK INTRA:                  -1.265
REMARK UNBOUND:                -1.265
REMARK  Name = 
REMARK  10 active torsions:
REMARK  status: ('A' for Active; 'I' for Inactive)
REMARK    1  A    between atoms: C_1  and  O_2
REMARK    2  A    between atoms: O_2  and  C_3
REMARK    3  A    between atoms: C_10  and  C_11
REMARK    4  A    between atoms: N_13  and  C_14
REMARK    5  A    between atoms: C_14  and  C_15
REMARK    6  A    between atoms: C_18  and  N_19
REMARK    7  A    between atoms: N_19  and  C_20
REMARK    8  A    between atoms: C_20  and  C_21
REMARK    9  A    between atoms: C_20  and  C_22
REMARK   10  A    between atoms: C_20  and  C_23
REMARK                            x       y       z     vdW  Elec       q    Type
REMARK                         _______ _______ _______ _____ _____    ______ ____
ROOT
ATOM      1  C   UNL     1      47.326   8.433  13.430  0.00  0.00    +0.000 A 
ATOM      2  C   UNL     1      47.929   7.509  12.575  0.00  0.00    +0.000 A 
ATOM      3  C   UNL     1      47.175   6.833  11.609  0.00  0.00    +0.000 A 
ATOM      4  C   UNL     1      45.803   7.047  11.463  0.00  0.00    +0.000 A 
ATOM      5  C   UNL     1      45.238   8.076  12.227  0.00  0.00    +0.000 A 
ATOM      6  C   UNL     1      45.983   8.754  13.208  0.00  0.00    +0.000 A 
ENDROOT
BRANCH   4   7
ATOM      7  N   UNL     1      44.973   6.299  10.637  0.00  0.00    +0.000 N 
ATOM      8  H   UNL     1      45.036   6.563   9.656  0.00  0.00    +0.000 HD
BRANCH   7   9
ATOM      9  C   UNL     1      44.608   4.869  10.840  0.00  0.00    +0.000 C 
ATOM     10  C   UNL     1      45.282   4.330  12.117  0.00  0.00    +0.000 C 
ATOM     11  C   UNL     1      43.078   4.677  10.870  0.00  0.00    +0.000 C 
BRANCH   9  12
ATOM     12  C   UNL     1      45.105   4.012   9.642  0.00  0.00    +0.000 A 
ATOM     13  C   UNL     1      45.063   2.616   9.680  0.00  0.00    +0.000 A 
ATOM     14  C   UNL     1      45.588   1.885   8.615  0.00  0.00    +0.000 A 
ATOM     15  C   UNL     1      46.160   2.555   7.539  0.00  0.00    +0.000 A 
ATOM     16  C   UNL     1      46.182   3.935   7.576  0.00  0.00    +0.000 A 
ATOM     17  N   UNL     1      45.674   4.668   8.592  0.00  0.00    +0.000 NA
ENDBRANCH   9  12
ENDBRANCH   7   9
ENDBRANCH   4   7
BRANCH   1  18
ATOM     18  C   UNL     1      48.109   9.028  14.568  0.00  0.00    +0.000 C 
BRANCH  18  21
ATOM     19  C   UNL     1      49.213   8.170  16.591  0.00  0.00    +0.000 C 
ATOM     20  O   UNL     1      50.156   8.944  16.444  0.00  0.00    +0.000 OA
ATOM     21  N   UNL     1      48.167   8.148  15.708  0.00  0.00    +0.000 N 
ATOM     22  H   UNL     1      47.416   7.481  15.822  0.00  0.00    +0.000 HD
BRANCH  19  30
ATOM     23  C   UNL     1      48.450   4.828  16.826  0.00  0.00    +0.000 A 
ATOM     24  N   UNL     1      48.229   3.550  17.189  0.00  0.00    +0.000 NA
ATOM     25  C   UNL     1      48.378   3.230  18.477  0.00  0.00    +0.000 A 
ATOM     26  N   UNL     1      48.726   4.044  19.472  0.00  0.00    +0.000 NA
ATOM     27  C   UNL     1      48.947   5.306  19.064  0.00  0.00    +0.000 A 
ATOM     28  S   UNL     1      49.399   6.487  20.197  0.00  0.00    +0.000 S 
ATOM     29  C   UNL     1      49.480   7.682  18.992  0.00  0.00    +0.000 A 
ATOM     30  C   UNL     1      49.174   7.220  17.717  0.00  0.00    +0.000 A 
ATOM     31  C   UNL     1      48.847   5.796  17.767  0.00  0.00    +0.000 A 
BRANCH  23  33
ATOM     32  C   UNL     1      47.137   4.666  14.887  0.00  0.00    +0.000 C 
ATOM     33  O   UNL     1      48.324   5.162  15.496  0.00  0.00    +0.000 OA
ENDBRANCH  23  33
ENDBRANCH  19  30
ENDBRANCH  18  21
ENDBRANCH   1  18
TORSDOF 7
ENDMDL
MODEL 2
REMARK VINA RESULT:    -6.915      3.225      7.586
REMARK INTER + INTRA:         -11.009
REMARK INTER:                  -9.259
REMARK INTRA:                  -1.750
REMARK UNBOUND:                -1.265
REMARK  Name = 
REMARK  10 active torsions:
REMARK  status: ('A' for Active; 'I' for Inactive)
REMARK    1  A    between atoms: C_1  and  O_2
REMARK    2  A    between atoms: O_2  and  C_3
REMARK    3  A    between atoms: C_10  and  C_11
REMARK    4  A    between atoms: N_13  and  C_14
REMARK    5  A    between atoms: C_14  and  C_15
REMARK    6  A    between atoms: C_18  and  N_19
REMARK    7  A    between atoms: N_19  and  C_20
REMARK    8  A    between atoms: C_20  and  C_21
REMARK    9  A    between atoms: C_20  and  C_22
REMARK   10  A    between atoms: C_20  and  C_23
REMARK                            x       y       z     vdW  Elec       q    Type
REMARK                         _______ _______ _______ _____ _____    ______ ____
ROOT
ATOM      1  C   UNL     1      48.497   8.539  15.076  0.00  0.00    +0.000 A 
ATOM      2  C   UNL     1      48.219   9.116  16.315  0.00  0.00    +0.000 A 
ATOM      3  C   UNL     1      48.672   8.520  17.497  0.00  0.00    +0.000 A 
ATOM      4  C   UNL     1      49.409   7.334  17.489  0.00  0.00    +0.000 A 
ATOM      5  C   UNL     1      49.803   6.843  16.238  0.00  0.00    +0.000 A 
ATOM      6  C   UNL     1      49.345   7.427  15.044  0.00  0.00    +0.000 A 
ENDROOT
BRANCH   4   7
ATOM      7  N   UNL     1      49.751   6.612  18.626  0.00  0.00    +0.000 N 
ATOM      8  H   UNL     1      50.066   7.199  19.396  0.00  0.00    +0.000 HD
BRANCH   7   9
ATOM      9  C   UNL     1      49.109   5.345  19.073  0.00  0.00    +0.000 C 
ATOM     10  C   UNL     1      49.392   5.111  20.570  0.00  0.00    +0.000 C 
ATOM     11  C   UNL     1      47.598   5.339  18.763  0.00  0.00    +0.000 C 
BRANCH   9  12
ATOM     12  C   UNL     1      49.693   4.139  18.284  0.00  0.00    +0.000 A 
ATOM     13  C   UNL     1      48.863   3.237  17.615  0.00  0.00    +0.000 A 
ATOM     14  C   UNL     1      49.424   2.128  16.983  0.00  0.00    +0.000 A 
ATOM     15  C   UNL     1      50.798   1.926  17.042  0.00  0.00    +0.000 A 
ATOM     16  C   UNL     1      51.556   2.849  17.735  0.00  0.00    +0.000 A 
ATOM     17  N   UNL     1      51.039   3.936  18.350  0.00  0.00    +0.000 NA
ENDBRANCH   9  12
ENDBRANCH   7   9
ENDBRANCH   4   7
BRANCH   1  18
ATOM     18  C   UNL     1      47.867   9.095  13.827  0.00  0.00    +0.000 C 
BRANCH  18  21
ATOM     19  C   UNL     1      46.756   7.404  12.429  0.00  0.00    +0.000 C 
ATOM     20  O   UNL     1      47.803   7.164  11.831  0.00  0.00    +0.000 OA
ATOM     21  N   UNL     1      46.705   8.344  13.423  0.00  0.00    +0.000 N 
ATOM     22  H   UNL     1      45.829   8.557  13.880  0.00  0.00    +0.000 HD
BRANCH  19  30
ATOM     23  C   UNL     1      45.700   4.157  12.811  0.00  0.00    +0.000 A 
ATOM     24  N   UNL     1      45.040   2.984  12.860  0.00  0.00    +0.000 NA
ATOM     25  C   UNL     1      43.799   2.942  12.369  0.00  0.00    +0.000 A 
ATOM     26  N   UNL     1      43.118   3.947  11.821  0.00  0.00    +0.000 NA
ATOM     27  C   UNL     1      43.809   5.100  11.801  0.00  0.00    +0.000 A 
ATOM     28  S   UNL     1      43.101   6.492  11.136  0.00  0.00    +0.000 S 
ATOM     29  C   UNL     1      44.486   7.417  11.470  0.00  0.00    +0.000 A 
ATOM     30  C   UNL     1      45.505   6.702  12.090  0.00  0.00    +0.000 A 
ATOM     31  C   UNL     1      45.097   5.312  12.279  0.00  0.00    +0.000 A 
BRANCH  23  33
ATOM     32  C   UNL     1      47.003   4.504  14.732  0.00  0.00    +0.000 C 
ATOM     33  O   UNL     1      46.971   4.216  13.338  0.00  0.00    +0.000 OA
ENDBRANCH  23  33
ENDBRANCH  19  30
ENDBRANCH  18  21
ENDBRANCH   1  18
TORSDOF 7
ENDMDL
MODEL 3
REMARK VINA RESULT:    -6.877      4.165      9.321
REMARK INTER + INTRA:         -10.956
REMARK INTER:                  -9.761
REMARK INTRA:                  -1.194
REMARK UNBOUND:                -1.265
REMARK  Name = 
REMARK  10 active torsions:
REMARK  status: ('A' for Active; 'I' for Inactive)
REMARK    1  A    between atoms: C_1  and  O_2
REMARK    2  A    between atoms: O_2  and  C_3
REMARK    3  A    between atoms: C_10  and  C_11
REMARK    4  A    between atoms: N_13  and  C_14
REMARK    5  A    between atoms: C_14  and  C_15
REMARK    6  A    between atoms: C_18  and  N_19
REMARK    7  A    between atoms: N_19  and  C_20
REMARK    8  A    between atoms: C_20  and  C_21
REMARK    9  A    between atoms: C_20  and  C_22
REMARK   10  A    between atoms: C_20  and  C_23
REMARK                            x       y       z     vdW  Elec       q    Type
REMARK                         _______ _______ _______ _____ _____    ______ ____
ROOT
ATOM      1  C   UNL     1      48.546   3.520  17.281  0.00  0.00    +0.000 A 
ATOM      2  C   UNL     1      48.940   4.644  18.006  0.00  0.00    +0.000 A 
ATOM      3  C   UNL     1      50.207   4.705  18.597  0.00  0.00    +0.000 A 
ATOM      4  C   UNL     1      51.120   3.653  18.493  0.00  0.00    +0.000 A 
ATOM      5  C   UNL     1      50.769   2.592  17.647  0.00  0.00    +0.000 A 
ATOM      6  C   UNL     1      49.496   2.516  17.057  0.00  0.00    +0.000 A 
ENDROOT
BRANCH   4   7
ATOM      7  N   UNL     1      52.324   3.584  19.183  0.00  0.00    +0.000 N 
ATOM      8  H   UNL     1      52.314   2.907  19.943  0.00  0.00    +0.000 HD
BRANCH   7   9
ATOM      9  C   UNL     1      53.675   3.788  18.592  0.00  0.00    +0.000 C 
ATOM     10  C   UNL     1      53.576   4.708  17.359  0.00  0.00    +0.000 C 
ATOM     11  C   UNL     1      54.672   4.329  19.638  0.00  0.00    +0.000 C 
BRANCH   9  12
ATOM     12  C   UNL     1      54.269   2.429  18.126  0.00  0.00    +0.000 A 
ATOM     13  C   UNL     1      55.046   2.334  16.969  0.00  0.00    +0.000 A 
ATOM     14  C   UNL     1      55.495   1.084  16.546  0.00  0.00    +0.000 A 
ATOM     15  C   UNL     1      55.151  -0.051  17.271  0.00  0.00    +0.000 A 
ATOM     16  C   UNL     1      54.366   0.116  18.396  0.00  0.00    +0.000 A 
ATOM     17  N   UNL     1      53.923   1.316  18.832  0.00  0.00    +0.000 NA
ENDBRANCH   9  12
ENDBRANCH   7   9
ENDBRANCH   4   7
BRANCH   1  18
ATOM     18  C   UNL     1      47.129   3.396  16.792  0.00  0.00    +0.000 C 
BRANCH  18  21
ATOM     19  C   UNL     1      46.906   4.260  14.500  0.00  0.00    +0.000 C 
ATOM     20  O   UNL     1      47.323   3.205  14.028  0.00  0.00    +0.000 OA
ATOM     21  N   UNL     1      46.784   4.433  15.853  0.00  0.00    +0.000 N 
ATOM     22  H   UNL     1      46.475   5.319  16.229  0.00  0.00    +0.000 HD
BRANCH  19  30
ATOM     23  C   UNL     1      44.105   4.983  12.647  0.00  0.00    +0.000 A 
ATOM     24  N   UNL     1      43.140   5.513  11.870  0.00  0.00    +0.000 NA
ATOM     25  C   UNL     1      43.378   6.693  11.293  0.00  0.00    +0.000 A 
ATOM     26  N   UNL     1      44.484   7.428  11.394  0.00  0.00    +0.000 NA
ATOM     27  C   UNL     1      45.415   6.869  12.186  0.00  0.00    +0.000 A 
ATOM     28  S   UNL     1      46.895   7.663  12.431  0.00  0.00    +0.000 S 
ATOM     29  C   UNL     1      47.448   6.423  13.452  0.00  0.00    +0.000 A 
ATOM     30  C   UNL     1      46.534   5.391  13.632  0.00  0.00    +0.000 A 
ATOM     31  C   UNL     1      45.319   5.659  12.864  0.00  0.00    +0.000 A 
BRANCH  23  33
ATOM     32  C   UNL     1      43.575   2.714  12.365  0.00  0.00    +0.000 C 
ATOM     33  O   UNL     1      43.859   3.779  13.267  0.00  0.00    +0.000 OA
ENDBRANCH  23  33
ENDBRANCH  19  30
ENDBRANCH  18  21
ENDBRANCH   1  18
TORSDOF 7
ENDMDL
MODEL 4
REMARK VINA RESULT:    -6.786      2.409      2.966
REMARK INTER + INTRA:         -10.828
REMARK INTER:                  -9.350
REMARK INTRA:                  -1.478
REMARK UNBOUND:                -1.265
REMARK  Name = 
REMARK  10 active torsions:
REMARK  status: ('A' for Active; 'I' for Inactive)
REMARK    1  A    between atoms: C_1  and  O_2
REMARK    2  A    between atoms: O_2  and  C_3
REMARK    3  A    between atoms: C_10  and  C_11
REMARK    4  A    between atoms: N_13  and  C_14
REMARK    5  A    between atoms: C_14  and  C_15
REMARK    6  A    between atoms: C_18  and  N_19
REMARK    7  A    between atoms: N_19  and  C_20
REMARK    8  A    between atoms: C_20  and  C_21
REMARK    9  A    between atoms: C_20  and  C_22
REMARK   10  A    between atoms: C_20  and  C_23
REMARK                            x       y       z     vdW  Elec       q    Type
REMARK                         _______ _______ _______ _____ _____    ______ ____
ROOT
ATOM      1  C   UNL     1      48.161   7.968  13.621  0.00  0.00    +0.000 A 
ATOM      2  C   UNL     1      48.387   7.070  12.579  0.00  0.00    +0.000 A 
ATOM      3  C   UNL     1      47.344   6.684  11.729  0.00  0.00    +0.000 A 
ATOM      4  C   UNL     1      46.046   7.172  11.888  0.00  0.00    +0.000 A 
ATOM      5  C   UNL     1      45.861   8.179  12.844  0.00  0.00    +0.000 A 
ATOM      6  C   UNL     1      46.899   8.566  13.710  0.00  0.00    +0.000 A 
ENDROOT
BRANCH   4   7
ATOM      7  N   UNL     1      44.940   6.712  11.183  0.00  0.00    +0.000 N 
ATOM      8  H   UNL     1      44.917   7.032  10.217  0.00  0.00    +0.000 HD
BRANCH   7   9
ATOM      9  C   UNL     1      44.267   5.400  11.387  0.00  0.00    +0.000 C 
ATOM     10  C   UNL     1      44.670   4.808  12.752  0.00  0.00    +0.000 C 
ATOM     11  C   UNL     1      42.736   5.524  11.241  0.00  0.00    +0.000 C 
BRANCH   9  12
ATOM     12  C   UNL     1      44.703   4.395  10.284  0.00  0.00    +0.000 A 
ATOM     13  C   UNL     1      45.391   4.819   9.145  0.00  0.00    +0.000 A 
ATOM     14  C   UNL     1      45.696   3.896   8.145  0.00  0.00    +0.000 A 
ATOM     15  C   UNL     1      45.298   2.572   8.288  0.00  0.00    +0.000 A 
ATOM     16  C   UNL     1      44.606   2.226   9.433  0.00  0.00    +0.000 A 
ATOM     17  N   UNL     1      44.304   3.099  10.420  0.00  0.00    +0.000 NA
ENDBRANCH   9  12
ENDBRANCH   7   9
ENDBRANCH   4   7
BRANCH   1  18
ATOM     18  C   UNL     1      49.245   8.247  14.626  0.00  0.00    +0.000 C 
BRANCH  18  21
ATOM     19  C   UNL     1      49.385   6.640  16.482  0.00  0.00    +0.000 C 
ATOM     20  O   UNL     1      48.601   7.303  17.157  0.00  0.00    +0.000 OA
ATOM     21  N   UNL     1      49.755   7.040  15.226  0.00  0.00    +0.000 N 
ATOM     22  H   UNL     1      50.429   6.505  14.697  0.00  0.00    +0.000 HD
BRANCH  19  30
ATOM     23  C   UNL     1      52.616   5.636  17.082  0.00  0.00    +0.000 A 
ATOM     24  N   UNL     1      53.758   5.010  17.424  0.00  0.00    +0.000 NA
ATOM     25  C   UNL     1      53.672   3.768  17.906  0.00  0.00    +0.000 A 
ATOM     26  N   UNL     1      52.563   3.054  18.094  0.00  0.00    +0.000 NA
ATOM     27  C   UNL     1      51.447   3.720  17.751  0.00  0.00    +0.000 A 
ATOM     28  S   UNL     1      49.935   2.966  17.919  0.00  0.00    +0.000 S 
ATOM     29  C   UNL     1      49.128   4.342  17.332  0.00  0.00    +0.000 A 
ATOM     30  C   UNL     1      49.975   5.394  17.002  0.00  0.00    +0.000 A 
ATOM     31  C   UNL     1      51.365   5.013  17.247  0.00  0.00    +0.000 A 
BRANCH  23  33
ATOM     32  C   UNL     1      52.727   7.915  17.632  0.00  0.00    +0.000 C 
ATOM     33  O   UNL     1      52.692   6.926  16.608  0.00  0.00    +0.000 OA
ENDBRANCH  23  33
ENDBRANCH  19  30
ENDBRANCH  18  21
ENDBRANCH   1  18
TORSDOF 7
ENDMDL
MODEL 5
REMARK VINA RESULT:    -6.435      4.298      9.200
REMARK INTER + INTRA:         -10.333
REMARK INTER:                  -8.759
REMARK INTRA:                  -1.575
REMARK UNBOUND:                -1.265
REMARK  Name = 
REMARK  10 active torsions:
REMARK  status: ('A' for Active; 'I' for Inactive)
REMARK    1  A    between atoms: C_1  and  O_2
REMARK    2  A    between atoms: O_2  and  C_3
REMARK    3  A    between atoms: C_10  and  C_11
REMARK    4  A    between atoms: N_13  and  C_14
REMARK    5  A    between atoms: C_14  and  C_15
REMARK    6  A    between atoms: C_18  and  N_19
REMARK    7  A    between atoms: N_19  and  C_20
REMARK    8  A    between atoms: C_20  and  C_21
REMARK    9  A    between atoms: C_20  and  C_22
REMARK   10  A    between atoms: C_20  and  C_23
REMARK                            x       y       z     vdW  Elec       q    Type
REMARK                         _______ _______ _______ _____ _____    ______ ____
ROOT
ATOM      1  C   UNL     1      48.794   3.614  17.256  0.00  0.00    +0.000 A 
ATOM      2  C   UNL     1      49.339   4.701  17.939  0.00  0.00    +0.000 A 
ATOM      3  C   UNL     1      50.608   4.616  18.522  0.00  0.00    +0.000 A 
ATOM      4  C   UNL     1      51.373   3.450  18.452  0.00  0.00    +0.000 A 
ATOM      5  C   UNL     1      50.880   2.416  17.646  0.00  0.00    +0.000 A 
ATOM      6  C   UNL     1      49.602   2.487  17.064  0.00  0.00    +0.000 A 
ENDROOT
BRANCH   4   7
ATOM      7  N   UNL     1      52.564   3.248  19.139  0.00  0.00    +0.000 N 
ATOM      8  H   UNL     1      52.484   2.567  19.892  0.00  0.00    +0.000 HD
BRANCH   7   9
ATOM      9  C   UNL     1      53.929   3.317  18.548  0.00  0.00    +0.000 C 
ATOM     10  C   UNL     1      53.947   4.324  17.382  0.00  0.00    +0.000 C 
ATOM     11  C   UNL     1      54.990   3.651  19.617  0.00  0.00    +0.000 C 
BRANCH   9  12
ATOM     12  C   UNL     1      54.341   1.928  17.983  0.00  0.00    +0.000 A 
ATOM     13  C   UNL     1      55.048   1.812  16.784  0.00  0.00    +0.000 A 
ATOM     14  C   UNL     1      55.331   0.544  16.276  0.00  0.00    +0.000 A 
ATOM     15  C   UNL     1      54.891  -0.583  16.959  0.00  0.00    +0.000 A 
ATOM     16  C   UNL     1      54.183  -0.393  18.129  0.00  0.00    +0.000 A 
ATOM     17  N   UNL     1      53.901   0.823  18.648  0.00  0.00    +0.000 NA
ENDBRANCH   9  12
ENDBRANCH   7   9
ENDBRANCH   4   7
BRANCH   1  18
ATOM     18  C   UNL     1      47.369   3.660  16.778  0.00  0.00    +0.000 C 
BRANCH  18  21
ATOM     19  C   UNL     1      47.108   4.357  14.434  0.00  0.00    +0.000 C 
ATOM     20  O   UNL     1      47.233   3.199  14.042  0.00  0.00    +0.000 OA
ATOM     21  N   UNL     1      47.166   4.666  15.766  0.00  0.00    +0.000 N 
ATOM     22  H   UNL     1      47.099   5.628  16.071  0.00  0.00    +0.000 HD
BRANCH  19  30
ATOM     23  C   UNL     1      48.853   7.245  13.783  0.00  0.00    +0.000 A 
ATOM     24  N   UNL     1      49.347   8.408  13.318  0.00  0.00    +0.000 NA
ATOM     25  C   UNL     1      48.683   9.024  12.337  0.00  0.00    +0.000 A 
ATOM     26  N   UNL     1      47.560   8.616  11.748  0.00  0.00    +0.000 NA
ATOM     27  C   UNL     1      47.108   7.447  12.233  0.00  0.00    +0.000 A 
ATOM     28  S   UNL     1      45.684   6.771  11.604  0.00  0.00    +0.000 S 
ATOM     29  C   UNL     1      45.797   5.435  12.647  0.00  0.00    +0.000 A 
ATOM     30  C   UNL     1      46.906   5.467  13.485  0.00  0.00    +0.000 A 
ATOM     31  C   UNL     1      47.685   6.679  13.239  0.00  0.00    +0.000 A 
BRANCH  23  33
ATOM     32  C   UNL     1      50.386   7.439  15.549  0.00  0.00    +0.000 C 
ATOM     33  O   UNL     1      49.544   6.589  14.777  0.00  0.00    +0.000 OA
ENDBRANCH  23  33
ENDBRANCH  19  30
ENDBRANCH  18  21
ENDBRANCH   1  18
TORSDOF 7
ENDMDL
MODEL 6
REMARK VINA RESULT:    -6.358      3.111      7.726
REMARK INTER + INTRA:         -10.224
REMARK INTER:                  -9.191
REMARK INTRA:                  -1.033
REMARK UNBOUND:                -1.265
REMARK  Name = 
REMARK  10 active torsions:
REMARK  status: ('A' for Active; 'I' for Inactive)
REMARK    1  A    between atoms: C_1  and  O_2
REMARK    2  A    between atoms: O_2  and  C_3
REMARK    3  A    between atoms: C_10  and  C_11
REMARK    4  A    between atoms: N_13  and  C_14
REMARK    5  A    between atoms: C_14  and  C_15
REMARK    6  A    between atoms: C_18  and  N_19
REMARK    7  A    between atoms: N_19  and  C_20
REMARK    8  A    between atoms: C_20  and  C_21
REMARK    9  A    between atoms: C_20  and  C_22
REMARK   10  A    between atoms: C_20  and  C_23
REMARK                            x       y       z     vdW  Elec       q    Type
REMARK                         _______ _______ _______ _____ _____    ______ ____
ROOT
ATOM      1  C   UNL     1      48.601   7.989  13.179  0.00  0.00    +0.000 A 
ATOM      2  C   UNL     1      48.300   9.090  13.981  0.00  0.00    +0.000 A 
ATOM      3  C   UNL     1      48.272   8.971  15.375  0.00  0.00    +0.000 A 
ATOM      4  C   UNL     1      48.536   7.759  16.017  0.00  0.00    +0.000 A 
ATOM      5  C   UNL     1      48.975   6.700  15.212  0.00  0.00    +0.000 A 
ATOM      6  C   UNL     1      48.997   6.805  13.811  0.00  0.00    +0.000 A 
ENDROOT
BRANCH   4   7
ATOM      7  N   UNL     1      48.371   7.537  17.379  0.00  0.00    +0.000 N 
ATOM      8  H   UNL     1      47.397   7.557  17.675  0.00  0.00    +0.000 HD
BRANCH   7   9
ATOM      9  C   UNL     1      49.227   6.659  18.224  0.00  0.00    +0.000 C 
ATOM     10  C   UNL     1      50.713   6.900  17.895  0.00  0.00    +0.000 C 
ATOM     11  C   UNL     1      48.928   6.857  19.724  0.00  0.00    +0.000 C 
BRANCH   9  12
ATOM     12  C   UNL     1      48.912   5.164  17.937  0.00  0.00    +0.000 A 
ATOM     13  C   UNL     1      49.931   4.244  17.679  0.00  0.00    +0.000 A 
ATOM     14  C   UNL     1      49.599   2.929  17.352  0.00  0.00    +0.000 A 
ATOM     15  C   UNL     1      48.262   2.558  17.271  0.00  0.00    +0.000 A 
ATOM     16  C   UNL     1      47.308   3.524  17.523  0.00  0.00    +0.000 A 
ATOM     17  N   UNL     1      47.601   4.803  17.849  0.00  0.00    +0.000 NA
ENDBRANCH   9  12
ENDBRANCH   7   9
ENDBRANCH   4   7
BRANCH   1  18
ATOM     18  C   UNL     1      48.466   8.086  11.684  0.00  0.00    +0.000 C 
BRANCH  18  21
ATOM     19  C   UNL     1      46.374   6.885  11.206  0.00  0.00    +0.000 C 
ATOM     20  O   UNL     1      45.710   7.756  11.762  0.00  0.00    +0.000 OA
ATOM     21  N   UNL     1      47.739   6.973  11.129  0.00  0.00    +0.000 N 
ATOM     22  H   UNL     1      48.275   6.230  10.702  0.00  0.00    +0.000 HD
BRANCH  19  30
ATOM     23  C   UNL     1      44.547   4.290  12.523  0.00  0.00    +0.000 A 
ATOM     24  N   UNL     1      43.799   3.197  12.767  0.00  0.00    +0.000 NA
ATOM     25  C   UNL     1      43.474   2.417  11.733  0.00  0.00    +0.000 A 
ATOM     26  N   UNL     1      43.809   2.594  10.456  0.00  0.00    +0.000 NA
ATOM     27  C   UNL     1      44.544   3.701  10.256  0.00  0.00    +0.000 A 
ATOM     28  S   UNL     1      45.068   4.088   8.688  0.00  0.00    +0.000 S 
ATOM     29  C   UNL     1      45.852   5.490   9.243  0.00  0.00    +0.000 A 
ATOM     30  C   UNL     1      45.734   5.697  10.613  0.00  0.00    +0.000 A 
ATOM     31  C   UNL     1      44.956   4.618  11.217  0.00  0.00    +0.000 A 
BRANCH  23  33
ATOM     32  C   UNL     1      46.110   4.803  14.197  0.00  0.00    +0.000 C 
ATOM     33  O   UNL     1      44.866   5.115  13.578  0.00  0.00    +0.000 OA
ENDBRANCH  23  33
ENDBRANCH  19  30
ENDBRANCH  18  21
ENDBRANCH   1  18
TORSDOF 7
ENDMDL
MODEL 7
REMARK VINA RESULT:    -6.042      3.619      4.857
REMARK INTER + INTRA:          -9.778
REMARK INTER:                  -8.359
REMARK INTRA:                  -1.420
REMARK UNBOUND:                -1.265
REMARK  Name = 
REMARK  10 active torsions:
REMARK  status: ('A' for Active; 'I' for Inactive)
REMARK    1  A    between atoms: C_1  and  O_2
REMARK    2  A    between atoms: O_2  and  C_3
REMARK    3  A    between atoms: C_10  and  C_11
REMARK    4  A    between atoms: N_13  and  C_14
REMARK    5  A    between atoms: C_14  and  C_15
REMARK    6  A    between atoms: C_18  and  N_19
REMARK    7  A    between atoms: N_19  and  C_20
REMARK    8  A    between atoms: C_20  and  C_21
REMARK    9  A    between atoms: C_20  and  C_22
REMARK   10  A    between atoms: C_20  and  C_23
REMARK                            x       y       z     vdW  Elec       q    Type
REMARK                         _______ _______ _______ _____ _____    ______ ____
ROOT
ATOM      1  C   UNL     1      47.923   8.005  13.853  0.00  0.00    +0.000 A 
ATOM      2  C   UNL     1      48.339   7.015  12.963  0.00  0.00    +0.000 A 
ATOM      3  C   UNL     1      47.483   6.556  11.955  0.00  0.00    +0.000 A 
ATOM      4  C   UNL     1      46.189   7.058  11.802  0.00  0.00    +0.000 A 
ATOM      5  C   UNL     1      45.834   8.148  12.608  0.00  0.00    +0.000 A 
ATOM      6  C   UNL     1      46.681   8.610  13.629  0.00  0.00    +0.000 A 
ENDROOT
BRANCH   4   7
ATOM      7  N   UNL     1      45.240   6.538  10.930  0.00  0.00    +0.000 N 
ATOM      8  H   UNL     1      45.384   6.822   9.963  0.00  0.00    +0.000 HD
BRANCH   7   9
ATOM      9  C   UNL     1      44.574   5.213  11.064  0.00  0.00    +0.000 C 
ATOM     10  C   UNL     1      45.003   4.539  12.382  0.00  0.00    +0.000 C 
ATOM     11  C   UNL     1      43.041   5.340  10.953  0.00  0.00    +0.000 C 
BRANCH   9  12
ATOM     12  C   UNL     1      44.993   4.280   9.893  0.00  0.00    +0.000 A 
ATOM     13  C   UNL     1      44.826   2.895   9.972  0.00  0.00    +0.000 A 
ATOM     14  C   UNL     1      45.285   2.089   8.931  0.00  0.00    +0.000 A 
ATOM     15  C   UNL     1      45.917   2.672   7.839  0.00  0.00    +0.000 A 
ATOM     16  C   UNL     1      46.063   4.046   7.835  0.00  0.00    +0.000 A 
ATOM     17  N   UNL     1      45.621   4.851   8.827  0.00  0.00    +0.000 NA
ENDBRANCH   9  12
ENDBRANCH   7   9
ENDBRANCH   4   7
BRANCH   1  18
ATOM     18  C   UNL     1      48.786   8.372  15.029  0.00  0.00    +0.000 C 
BRANCH  18  21
ATOM     19  C   UNL     1      51.175   7.788  15.052  0.00  0.00    +0.000 C 
ATOM     20  O   UNL     1      50.962   6.813  15.770  0.00  0.00    +0.000 OA
ATOM     21  N   UNL     1      50.156   8.607  14.647  0.00  0.00    +0.000 N 
ATOM     22  H   UNL     1      50.351   9.427  14.088  0.00  0.00    +0.000 HD
BRANCH  19  30
ATOM     23  C   UNL     1      52.533   8.570  11.995  0.00  0.00    +0.000 A 
ATOM     24  N   UNL     1      53.303   8.922  10.947  0.00  0.00    +0.000 NA
ATOM     25  C   UNL     1      54.600   9.145  11.169  0.00  0.00    +0.000 A 
ATOM     26  N   UNL     1      55.243   9.059  12.333  0.00  0.00    +0.000 NA
ATOM     27  C   UNL     1      54.437   8.717  13.352  0.00  0.00    +0.000 A 
ATOM     28  S   UNL     1      55.081   8.555  14.915  0.00  0.00    +0.000 S 
ATOM     29  C   UNL     1      53.561   8.148  15.554  0.00  0.00    +0.000 A 
ATOM     30  C   UNL     1      52.539   8.128  14.611  0.00  0.00    +0.000 A 
ATOM     31  C   UNL     1      53.071   8.462  13.291  0.00  0.00    +0.000 A 
BRANCH  23  33
ATOM     32  C   UNL     1      50.515   9.486  11.222  0.00  0.00    +0.000 C 
ATOM     33  O   UNL     1      51.189   8.363  11.781  0.00  0.00    +0.000 OA
ENDBRANCH  23  33
ENDBRANCH  19  30
ENDBRANCH  18  21
ENDBRANCH   1  18
TORSDOF 7
ENDMDL
MODEL 8
REMARK VINA RESULT:    -5.921      3.652      9.339
REMARK INTER + INTRA:          -9.608
REMARK INTER:                  -8.405
REMARK INTRA:                  -1.203
REMARK UNBOUND:                -1.265
REMARK  Name = 
REMARK  10 active torsions:
REMARK  status: ('A' for Active; 'I' for Inactive)
REMARK    1  A    between atoms: C_1  and  O_2
REMARK    2  A    between atoms: O_2  and  C_3
REMARK    3  A    between atoms: C_10  and  C_11
REMARK    4  A    between atoms: N_13  and  C_14
REMARK    5  A    between atoms: C_14  and  C_15
REMARK    6  A    between atoms: C_18  and  N_19
REMARK    7  A    between atoms: N_19  and  C_20
REMARK    8  A    between atoms: C_20  and  C_21
REMARK    9  A    between atoms: C_20  and  C_22
REMARK   10  A    between atoms: C_20  and  C_23
REMARK                            x       y       z     vdW  Elec       q    Type
REMARK                         _______ _______ _______ _____ _____    ______ ____
ROOT
ATOM      1  C   UNL     1      48.688   4.198  17.366  0.00  0.00    +0.000 A 
ATOM      2  C   UNL     1      49.545   5.129  16.779  0.00  0.00    +0.000 A 
ATOM      3  C   UNL     1      50.531   5.768  17.539  0.00  0.00    +0.000 A 
ATOM      4  C   UNL     1      50.695   5.510  18.901  0.00  0.00    +0.000 A 
ATOM      5  C   UNL     1      49.926   4.473  19.445  0.00  0.00    +0.000 A 
ATOM      6  C   UNL     1      48.926   3.831  18.695  0.00  0.00    +0.000 A 
ENDROOT
BRANCH   4   7
ATOM      7  N   UNL     1      51.544   6.221  19.740  0.00  0.00    +0.000 N 
ATOM      8  H   UNL     1      51.165   6.356  20.676  0.00  0.00    +0.000 HD
BRANCH   7   9
ATOM      9  C   UNL     1      53.032   6.179  19.707  0.00  0.00    +0.000 C 
ATOM     10  C   UNL     1      53.570   7.298  18.794  0.00  0.00    +0.000 C 
ATOM     11  C   UNL     1      53.630   6.255  21.127  0.00  0.00    +0.000 C 
BRANCH   9  12
ATOM     12  C   UNL     1      53.518   4.819  19.130  0.00  0.00    +0.000 A 
ATOM     13  C   UNL     1      53.531   3.662  19.912  0.00  0.00    +0.000 A 
ATOM     14  C   UNL     1      54.046   2.480  19.379  0.00  0.00    +0.000 A 
ATOM     15  C   UNL     1      54.553   2.475  18.085  0.00  0.00    +0.000 A 
ATOM     16  C   UNL     1      54.524   3.660  17.376  0.00  0.00    +0.000 A 
ATOM     17  N   UNL     1      54.024   4.816  17.865  0.00  0.00    +0.000 NA
ENDBRANCH   9  12
ENDBRANCH   7   9
ENDBRANCH   4   7
BRANCH   1  18
ATOM     18  C   UNL     1      47.529   3.641  16.583  0.00  0.00    +0.000 C 
BRANCH  18  21
ATOM     19  C   UNL     1      46.821   4.338  14.333  0.00  0.00    +0.000 C 
ATOM     20  O   UNL     1      47.154   3.254  13.858  0.00  0.00    +0.000 OA
ATOM     21  N   UNL     1      46.977   4.607  15.667  0.00  0.00    +0.000 N 
ATOM     22  H   UNL     1      46.734   5.516  16.036  0.00  0.00    +0.000 HD
BRANCH  19  30
ATOM     23  C   UNL     1      43.892   4.628  12.561  0.00  0.00    +0.000 A 
ATOM     24  N   UNL     1      42.836   5.006  11.816  0.00  0.00    +0.000 NA
ATOM     25  C   UNL     1      42.873   6.211  11.242  0.00  0.00    +0.000 A 
ATOM     26  N   UNL     1      43.854   7.108  11.320  0.00  0.00    +0.000 NA
ATOM     27  C   UNL     1      44.882   6.696  12.082  0.00  0.00    +0.000 A 
ATOM     28  S   UNL     1      46.228   7.708  12.295  0.00  0.00    +0.000 S 
ATOM     29  C   UNL     1      46.994   6.564  13.290  0.00  0.00    +0.000 A 
ATOM     30  C   UNL     1      46.255   5.402  13.485  0.00  0.00    +0.000 A 
ATOM     31  C   UNL     1      44.993   5.483  12.753  0.00  0.00    +0.000 A 
BRANCH  23  33
ATOM     32  C   UNL     1      43.632   2.312  12.282  0.00  0.00    +0.000 C 
ATOM     33  O   UNL     1      43.852   3.398  13.178  0.00  0.00    +0.000 OA
ENDBRANCH  23  33
ENDBRANCH  19  30
ENDBRANCH  18  21
ENDBRANCH   1  18
TORSDOF 7
ENDMDL
MODEL 9
REMARK VINA RESULT:    -5.393      3.226      8.799
REMARK INTER + INTRA:          -8.865
REMARK INTER:                  -7.707
REMARK INTRA:                  -1.158
REMARK UNBOUND:                -1.265
REMARK  Name = 
REMARK  10 active torsions:
REMARK  status: ('A' for Active; 'I' for Inactive)
REMARK    1  A    between atoms: C_1  and  O_2
REMARK    2  A    between atoms: O_2  and  C_3
REMARK    3  A    between atoms: C_10  and  C_11
REMARK    4  A    between atoms: N_13  and  C_14
REMARK    5  A    between atoms: C_14  and  C_15
REMARK    6  A    between atoms: C_18  and  N_19
REMARK    7  A    between atoms: N_19  and  C_20
REMARK    8  A    between atoms: C_20  and  C_21
REMARK    9  A    between atoms: C_20  and  C_22
REMARK   10  A    between atoms: C_20  and  C_23
REMARK                            x       y       z     vdW  Elec       q    Type
REMARK                         _______ _______ _______ _____ _____    ______ ____
ROOT
ATOM      1  C   UNL     1      48.873   7.806  13.054  0.00  0.00    +0.000 A 
ATOM      2  C   UNL     1      49.979   8.655  13.007  0.00  0.00    +0.000 A 
ATOM      3  C   UNL     1      50.845   8.760  14.101  0.00  0.00    +0.000 A 
ATOM      4  C   UNL     1      50.641   8.033  15.275  0.00  0.00    +0.000 A 
ATOM      5  C   UNL     1      49.614   7.080  15.258  0.00  0.00    +0.000 A 
ATOM      6  C   UNL     1      48.731   6.973  14.170  0.00  0.00    +0.000 A 
ENDROOT
BRANCH   4   7
ATOM      7  N   UNL     1      51.368   8.208  16.446  0.00  0.00    +0.000 N 
ATOM      8  H   UNL     1      52.376   8.181  16.303  0.00  0.00    +0.000 HD
BRANCH   7   9
ATOM      9  C   UNL     1      50.959   9.054  17.601  0.00  0.00    +0.000 C 
ATOM     10  C   UNL     1      52.094   9.108  18.642  0.00  0.00    +0.000 C 
ATOM     11  C   UNL     1      50.528  10.463  17.143  0.00  0.00    +0.000 C 
BRANCH   9  12
ATOM     12  C   UNL     1      49.706   8.449  18.294  0.00  0.00    +0.000 A 
ATOM     13  C   UNL     1      48.461   9.079  18.225  0.00  0.00    +0.000 A 
ATOM     14  C   UNL     1      47.381   8.541  18.924  0.00  0.00    +0.000 A 
ATOM     15  C   UNL     1      47.561   7.396  19.691  0.00  0.00    +0.000 A 
ATOM     16  C   UNL     1      48.823   6.836  19.727  0.00  0.00    +0.000 A 
ATOM     17  N   UNL     1      49.885   7.332  19.054  0.00  0.00    +0.000 NA
ENDBRANCH   9  12
ENDBRANCH   7   9
ENDBRANCH   4   7
BRANCH   1  18
ATOM     18  C   UNL     1      47.860   7.824  11.942  0.00  0.00    +0.000 C 
BRANCH  18  21
ATOM     19  C   UNL     1      45.758   6.628  11.498  0.00  0.00    +0.000 C 
ATOM     20  O   UNL     1      45.207   7.666  11.136  0.00  0.00    +0.000 OA
ATOM     21  N   UNL     1      47.062   6.624  11.912  0.00  0.00    +0.000 N 
ATOM     22  H   UNL     1      47.491   5.770  12.242  0.00  0.00    +0.000 HD
BRANCH  19  30
ATOM     23  C   UNL     1      45.340   4.125   9.181  0.00  0.00    +0.000 A 
ATOM     24  N   UNL     1      45.041   3.011   8.486  0.00  0.00    +0.000 NA
ATOM     25  C   UNL     1      44.283   2.086   9.079  0.00  0.00    +0.000 A 
ATOM     26  N   UNL     1      43.773   2.133  10.309  0.00  0.00    +0.000 NA
ATOM     27  C   UNL     1      44.104   3.255  10.971  0.00  0.00    +0.000 A 
ATOM     28  S   UNL     1      43.540   3.493  12.554  0.00  0.00    +0.000 S 
ATOM     29  C   UNL     1      44.329   4.994  12.663  0.00  0.00    +0.000 A 
ATOM     30  C   UNL     1      45.033   5.345  11.517  0.00  0.00    +0.000 A 
ATOM     31  C   UNL     1      44.888   4.303  10.502  0.00  0.00    +0.000 A 
BRANCH  23  33
ATOM     32  C   UNL     1      46.906   4.577   7.493  0.00  0.00    +0.000 C 
ATOM     33  O   UNL     1      46.142   5.073   8.587  0.00  0.00    +0.000 OA
ENDBRANCH  23  33
ENDBRANCH  19  30
ENDBRANCH  18  21
ENDBRANCH   1  18
TORSDOF 7
ENDMDL
