MODEL 1
REMARK VINA RESULT:    -8.673      0.000      0.000
REMARK INTER + INTRA:         -12.113
REMARK INTER:                 -11.208
REMARK INTRA:                  -0.905
REMARK UNBOUND:                -0.905
REMARK  Name = 
REMARK  5 active torsions:
REMARK  status: ('A' for Active; 'I' for Inactive)
REMARK    1  A    between atoms: C_2  and  C_4
REMARK    2  A    between atoms: C_7  and  N_8
REMARK    3  A    between atoms: N_8  and  C_9
REMARK    4  A    between atoms: C_9  and  C_10
REMARK    5  A    between atoms: C_14  and  C_15
REMARK                            x       y       z     vdW  Elec       q    Type
REMARK                         _______ _______ _______ _____ _____    ______ ____
ROOT
ATOM      1  C   UNL     1      43.507   4.879  11.321  0.00  0.00    +0.000 C 
ENDROOT
BRANCH   1   2
ATOM      2  C   UNL     1      44.733   5.078  12.166  0.00  0.00    +0.000 A 
ATOM      3  C   UNL     1      45.005   4.254  13.246  0.00  0.00    +0.000 A 
ATOM      4  N   UNL     1      46.105   4.373  14.017  0.00  0.00    +0.000 NA
ATOM      5  C   UNL     1      46.977   5.360  13.690  0.00  0.00    +0.000 A 
ATOM      6  C   UNL     1      46.839   6.243  12.614  0.00  0.00    +0.000 A 
ATOM      7  C   UNL     1      45.679   6.066  11.847  0.00  0.00    +0.000 A 
BRANCH   6   8
ATOM      8  C   UNL     1      47.840   7.289  12.308  0.00  0.00    +0.000 A 
ATOM      9  C   UNL     1      49.217   7.016  12.315  0.00  0.00    +0.000 A 
ATOM     10  C   UNL     1      50.121   8.028  12.015  0.00  0.00    +0.000 A 
ATOM     11  N   UNL     1      49.762   9.286  11.702  0.00  0.00    +0.000 NA
ATOM     12  C   UNL     1      48.442   9.540  11.698  0.00  0.00    +0.000 A 
ATOM     13  F   UNL     1      48.052  10.786  11.387  0.00  0.00    +0.000 F 
ATOM     14  C   UNL     1      47.464   8.602  11.992  0.00  0.00    +0.000 A 
ENDBRANCH   6   8
ENDBRANCH   1   2
BRANCH   1  15
ATOM     15  N   UNL     1      43.844   5.049   9.917  0.00  0.00    +0.000 N 
ATOM     16  H   UNL     1      43.143   5.545   9.372  0.00  0.00    +0.000 HD
BRANCH  15  20
ATOM     17  C   UNL     1      46.235   2.199   7.938  0.00  0.00    +0.000 A 
ATOM     18  C   UNL     1      45.250   1.773   8.830  0.00  0.00    +0.000 A 
ATOM     19  C   UNL     1      44.419   2.707   9.452  0.00  0.00    +0.000 A 
ATOM     20  C   UNL     1      44.535   4.079   9.200  0.00  0.00    +0.000 A 
ATOM     21  C   UNL     1      45.526   4.489   8.296  0.00  0.00    +0.000 A 
ATOM     22  C   UNL     1      46.370   3.561   7.672  0.00  0.00    +0.000 A 
BRANCH  17  24
ATOM     23  N   UNL     1      48.284   1.757   6.702  0.00  0.00    +0.000 N 
ATOM     24  C   UNL     1      47.180   1.236   7.317  0.00  0.00    +0.000 C 
ATOM     25  O   UNL     1      46.991   0.029   7.367  0.00  0.00    +0.000 OA
ATOM     26  H   UNL     1      48.956   1.091   6.341  0.00  0.00    +0.000 HD
ATOM     27  H   UNL     1      48.590   2.708   6.839  0.00  0.00    +0.000 HD
ENDBRANCH  17  24
ENDBRANCH  15  20
ENDBRANCH   1  15
TORSDOF 5
ENDMDL
MODEL 2
REMARK VINA RESULT:    -8.611      2.802      3.876
REMARK INTER + INTRA:         -12.033
REMARK INTER:                 -11.400
REMARK INTRA:                  -0.633
REMARK UNBOUND:                -0.905
REMARK  Name = 
REMARK  5 active torsions:
REMARK  status: ('A' for Active; 'I' for Inactive)
REMARK    1  A    between atoms: C_2  and  C_4
REMARK    2  A    between atoms: C_7  and  N_8
REMARK    3  A    between atoms: N_8  and  C_9
REMARK    4  A    between atoms: C_9  and  C_10
REMARK    5  A    between atoms: C_14  and  C_15
REMARK                            x       y       z     vdW  Elec       q    Type
REMARK                         _______ _______ _______ _____ _____    ______ ____
ROOT
ATOM      1  C   UNL     1      43.993   4.799  11.485  0.00  0.00    +0.000 C 
ENDROOT
BRANCH   1   2
ATOM      2  C   UNL     1      45.274   5.364  12.028  0.00  0.00    +0.000 A 
ATOM      3  C   UNL     1      45.984   6.333  11.337  0.00  0.00    +0.000 A 
ATOM      4  N   UNL     1      47.122   6.892  11.795  0.00  0.00    +0.000 NA
ATOM      5  C   UNL     1      47.570   6.466  13.003  0.00  0.00    +0.000 A 
ATOM      6  C   UNL     1      46.940   5.517  13.815  0.00  0.00    +0.000 A 
ATOM      7  C   UNL     1      45.759   4.977  13.288  0.00  0.00    +0.000 A 
BRANCH   6   8
ATOM      8  C   UNL     1      47.480   5.110  15.132  0.00  0.00    +0.000 A 
ATOM      9  C   UNL     1      48.422   5.895  15.817  0.00  0.00    +0.000 A 
ATOM     10  C   UNL     1      48.897   5.478  17.054  0.00  0.00    +0.000 A 
ATOM     11  N   UNL     1      48.503   4.345  17.665  0.00  0.00    +0.000 NA
ATOM     12  C   UNL     1      47.602   3.599  17.003  0.00  0.00    +0.000 A 
ATOM     13  F   UNL     1      47.187   2.465  17.588  0.00  0.00    +0.000 F 
ATOM     14  C   UNL     1      47.076   3.926  15.762  0.00  0.00    +0.000 A 
ENDBRANCH   6   8
ENDBRANCH   1   2
BRANCH   1  15
ATOM     15  N   UNL     1      43.987   4.896  10.034  0.00  0.00    +0.000 N 
ATOM     16  H   UNL     1      43.112   5.228   9.637  0.00  0.00    +0.000 HD
BRANCH  15  20
ATOM     17  C   UNL     1      46.338   2.223   7.779  0.00  0.00    +0.000 A 
ATOM     18  C   UNL     1      45.419   1.723   8.701  0.00  0.00    +0.000 A 
ATOM     19  C   UNL     1      44.599   2.599   9.417  0.00  0.00    +0.000 A 
ATOM     20  C   UNL     1      44.662   3.984   9.230  0.00  0.00    +0.000 A 
ATOM     21  C   UNL     1      45.587   4.470   8.294  0.00  0.00    +0.000 A 
ATOM     22  C   UNL     1      46.419   3.601   7.577  0.00  0.00    +0.000 A 
BRANCH  17  24
ATOM     23  N   UNL     1      48.367   1.898   6.475  0.00  0.00    +0.000 N 
ATOM     24  C   UNL     1      47.272   1.322   7.057  0.00  0.00    +0.000 C 
ATOM     25  O   UNL     1      47.082   0.115   6.998  0.00  0.00    +0.000 OA
ATOM     26  H   UNL     1      49.032   1.269   6.044  0.00  0.00    +0.000 HD
ATOM     27  H   UNL     1      48.676   2.833   6.695  0.00  0.00    +0.000 HD
ENDBRANCH  17  24
ENDBRANCH  15  20
ENDBRANCH   1  15
TORSDOF 5
ENDMDL
MODEL 3
REMARK VINA RESULT:    -8.322      1.328      1.880
REMARK INTER + INTRA:         -11.659
REMARK INTER:                 -10.807
REMARK INTRA:                  -0.852
REMARK UNBOUND:                -0.905
REMARK  Name = 
REMARK  5 active torsions:
REMARK  status: ('A' for Active; 'I' for Inactive)
REMARK    1  A    between atoms: C_2  and  C_4
REMARK    2  A    between atoms: C_7  and  N_8
REMARK    3  A    between atoms: N_8  and  C_9
REMARK    4  A    between atoms: C_9  and  C_10
REMARK    5  A    between atoms: C_14  and  C_15
REMARK                            x       y       z     vdW  Elec       q    Type
REMARK                         _______ _______ _______ _____ _____    ______ ____
ROOT
ATOM      1  C   UNL     1      43.576   4.965  10.769  0.00  0.00    +0.000 C 
ENDROOT
BRANCH   1   2
ATOM      2  C   UNL     1      44.638   5.084  11.825  0.00  0.00    +0.000 A 
ATOM      3  C   UNL     1      44.705   4.193  12.882  0.00  0.00    +0.000 A 
ATOM      4  N   UNL     1      45.655   4.239  13.838  0.00  0.00    +0.000 NA
ATOM      5  C   UNL     1      46.585   5.221  13.728  0.00  0.00    +0.000 A 
ATOM      6  C   UNL     1      46.650   6.168  12.701  0.00  0.00    +0.000 A 
ATOM      7  C   UNL     1      45.639   6.065  11.735  0.00  0.00    +0.000 A 
BRANCH   6   8
ATOM      8  C   UNL     1      47.705   7.205  12.638  0.00  0.00    +0.000 A 
ATOM      9  C   UNL     1      47.479   8.450  12.030  0.00  0.00    +0.000 A 
ATOM     10  C   UNL     1      48.496   9.396  11.999  0.00  0.00    +0.000 A 
ATOM     11  N   UNL     1      49.717   9.202  12.533  0.00  0.00    +0.000 NA
ATOM     12  C   UNL     1      49.925   8.007  13.113  0.00  0.00    +0.000 A 
ATOM     13  F   UNL     1      51.131   7.786  13.657  0.00  0.00    +0.000 F 
ATOM     14  C   UNL     1      48.978   6.998  13.186  0.00  0.00    +0.000 A 
ENDBRANCH   6   8
ENDBRANCH   1   2
BRANCH   1  15
ATOM     15  N   UNL     1      43.703   3.688  10.084  0.00  0.00    +0.000 N 
ATOM     16  H   UNL     1      43.369   2.889  10.617  0.00  0.00    +0.000 HD
BRANCH  15  20
ATOM     17  C   UNL     1      46.718   2.649   7.332  0.00  0.00    +0.000 A 
ATOM     18  C   UNL     1      46.314   3.979   7.441  0.00  0.00    +0.000 A 
ATOM     19  C   UNL     1      45.352   4.342   8.386  0.00  0.00    +0.000 A 
ATOM     20  C   UNL     1      44.776   3.403   9.248  0.00  0.00    +0.000 A 
ATOM     21  C   UNL     1      45.198   2.070   9.128  0.00  0.00    +0.000 A 
ATOM     22  C   UNL     1      46.157   1.694   8.179  0.00  0.00    +0.000 A 
BRANCH  17  24
ATOM     23  N   UNL     1      47.838   3.043   5.207  0.00  0.00    +0.000 N 
ATOM     24  C   UNL     1      47.686   2.221   6.289  0.00  0.00    +0.000 C 
ATOM     25  O   UNL     1      48.332   1.189   6.398  0.00  0.00    +0.000 OA
ATOM     26  H   UNL     1      48.548   2.778   4.535  0.00  0.00    +0.000 HD
ATOM     27  H   UNL     1      47.506   3.995   5.191  0.00  0.00    +0.000 HD
ENDBRANCH  17  24
ENDBRANCH  15  20
ENDBRANCH   1  15
TORSDOF 5
ENDMDL
MODEL 4
REMARK VINA RESULT:    -8.153      3.307      6.844
REMARK INTER + INTRA:         -11.441
REMARK INTER:                 -10.674
REMARK INTRA:                  -0.766
REMARK UNBOUND:                -0.905
REMARK  Name = 
REMARK  5 active torsions:
REMARK  status: ('A' for Active; 'I' for Inactive)
REMARK    1  A    between atoms: C_2  and  C_4
REMARK    2  A    between atoms: C_7  and  N_8
REMARK    3  A    between atoms: N_8  and  C_9
REMARK    4  A    between atoms: C_9  and  C_10
REMARK    5  A    between atoms: C_14  and  C_15
REMARK                            x       y       z     vdW  Elec       q    Type
REMARK                         _______ _______ _______ _____ _____    ______ ____
ROOT
ATOM      1  C   UNL     1      43.664   6.287  11.058  0.00  0.00    +0.000 C 
ENDROOT
BRANCH   1   2
ATOM      2  C   UNL     1      43.846   4.829  10.749  0.00  0.00    +0.000 A 
ATOM      3  C   UNL     1      43.170   3.851  11.459  0.00  0.00    +0.000 A 
ATOM      4  N   UNL     1      43.277   2.532  11.201  0.00  0.00    +0.000 NA
ATOM      5  C   UNL     1      44.096   2.173  10.180  0.00  0.00    +0.000 A 
ATOM      6  C   UNL     1      44.816   3.055   9.367  0.00  0.00    +0.000 A 
ATOM      7  C   UNL     1      44.659   4.412   9.682  0.00  0.00    +0.000 A 
BRANCH   6   8
ATOM      8  C   UNL     1      45.682   2.591   8.260  0.00  0.00    +0.000 A 
ATOM      9  C   UNL     1      46.284   1.323   8.276  0.00  0.00    +0.000 A 
ATOM     10  C   UNL     1      47.084   0.927   7.212  0.00  0.00    +0.000 A 
ATOM     11  N   UNL     1      47.325   1.691   6.130  0.00  0.00    +0.000 NA
ATOM     12  C   UNL     1      46.746   2.904   6.122  0.00  0.00    +0.000 A 
ATOM     13  F   UNL     1      46.965   3.688   5.056  0.00  0.00    +0.000 F 
ATOM     14  C   UNL     1      45.939   3.392   7.139  0.00  0.00    +0.000 A 
ENDBRANCH   6   8
ENDBRANCH   1   2
BRANCH   1  15
ATOM     15  N   UNL     1      44.003   6.541  12.450  0.00  0.00    +0.000 N 
ATOM     16  H   UNL     1      43.296   7.057  12.968  0.00  0.00    +0.000 HD
BRANCH  15  20
ATOM     17  C   UNL     1      48.064   7.178  13.372  0.00  0.00    +0.000 A 
ATOM     18  C   UNL     1      47.252   8.265  13.051  0.00  0.00    +0.000 A 
ATOM     19  C   UNL     1      45.893   8.071  12.794  0.00  0.00    +0.000 A 
ATOM     20  C   UNL     1      45.306   6.803  12.857  0.00  0.00    +0.000 A 
ATOM     21  C   UNL     1      46.137   5.721  13.187  0.00  0.00    +0.000 A 
ATOM     22  C   UNL     1      47.502   5.904  13.440  0.00  0.00    +0.000 A 
BRANCH  17  24
ATOM     23  N   UNL     1      50.305   7.451  12.462  0.00  0.00    +0.000 N 
ATOM     24  C   UNL     1      49.526   7.344  13.580  0.00  0.00    +0.000 C 
ATOM     25  O   UNL     1      50.012   7.400  14.701  0.00  0.00    +0.000 OA
ATOM     26  H   UNL     1      51.290   7.631  12.613  0.00  0.00    +0.000 HD
ATOM     27  H   UNL     1      49.927   7.641  11.546  0.00  0.00    +0.000 HD
ENDBRANCH  17  24
ENDBRANCH  15  20
ENDBRANCH   1  15
TORSDOF 5
ENDMDL
MODEL 5
REMARK VINA RESULT:    -8.082      2.330      2.872
REMARK INTER + INTRA:         -11.349
REMARK INTER:                 -10.477
REMARK INTRA:                  -0.871
REMARK UNBOUND:                -0.905
REMARK  Name = 
REMARK  5 active torsions:
REMARK  status: ('A' for Active; 'I' for Inactive)
REMARK    1  A    between atoms: C_2  and  C_4
REMARK    2  A    between atoms: C_7  and  N_8
REMARK    3  A    between atoms: N_8  and  C_9
REMARK    4  A    between atoms: C_9  and  C_10
REMARK    5  A    between atoms: C_14  and  C_15
REMARK                            x       y       z     vdW  Elec       q    Type
REMARK                         _______ _______ _______ _____ _____    ______ ____
ROOT
ATOM      1  C   UNL     1      43.843   3.844  11.898  0.00  0.00    +0.000 C 
ENDROOT
BRANCH   1   2
ATOM      2  C   UNL     1      44.770   4.958  12.290  0.00  0.00    +0.000 A 
ATOM      3  C   UNL     1      45.924   4.715  13.016  0.00  0.00    +0.000 A 
ATOM      4  N   UNL     1      46.802   5.675  13.366  0.00  0.00    +0.000 NA
ATOM      5  C   UNL     1      46.516   6.941  12.968  0.00  0.00    +0.000 A 
ATOM      6  C   UNL     1      45.403   7.322  12.211  0.00  0.00    +0.000 A 
ATOM      7  C   UNL     1      44.531   6.278  11.873  0.00  0.00    +0.000 A 
BRANCH   6   8
ATOM      8  C   UNL     1      45.162   8.723  11.800  0.00  0.00    +0.000 A 
ATOM      9  C   UNL     1      46.033   9.761  12.169  0.00  0.00    +0.000 A 
ATOM     10  C   UNL     1      45.771  11.060  11.754  0.00  0.00    +0.000 A 
ATOM     11  N   UNL     1      44.715  11.407  10.996  0.00  0.00    +0.000 NA
ATOM     12  C   UNL     1      43.885  10.408  10.646  0.00  0.00    +0.000 A 
ATOM     13  F   UNL     1      42.824  10.721   9.887  0.00  0.00    +0.000 F 
ATOM     14  C   UNL     1      44.057   9.083  11.017  0.00  0.00    +0.000 A 
ENDBRANCH   6   8
ENDBRANCH   1   2
BRANCH   1  15
ATOM     15  N   UNL     1      43.638   3.856  10.458  0.00  0.00    +0.000 N 
ATOM     16  H   UNL     1      42.711   3.562  10.162  0.00  0.00    +0.000 HD
BRANCH  15  20
ATOM     17  C   UNL     1      46.448   2.684   7.546  0.00  0.00    +0.000 A 
ATOM     18  C   UNL     1      46.124   4.033   7.688  0.00  0.00    +0.000 A 
ATOM     19  C   UNL     1      45.233   4.438   8.683  0.00  0.00    +0.000 A 
ATOM     20  C   UNL     1      44.650   3.521   9.566  0.00  0.00    +0.000 A 
ATOM     21  C   UNL     1      44.992   2.169   9.414  0.00  0.00    +0.000 A 
ATOM     22  C   UNL     1      45.879   1.752   8.414  0.00  0.00    +0.000 A 
BRANCH  17  24
ATOM     23  N   UNL     1      47.440   3.016   5.348  0.00  0.00    +0.000 N 
ATOM     24  C   UNL     1      47.337   2.216   6.452  0.00  0.00    +0.000 C 
ATOM     25  O   UNL     1      47.963   1.169   6.537  0.00  0.00    +0.000 OA
ATOM     26  H   UNL     1      48.099   2.724   4.638  0.00  0.00    +0.000 HD
ATOM     27  H   UNL     1      47.131   3.977   5.337  0.00  0.00    +0.000 HD
ENDBRANCH  17  24
ENDBRANCH  15  20
ENDBRANCH   1  15
TORSDOF 5
ENDMDL
MODEL 6
REMARK VINA RESULT:    -8.003      1.972      2.288
REMARK INTER + INTRA:         -11.247
REMARK INTER:                 -10.497
REMARK INTRA:                  -0.750
REMARK UNBOUND:                -0.905
REMARK  Name = 
REMARK  5 active torsions:
REMARK  status: ('A' for Active; 'I' for Inactive)
REMARK    1  A    between atoms: C_2  and  C_4
REMARK    2  A    between atoms: C_7  and  N_8
REMARK    3  A    between atoms: N_8  and  C_9
REMARK    4  A    between atoms: C_9  and  C_10
REMARK    5  A    between atoms: C_14  and  C_15
REMARK                            x       y       z     vdW  Elec       q    Type
REMARK                         _______ _______ _______ _____ _____    ______ ____
ROOT
ATOM      1  C   UNL     1      44.296   3.622  11.707  0.00  0.00    +0.000 C 
ENDROOT
BRANCH   1   2
ATOM      2  C   UNL     1      44.733   5.059  11.742  0.00  0.00    +0.000 A 
ATOM      3  C   UNL     1      43.858   6.086  11.431  0.00  0.00    +0.000 A 
ATOM      4  N   UNL     1      44.193   7.391  11.476  0.00  0.00    +0.000 NA
ATOM      5  C   UNL     1      45.463   7.684  11.854  0.00  0.00    +0.000 A 
ATOM      6  C   UNL     1      46.438   6.750  12.220  0.00  0.00    +0.000 A 
ATOM      7  C   UNL     1      46.028   5.411  12.158  0.00  0.00    +0.000 A 
BRANCH   6   8
ATOM      8  C   UNL     1      47.802   7.144  12.637  0.00  0.00    +0.000 A 
ATOM      9  C   UNL     1      48.686   7.785  11.755  0.00  0.00    +0.000 A 
ATOM     10  C   UNL     1      49.956   8.143  12.192  0.00  0.00    +0.000 A 
ATOM     11  N   UNL     1      50.411   7.919  13.439  0.00  0.00    +0.000 NA
ATOM     12  C   UNL     1      49.558   7.304  14.278  0.00  0.00    +0.000 A 
ATOM     13  F   UNL     1      49.981   7.070  15.529  0.00  0.00    +0.000 F 
ATOM     14  C   UNL     1      48.277   6.902  13.933  0.00  0.00    +0.000 A 
ENDBRANCH   6   8
ENDBRANCH   1   2
BRANCH   1  15
ATOM     15  N   UNL     1      43.768   3.300  10.390  0.00  0.00    +0.000 N 
ATOM     16  H   UNL     1      42.897   2.775  10.403  0.00  0.00    +0.000 HD
BRANCH  15  20
ATOM     17  C   UNL     1      46.545   2.559   7.310  0.00  0.00    +0.000 A 
ATOM     18  C   UNL     1      46.116   1.507   8.119  0.00  0.00    +0.000 A 
ATOM     19  C   UNL     1      45.158   1.732   9.110  0.00  0.00    +0.000 A 
ATOM     20  C   UNL     1      44.596   2.997   9.316  0.00  0.00    +0.000 A 
ATOM     21  C   UNL     1      45.034   4.042   8.489  0.00  0.00    +0.000 A 
ATOM     22  C   UNL     1      46.000   3.828   7.498  0.00  0.00    +0.000 A 
BRANCH  17  24
ATOM     23  N   UNL     1      47.458   3.001   5.098  0.00  0.00    +0.000 N 
ATOM     24  C   UNL     1      47.615   2.365   6.298  0.00  0.00    +0.000 C 
ATOM     25  O   UNL     1      48.601   1.680   6.530  0.00  0.00    +0.000 OA
ATOM     26  H   UNL     1      48.223   2.919   4.440  0.00  0.00    +0.000 HD
ATOM     27  H   UNL     1      46.792   3.745   4.955  0.00  0.00    +0.000 HD
ENDBRANCH  17  24
ENDBRANCH  15  20
ENDBRANCH   1  15
TORSDOF 5
ENDMDL
MODEL 7
REMARK VINA RESULT:    -7.906      3.553      6.950
REMARK INTER + INTRA:         -11.122
REMARK INTER:                 -10.280
REMARK INTRA:                  -0.842
REMARK UNBOUND:                -0.905
REMARK  Name = 
REMARK  5 active torsions:
REMARK  status: ('A' for Active; 'I' for Inactive)
REMARK    1  A    between atoms: C_2  and  C_4
REMARK    2  A    between atoms: C_7  and  N_8
REMARK    3  A    between atoms: N_8  and  C_9
REMARK    4  A    between atoms: C_9  and  C_10
REMARK    5  A    between atoms: C_14  and  C_15
REMARK                            x       y       z     vdW  Elec       q    Type
REMARK                         _______ _______ _______ _____ _____    ______ ____
ROOT
ATOM      1  C   UNL     1      43.738   6.603  11.397  0.00  0.00    +0.000 C 
ENDROOT
BRANCH   1   2
ATOM      2  C   UNL     1      43.833   5.139  11.078  0.00  0.00    +0.000 A 
ATOM      3  C   UNL     1      43.081   4.201  11.767  0.00  0.00    +0.000 A 
ATOM      4  N   UNL     1      43.109   2.880  11.500  0.00  0.00    +0.000 NA
ATOM      5  C   UNL     1      43.924   2.477  10.492  0.00  0.00    +0.000 A 
ATOM      6  C   UNL     1      44.714   3.316   9.700  0.00  0.00    +0.000 A 
ATOM      7  C   UNL     1      44.638   4.679  10.023  0.00  0.00    +0.000 A 
BRANCH   6   8
ATOM      8  C   UNL     1      45.570   2.807   8.605  0.00  0.00    +0.000 A 
ATOM      9  C   UNL     1      46.106   3.662   7.630  0.00  0.00    +0.000 A 
ATOM     10  C   UNL     1      46.910   3.141   6.624  0.00  0.00    +0.000 A 
ATOM     11  N   UNL     1      47.227   1.838   6.517  0.00  0.00    +0.000 NA
ATOM     12  C   UNL     1      46.709   1.024   7.454  0.00  0.00    +0.000 A 
ATOM     13  F   UNL     1      47.009  -0.281   7.376  0.00  0.00    +0.000 F 
ATOM     14  C   UNL     1      45.891   1.448   8.490  0.00  0.00    +0.000 A 
ENDBRANCH   6   8
ENDBRANCH   1   2
BRANCH   1  15
ATOM     15  N   UNL     1      44.562   6.910  12.556  0.00  0.00    +0.000 N 
ATOM     16  H   UNL     1      44.095   7.461  13.271  0.00  0.00    +0.000 HD
BRANCH  15  20
ATOM     17  C   UNL     1      48.664   7.870  12.533  0.00  0.00    +0.000 A 
ATOM     18  C   UNL     1      48.264   6.562  12.809  0.00  0.00    +0.000 A 
ATOM     19  C   UNL     1      46.910   6.222  12.769  0.00  0.00    +0.000 A 
ATOM     20  C   UNL     1      45.925   7.162  12.447  0.00  0.00    +0.000 A 
ATOM     21  C   UNL     1      46.345   8.471  12.166  0.00  0.00    +0.000 A 
ATOM     22  C   UNL     1      47.700   8.824  12.210  0.00  0.00    +0.000 A 
BRANCH  17  24
ATOM     23  N   UNL     1      50.843   7.661  13.598  0.00  0.00    +0.000 N 
ATOM     24  C   UNL     1      50.089   8.277  12.638  0.00  0.00    +0.000 C 
ATOM     25  O   UNL     1      50.573   9.115  11.890  0.00  0.00    +0.000 OA
ATOM     26  H   UNL     1      51.828   7.895  13.617  0.00  0.00    +0.000 HD
ATOM     27  H   UNL     1      50.550   6.818  14.067  0.00  0.00    +0.000 HD
ENDBRANCH  17  24
ENDBRANCH  15  20
ENDBRANCH   1  15
TORSDOF 5
ENDMDL
MODEL 8
REMARK VINA RESULT:    -7.440      3.854      7.314
REMARK INTER + INTRA:         -10.520
REMARK INTER:                 -10.111
REMARK INTRA:                  -0.409
REMARK UNBOUND:                -0.905
REMARK  Name = 
REMARK  5 active torsions:
REMARK  status: ('A' for Active; 'I' for Inactive)
REMARK    1  A    between atoms: C_2  and  C_4
REMARK    2  A    between atoms: C_7  and  N_8
REMARK    3  A    between atoms: N_8  and  C_9
REMARK    4  A    between atoms: C_9  and  C_10
REMARK    5  A    between atoms: C_14  and  C_15
REMARK                            x       y       z     vdW  Elec       q    Type
REMARK                         _______ _______ _______ _____ _____    ______ ____
ROOT
ATOM      1  C   UNL     1      44.948   6.747  11.434  0.00  0.00    +0.000 C 
ENDROOT
BRANCH   1   2
ATOM      2  C   UNL     1      44.613   5.362  10.960  0.00  0.00    +0.000 A 
ATOM      3  C   UNL     1      43.521   4.674  11.461  0.00  0.00    +0.000 A 
ATOM      4  N   UNL     1      43.162   3.441  11.048  0.00  0.00    +0.000 NA
ATOM      5  C   UNL     1      43.929   2.872  10.084  0.00  0.00    +0.000 A 
ATOM      6  C   UNL     1      45.040   3.464   9.474  0.00  0.00    +0.000 A 
ATOM      7  C   UNL     1      45.359   4.746   9.942  0.00  0.00    +0.000 A 
BRANCH   6   8
ATOM      8  C   UNL     1      45.823   2.787   8.416  0.00  0.00    +0.000 A 
ATOM      9  C   UNL     1      46.421   3.505   7.369  0.00  0.00    +0.000 A 
ATOM     10  C   UNL     1      47.153   2.829   6.400  0.00  0.00    +0.000 A 
ATOM     11  N   UNL     1      47.342   1.497   6.397  0.00  0.00    +0.000 NA
ATOM     12  C   UNL     1      46.766   0.816   7.403  0.00  0.00    +0.000 A 
ATOM     13  F   UNL     1      46.938  -0.514   7.429  0.00  0.00    +0.000 F 
ATOM     14  C   UNL     1      46.011   1.399   8.409  0.00  0.00    +0.000 A 
ENDBRANCH   6   8
ENDBRANCH   1   2
BRANCH   1  15
ATOM     15  N   UNL     1      46.350   6.811  11.818  0.00  0.00    +0.000 N 
ATOM     16  H   UNL     1      47.002   6.621  11.062  0.00  0.00    +0.000 HD
BRANCH  15  20
ATOM     17  C   UNL     1      47.864   5.270  15.435  0.00  0.00    +0.000 A 
ATOM     18  C   UNL     1      48.368   6.469  14.932  0.00  0.00    +0.000 A 
ATOM     19  C   UNL     1      47.838   7.014  13.761  0.00  0.00    +0.000 A 
ATOM     20  C   UNL     1      46.793   6.393  13.067  0.00  0.00    +0.000 A 
ATOM     21  C   UNL     1      46.294   5.191  13.590  0.00  0.00    +0.000 A 
ATOM     22  C   UNL     1      46.823   4.632  14.760  0.00  0.00    +0.000 A 
BRANCH  17  24
ATOM     23  N   UNL     1      48.227   3.292  16.806  0.00  0.00    +0.000 N 
ATOM     24  C   UNL     1      48.456   4.629  16.637  0.00  0.00    +0.000 C 
ATOM     25  O   UNL     1      49.133   5.263  17.434  0.00  0.00    +0.000 OA
ATOM     26  H   UNL     1      48.690   2.850  17.591  0.00  0.00    +0.000 HD
ATOM     27  H   UNL     1      47.879   2.698  16.069  0.00  0.00    +0.000 HD
ENDBRANCH  17  24
ENDBRANCH  15  20
ENDBRANCH   1  15
TORSDOF 5
ENDMDL
MODEL 9
REMARK VINA RESULT:    -6.480      3.888      5.743
REMARK INTER + INTRA:          -9.279
REMARK INTER:                  -8.370
REMARK INTRA:                  -0.909
REMARK UNBOUND:                -0.905
REMARK  Name = 
REMARK  5 active torsions:
REMARK  status: ('A' for Active; 'I' for Inactive)
REMARK    1  A    between atoms: C_2  and  C_4
REMARK    2  A    between atoms: C_7  and  N_8
REMARK    3  A    between atoms: N_8  and  C_9
REMARK    4  A    between atoms: C_9  and  C_10
REMARK    5  A    between atoms: C_14  and  C_15
REMARK                            x       y       z     vdW  Elec       q    Type
REMARK                         _______ _______ _______ _____ _____    ______ ____
ROOT
ATOM      1  C   UNL     1      47.944   7.808  12.325  0.00  0.00    +0.000 C 
ENDROOT
BRANCH   1   2
ATOM      2  C   UNL     1      48.254   7.796  13.795  0.00  0.00    +0.000 A 
ATOM      3  C   UNL     1      48.404   8.972  14.509  0.00  0.00    +0.000 A 
ATOM      4  N   UNL     1      48.654   9.015  15.834  0.00  0.00    +0.000 NA
ATOM      5  C   UNL     1      48.754   7.823  16.475  0.00  0.00    +0.000 A 
ATOM      6  C   UNL     1      48.599   6.566  15.884  0.00  0.00    +0.000 A 
ATOM      7  C   UNL     1      48.336   6.588  14.507  0.00  0.00    +0.000 A 
BRANCH   6   8
ATOM      8  C   UNL     1      48.708   5.305  16.651  0.00  0.00    +0.000 A 
ATOM      9  C   UNL     1      49.912   4.912  17.256  0.00  0.00    +0.000 A 
ATOM     10  C   UNL     1      49.966   3.723  17.973  0.00  0.00    +0.000 A 
ATOM     11  N   UNL     1      48.915   2.899  18.140  0.00  0.00    +0.000 NA
ATOM     12  C   UNL     1      47.765   3.282  17.557  0.00  0.00    +0.000 A 
ATOM     13  F   UNL     1      46.698   2.483  17.709  0.00  0.00    +0.000 F 
ATOM     14  C   UNL     1      47.614   4.444  16.816  0.00  0.00    +0.000 A 
ENDBRANCH   6   8
ENDBRANCH   1   2
BRANCH   1  15
ATOM     15  N   UNL     1      46.505   7.879  12.126  0.00  0.00    +0.000 N 
ATOM     16  H   UNL     1      46.034   8.570  12.704  0.00  0.00    +0.000 HD
BRANCH  15  20
ATOM     17  C   UNL     1      44.499   4.268  11.294  0.00  0.00    +0.000 A 
ATOM     18  C   UNL     1      44.390   4.842  12.561  0.00  0.00    +0.000 A 
ATOM     19  C   UNL     1      45.009   6.064  12.832  0.00  0.00    +0.000 A 
ATOM     20  C   UNL     1      45.740   6.750  11.856  0.00  0.00    +0.000 A 
ATOM     21  C   UNL     1      45.835   6.162  10.585  0.00  0.00    +0.000 A 
ATOM     22  C   UNL     1      45.224   4.933  10.306  0.00  0.00    +0.000 A 
BRANCH  17  24
ATOM     23  N   UNL     1      44.503   2.203  10.008  0.00  0.00    +0.000 N 
ATOM     24  C   UNL     1      43.913   2.936  10.999  0.00  0.00    +0.000 C 
ATOM     25  O   UNL     1      42.955   2.504  11.624  0.00  0.00    +0.000 OA
ATOM     26  H   UNL     1      44.140   1.269   9.860  0.00  0.00    +0.000 HD
ATOM     27  H   UNL     1      45.416   2.417   9.637  0.00  0.00    +0.000 HD
ENDBRANCH  17  24
ENDBRANCH  15  20
ENDBRANCH   1  15
TORSDOF 5
ENDMDL
