MODEL 1
REMARK VINA RESULT:    -9.117      0.000      0.000
REMARK INTER + INTRA:         -12.737
REMARK INTER:                 -11.782
REMARK INTRA:                  -0.956
REMARK UNBOUND:                -0.956
REMARK  Name = 
REMARK  5 active torsions:
REMARK  status: ('A' for Active; 'I' for Inactive)
REMARK    1  A    between atoms: C_2  and  C_4
REMARK    2  A    between atoms: N_8  and  C_9
REMARK    3  A    between atoms: C_9  and  C_10
REMARK    4  A    between atoms: C_10  and  C_13
REMARK    5  A    between atoms: C_17  and  N_18
REMARK                            x       y       z     vdW  Elec       q    Type
REMARK                         _______ _______ _______ _____ _____    ______ ____
ROOT
ATOM      1  C   UNL     1      43.610   4.619  12.514  0.00  0.00    +0.000 C 
ATOM      2  F   UNL     1      42.658   5.471  13.000  0.00  0.00    +0.000 F 
ATOM      3  F   UNL     1      43.404   3.436  13.166  0.00  0.00    +0.000 F 
ENDROOT
BRANCH   1   4
ATOM      4  C   UNL     1      45.015   5.151  12.716  0.00  0.00    +0.000 A 
ATOM      5  C   UNL     1      45.558   6.089  11.834  0.00  0.00    +0.000 A 
ATOM      6  C   UNL     1      46.818   6.625  12.084  0.00  0.00    +0.000 A 
ATOM      7  C   UNL     1      47.530   6.238  13.225  0.00  0.00    +0.000 A 
ATOM      8  C   UNL     1      47.020   5.305  14.140  0.00  0.00    +0.000 A 
ATOM      9  C   UNL     1      45.758   4.764  13.847  0.00  0.00    +0.000 A 
BRANCH   8  10
ATOM     10  N   UNL     1      47.710   4.958  15.279  0.00  0.00    +0.000 N 
ATOM     11  C   UNL     1      47.530   3.677  15.979  0.00  0.00    +0.000 C 
ATOM     12  C   UNL     1      47.178   3.937  17.451  0.00  0.00    +0.000 C 
ATOM     13  O   UNL     1      48.169   4.762  18.089  0.00  0.00    +0.000 OA
ATOM     14  C   UNL     1      48.274   6.028  17.417  0.00  0.00    +0.000 C 
ATOM     15  C   UNL     1      48.664   5.866  15.936  0.00  0.00    +0.000 C 
ENDBRANCH   8  10
ENDBRANCH   1   4
BRANCH   1  16
ATOM     16  C   UNL     1      43.356   4.406  10.999  0.00  0.00    +0.000 C 
BRANCH  16  21
ATOM     17  C   UNL     1      46.573   2.646   7.399  0.00  0.00    +0.000 A 
ATOM     18  C   UNL     1      46.170   3.938   7.715  0.00  0.00    +0.000 A 
ATOM     19  C   UNL     1      45.263   4.127   8.758  0.00  0.00    +0.000 A 
ATOM     20  C   UNL     1      44.763   3.031   9.457  0.00  0.00    +0.000 A 
ATOM     21  N   UNL     1      43.860   3.143  10.478  0.00  0.00    +0.000 N 
ATOM     22  N   UNL     1      45.145   1.776   9.151  0.00  0.00    +0.000 NA
ATOM     23  C   UNL     1      46.030   1.605   8.135  0.00  0.00    +0.000 A 
ATOM     24  H   UNL     1      43.551   2.264  10.878  0.00  0.00    +0.000 HD
BRANCH  17  26
ATOM     25  N   UNL     1      47.515   3.197   5.228  0.00  0.00    +0.000 N 
ATOM     26  C   UNL     1      47.513   2.349   6.301  0.00  0.00    +0.000 C 
ATOM     27  O   UNL     1      48.280   1.396   6.356  0.00  0.00    +0.000 OA
ATOM     28  H   UNL     1      48.229   3.033   4.529  0.00  0.00    +0.000 HD
ATOM     29  H   UNL     1      47.094   4.114   5.259  0.00  0.00    +0.000 HD
ENDBRANCH  17  26
ENDBRANCH  16  21
ENDBRANCH   1  16
TORSDOF 5
ENDMDL
MODEL 2
REMARK VINA RESULT:    -8.770      2.569      3.624
REMARK INTER + INTRA:         -12.290
REMARK INTER:                 -11.385
REMARK INTRA:                  -0.904
REMARK UNBOUND:                -0.956
REMARK  Name = 
REMARK  5 active torsions:
REMARK  status: ('A' for Active; 'I' for Inactive)
REMARK    1  A    between atoms: C_2  and  C_4
REMARK    2  A    between atoms: N_8  and  C_9
REMARK    3  A    between atoms: C_9  and  C_10
REMARK    4  A    between atoms: C_10  and  C_13
REMARK    5  A    between atoms: C_17  and  N_18
REMARK                            x       y       z     vdW  Elec       q    Type
REMARK                         _______ _______ _______ _____ _____    ______ ____
ROOT
ATOM      1  C   UNL     1      43.471   4.659  12.534  0.00  0.00    +0.000 C 
ATOM      2  F   UNL     1      42.415   5.403  12.979  0.00  0.00    +0.000 F 
ATOM      3  F   UNL     1      43.339   3.443  13.143  0.00  0.00    +0.000 F 
ENDROOT
BRANCH   1   4
ATOM      4  C   UNL     1      44.804   5.314  12.838  0.00  0.00    +0.000 A 
ATOM      5  C   UNL     1      45.935   4.541  13.111  0.00  0.00    +0.000 A 
ATOM      6  C   UNL     1      47.166   5.160  13.307  0.00  0.00    +0.000 A 
ATOM      7  C   UNL     1      47.272   6.552  13.215  0.00  0.00    +0.000 A 
ATOM      8  C   UNL     1      46.164   7.366  12.937  0.00  0.00    +0.000 A 
ATOM      9  C   UNL     1      44.932   6.714  12.769  0.00  0.00    +0.000 A 
BRANCH   8  10
ATOM     10  N   UNL     1      46.284   8.731  12.809  0.00  0.00    +0.000 N 
ATOM     11  C   UNL     1      45.158   9.618  12.473  0.00  0.00    +0.000 C 
ATOM     12  C   UNL     1      45.513  10.455  11.236  0.00  0.00    +0.000 C 
ATOM     13  O   UNL     1      46.734  11.190  11.433  0.00  0.00    +0.000 OA
ATOM     14  C   UNL     1      47.823  10.290  11.698  0.00  0.00    +0.000 C 
ATOM     15  C   UNL     1      47.570   9.431  12.951  0.00  0.00    +0.000 C 
ENDBRANCH   8  10
ENDBRANCH   1   4
BRANCH   1  16
ATOM     16  C   UNL     1      43.332   4.469  11.002  0.00  0.00    +0.000 C 
BRANCH  16  21
ATOM     17  C   UNL     1      46.563   2.659   7.440  0.00  0.00    +0.000 A 
ATOM     18  C   UNL     1      46.153   3.954   7.731  0.00  0.00    +0.000 A 
ATOM     19  C   UNL     1      45.243   4.159   8.769  0.00  0.00    +0.000 A 
ATOM     20  C   UNL     1      44.748   3.073   9.488  0.00  0.00    +0.000 A 
ATOM     21  N   UNL     1      43.844   3.199  10.506  0.00  0.00    +0.000 N 
ATOM     22  N   UNL     1      45.138   1.814   9.207  0.00  0.00    +0.000 NA
ATOM     23  C   UNL     1      46.026   1.629   8.195  0.00  0.00    +0.000 A 
ATOM     24  H   UNL     1      43.539   2.325  10.922  0.00  0.00    +0.000 HD
BRANCH  17  26
ATOM     25  N   UNL     1      47.494   3.165   5.253  0.00  0.00    +0.000 N 
ATOM     26  C   UNL     1      47.506   2.346   6.349  0.00  0.00    +0.000 C 
ATOM     27  O   UNL     1      48.289   1.408   6.430  0.00  0.00    +0.000 OA
ATOM     28  H   UNL     1      48.210   2.992   4.558  0.00  0.00    +0.000 HD
ATOM     29  H   UNL     1      47.058   4.075   5.259  0.00  0.00    +0.000 HD
ENDBRANCH  17  26
ENDBRANCH  16  21
ENDBRANCH   1  16
TORSDOF 5
ENDMDL
MODEL 3
REMARK VINA RESULT:    -8.632      2.005      2.483
REMARK INTER + INTRA:         -12.111
REMARK INTER:                 -11.032
REMARK INTRA:                  -1.080
REMARK UNBOUND:                -0.956
REMARK  Name = 
REMARK  5 active torsions:
REMARK  status: ('A' for Active; 'I' for Inactive)
REMARK    1  A    between atoms: C_2  and  C_4
REMARK    2  A    between atoms: N_8  and  C_9
REMARK    3  A    between atoms: C_9  and  C_10
REMARK    4  A    between atoms: C_10  and  C_13
REMARK    5  A    between atoms: C_17  and  N_18
REMARK                            x       y       z     vdW  Elec       q    Type
REMARK                         _______ _______ _______ _____ _____    ______ ____
ROOT
ATOM      1  C   UNL     1      44.172   4.029  12.530  0.00  0.00    +0.000 C 
ATOM      2  F   UNL     1      43.258   4.141  13.540  0.00  0.00    +0.000 F 
ATOM      3  F   UNL     1      45.018   3.028  12.916  0.00  0.00    +0.000 F 
ENDROOT
BRANCH   1   4
ATOM      4  C   UNL     1      44.901   5.332  12.269  0.00  0.00    +0.000 A 
ATOM      5  C   UNL     1      44.256   6.399  11.637  0.00  0.00    +0.000 A 
ATOM      6  C   UNL     1      44.918   7.613  11.480  0.00  0.00    +0.000 A 
ATOM      7  C   UNL     1      46.220   7.769  11.969  0.00  0.00    +0.000 A 
ATOM      8  C   UNL     1      46.903   6.727  12.615  0.00  0.00    +0.000 A 
ATOM      9  C   UNL     1      46.218   5.508  12.736  0.00  0.00    +0.000 A 
BRANCH   8  10
ATOM     10  N   UNL     1      48.168   6.900  13.127  0.00  0.00    +0.000 N 
ATOM     11  C   UNL     1      48.500   6.726  14.550  0.00  0.00    +0.000 C 
ATOM     12  C   UNL     1      49.172   7.999  15.083  0.00  0.00    +0.000 C 
ATOM     13  O   UNL     1      50.328   8.349  14.302  0.00  0.00    +0.000 OA
ATOM     14  C   UNL     1      49.958   8.571  12.931  0.00  0.00    +0.000 C 
ATOM     15  C   UNL     1      49.308   7.327  12.299  0.00  0.00    +0.000 C 
ENDBRANCH   8  10
ENDBRANCH   1   4
BRANCH   1  16
ATOM     16  C   UNL     1      43.432   3.589  11.241  0.00  0.00    +0.000 C 
BRANCH  16  21
ATOM     17  C   UNL     1      46.580   2.790   7.258  0.00  0.00    +0.000 A 
ATOM     18  C   UNL     1      46.023   3.957   7.766  0.00  0.00    +0.000 A 
ATOM     19  C   UNL     1      45.181   3.878   8.876  0.00  0.00    +0.000 A 
ATOM     20  C   UNL     1      44.897   2.642   9.451  0.00  0.00    +0.000 A 
ATOM     21  N   UNL     1      44.069   2.490  10.529  0.00  0.00    +0.000 N 
ATOM     22  N   UNL     1      45.429   1.506   8.960  0.00  0.00    +0.000 NA
ATOM     23  C   UNL     1      46.249   1.596   7.880  0.00  0.00    +0.000 A 
ATOM     24  H   UNL     1      43.920   1.532  10.825  0.00  0.00    +0.000 HD
BRANCH  17  26
ATOM     25  N   UNL     1      48.793   2.522   6.291  0.00  0.00    +0.000 N 
ATOM     26  C   UNL     1      47.465   2.775   6.078  0.00  0.00    +0.000 C 
ATOM     27  O   UNL     1      47.028   2.954   4.948  0.00  0.00    +0.000 OA
ATOM     28  H   UNL     1      49.367   2.422   5.463  0.00  0.00    +0.000 HD
ATOM     29  H   UNL     1      49.140   2.124   7.151  0.00  0.00    +0.000 HD
ENDBRANCH  17  26
ENDBRANCH  16  21
ENDBRANCH   1  16
TORSDOF 5
ENDMDL
MODEL 4
REMARK VINA RESULT:    -7.998      2.481      3.198
REMARK INTER + INTRA:         -11.292
REMARK INTER:                 -10.506
REMARK INTRA:                  -0.785
REMARK UNBOUND:                -0.956
REMARK  Name = 
REMARK  5 active torsions:
REMARK  status: ('A' for Active; 'I' for Inactive)
REMARK    1  A    between atoms: C_2  and  C_4
REMARK    2  A    between atoms: N_8  and  C_9
REMARK    3  A    between atoms: C_9  and  C_10
REMARK    4  A    between atoms: C_10  and  C_13
REMARK    5  A    between atoms: C_17  and  N_18
REMARK                            x       y       z     vdW  Elec       q    Type
REMARK                         _______ _______ _______ _____ _____    ______ ____
ROOT
ATOM      1  C   UNL     1      43.942   5.536  12.201  0.00  0.00    +0.000 C 
ATOM      2  F   UNL     1      42.941   5.568  13.129  0.00  0.00    +0.000 F 
ATOM      3  F   UNL     1      44.795   4.554  12.620  0.00  0.00    +0.000 F 
ENDROOT
BRANCH   1   4
ATOM      4  C   UNL     1      44.635   6.877  12.057  0.00  0.00    +0.000 A 
ATOM      5  C   UNL     1      43.970   7.969  11.491  0.00  0.00    +0.000 A 
ATOM      6  C   UNL     1      44.596   9.211  11.443  0.00  0.00    +0.000 A 
ATOM      7  C   UNL     1      45.881   9.369  11.975  0.00  0.00    +0.000 A 
ATOM      8  C   UNL     1      46.582   8.303  12.557  0.00  0.00    +0.000 A 
ATOM      9  C   UNL     1      45.934   7.057  12.568  0.00  0.00    +0.000 A 
BRANCH   8  10
ATOM     10  N   UNL     1      47.829   8.475  13.112  0.00  0.00    +0.000 N 
ATOM     11  C   UNL     1      49.014   8.880  12.339  0.00  0.00    +0.000 C 
ATOM     12  C   UNL     1      50.140   7.858  12.546  0.00  0.00    +0.000 C 
ATOM     13  O   UNL     1      50.443   7.686  13.942  0.00  0.00    +0.000 OA
ATOM     14  C   UNL     1      49.281   7.231  14.655  0.00  0.00    +0.000 C 
ATOM     15  C   UNL     1      48.106   8.220  14.535  0.00  0.00    +0.000 C 
ENDBRANCH   8  10
ENDBRANCH   1   4
BRANCH   1  16
ATOM     16  C   UNL     1      43.337   5.124  10.834  0.00  0.00    +0.000 C 
BRANCH  16  21
ATOM     17  C   UNL     1      46.269   2.057   7.936  0.00  0.00    +0.000 A 
ATOM     18  C   UNL     1      45.462   1.783   9.033  0.00  0.00    +0.000 A 
ATOM     19  C   UNL     1      44.770   2.830   9.642  0.00  0.00    +0.000 A 
ATOM     20  C   UNL     1      44.904   4.130   9.159  0.00  0.00    +0.000 A 
ATOM     21  N   UNL     1      44.268   5.204   9.717  0.00  0.00    +0.000 N 
ATOM     22  N   UNL     1      45.689   4.403   8.100  0.00  0.00    +0.000 NA
ATOM     23  C   UNL     1      46.357   3.373   7.514  0.00  0.00    +0.000 A 
ATOM     24  H   UNL     1      44.481   6.100   9.290  0.00  0.00    +0.000 HD
BRANCH  17  26
ATOM     25  N   UNL     1      46.795  -0.287   7.566  0.00  0.00    +0.000 N 
ATOM     26  C   UNL     1      47.052   1.017   7.241  0.00  0.00    +0.000 C 
ATOM     27  O   UNL     1      47.881   1.304   6.386  0.00  0.00    +0.000 OA
ATOM     28  H   UNL     1      47.272  -0.989   7.014  0.00  0.00    +0.000 HD
ATOM     29  H   UNL     1      45.963  -0.570   8.063  0.00  0.00    +0.000 HD
ENDBRANCH  17  26
ENDBRANCH  16  21
ENDBRANCH   1  16
TORSDOF 5
ENDMDL
MODEL 5
REMARK VINA RESULT:    -7.595      1.699      7.703
REMARK INTER + INTRA:         -10.770
REMARK INTER:                  -9.967
REMARK INTRA:                  -0.803
REMARK UNBOUND:                -0.956
REMARK  Name = 
REMARK  5 active torsions:
REMARK  status: ('A' for Active; 'I' for Inactive)
REMARK    1  A    between atoms: C_2  and  C_4
REMARK    2  A    between atoms: N_8  and  C_9
REMARK    3  A    between atoms: C_9  and  C_10
REMARK    4  A    between atoms: C_10  and  C_13
REMARK    5  A    between atoms: C_17  and  N_18
REMARK                            x       y       z     vdW  Elec       q    Type
REMARK                         _______ _______ _______ _____ _____    ______ ____
ROOT
ATOM      1  C   UNL     1      45.374   6.765  11.914  0.00  0.00    +0.000 C 
ATOM      2  F   UNL     1      44.973   7.218  13.139  0.00  0.00    +0.000 F 
ATOM      3  F   UNL     1      44.935   7.700  11.020  0.00  0.00    +0.000 F 
ENDROOT
BRANCH   1   4
ATOM      4  C   UNL     1      44.838   5.380  11.610  0.00  0.00    +0.000 A 
ATOM      5  C   UNL     1      43.922   4.763  12.466  0.00  0.00    +0.000 A 
ATOM      6  C   UNL     1      43.381   3.527  12.127  0.00  0.00    +0.000 A 
ATOM      7  C   UNL     1      43.742   2.911  10.923  0.00  0.00    +0.000 A 
ATOM      8  C   UNL     1      44.652   3.497  10.031  0.00  0.00    +0.000 A 
ATOM      9  C   UNL     1      45.199   4.733  10.413  0.00  0.00    +0.000 A 
BRANCH   8  10
ATOM     10  N   UNL     1      44.972   2.905   8.831  0.00  0.00    +0.000 N 
ATOM     11  C   UNL     1      45.136   1.452   8.660  0.00  0.00    +0.000 C 
ATOM     12  C   UNL     1      46.515   1.156   8.054  0.00  0.00    +0.000 C 
ATOM     13  O   UNL     1      46.708   1.867   6.818  0.00  0.00    +0.000 OA
ATOM     14  C   UNL     1      46.603   3.284   7.033  0.00  0.00    +0.000 C 
ATOM     15  C   UNL     1      45.229   3.680   7.607  0.00  0.00    +0.000 C 
ENDBRANCH   8  10
ENDBRANCH   1   4
BRANCH   1  16
ATOM     16  C   UNL     1      46.924   6.732  11.882  0.00  0.00    +0.000 C 
BRANCH  16  21
ATOM     17  C   UNL     1      47.860   4.255  16.286  0.00  0.00    +0.000 A 
ATOM     18  C   UNL     1      47.167   3.867  15.146  0.00  0.00    +0.000 A 
ATOM     19  C   UNL     1      47.061   4.762  14.081  0.00  0.00    +0.000 A 
ATOM     20  C   UNL     1      47.634   6.028  14.174  0.00  0.00    +0.000 A 
ATOM     21  N   UNL     1      47.555   6.959  13.175  0.00  0.00    +0.000 N 
ATOM     22  N   UNL     1      48.302   6.413  15.278  0.00  0.00    +0.000 NA
ATOM     23  C   UNL     1      48.399   5.531  16.308  0.00  0.00    +0.000 A 
ATOM     24  H   UNL     1      47.984   7.854  13.386  0.00  0.00    +0.000 HD
BRANCH  17  26
ATOM     25  N   UNL     1      46.926   2.625  17.828  0.00  0.00    +0.000 N 
ATOM     26  C   UNL     1      48.006   3.383  17.468  0.00  0.00    +0.000 C 
ATOM     27  O   UNL     1      49.060   3.318  18.088  0.00  0.00    +0.000 OA
ATOM     28  H   UNL     1      47.074   1.965  18.581  0.00  0.00    +0.000 HD
ATOM     29  H   UNL     1      46.146   2.460  17.207  0.00  0.00    +0.000 HD
ENDBRANCH  17  26
ENDBRANCH  16  21
ENDBRANCH   1  16
TORSDOF 5
ENDMDL
MODEL 6
REMARK VINA RESULT:    -6.709      3.336      4.846
REMARK INTER + INTRA:          -9.625
REMARK INTER:                  -8.742
REMARK INTRA:                  -0.884
REMARK UNBOUND:                -0.956
REMARK  Name = 
REMARK  5 active torsions:
REMARK  status: ('A' for Active; 'I' for Inactive)
REMARK    1  A    between atoms: C_2  and  C_4
REMARK    2  A    between atoms: N_8  and  C_9
REMARK    3  A    between atoms: C_9  and  C_10
REMARK    4  A    between atoms: C_10  and  C_13
REMARK    5  A    between atoms: C_17  and  N_18
REMARK                            x       y       z     vdW  Elec       q    Type
REMARK                         _______ _______ _______ _____ _____    ______ ____
ROOT
ATOM      1  C   UNL     1      48.206   8.515  12.701  0.00  0.00    +0.000 C 
ATOM      2  F   UNL     1      48.601   7.458  11.932  0.00  0.00    +0.000 F 
ATOM      3  F   UNL     1      48.920   9.586  12.242  0.00  0.00    +0.000 F 
ENDROOT
BRANCH   1   4
ATOM      4  C   UNL     1      48.431   8.265  14.180  0.00  0.00    +0.000 A 
ATOM      5  C   UNL     1      48.442   9.325  15.091  0.00  0.00    +0.000 A 
ATOM      6  C   UNL     1      48.568   9.065  16.453  0.00  0.00    +0.000 A 
ATOM      7  C   UNL     1      48.668   7.745  16.908  0.00  0.00    +0.000 A 
ATOM      8  C   UNL     1      48.655   6.652  16.029  0.00  0.00    +0.000 A 
ATOM      9  C   UNL     1      48.551   6.948  14.660  0.00  0.00    +0.000 A 
BRANCH   8  10
ATOM     10  N   UNL     1      48.714   5.356  16.487  0.00  0.00    +0.000 N 
ATOM     11  C   UNL     1      47.701   4.336  16.172  0.00  0.00    +0.000 C 
ATOM     12  C   UNL     1      47.153   3.734  17.474  0.00  0.00    +0.000 C 
ATOM     13  O   UNL     1      48.210   3.205  18.293  0.00  0.00    +0.000 OA
ATOM     14  C   UNL     1      49.146   4.241  18.633  0.00  0.00    +0.000 C 
ATOM     15  C   UNL     1      49.780   4.879  17.382  0.00  0.00    +0.000 C 
ENDBRANCH   8  10
ENDBRANCH   1   4
BRANCH   1  16
ATOM     16  C   UNL     1      46.698   8.774  12.450  0.00  0.00    +0.000 C 
BRANCH  16  21
ATOM     17  C   UNL     1      44.462   4.236  11.547  0.00  0.00    +0.000 A 
ATOM     18  C   UNL     1      45.264   5.038  10.744  0.00  0.00    +0.000 A 
ATOM     19  C   UNL     1      45.738   6.247  11.254  0.00  0.00    +0.000 A 
ATOM     20  C   UNL     1      45.394   6.643  12.545  0.00  0.00    +0.000 A 
ATOM     21  N   UNL     1      45.810   7.821  13.101  0.00  0.00    +0.000 N 
ATOM     22  N   UNL     1      44.612   5.873  13.325  0.00  0.00    +0.000 NA
ATOM     23  C   UNL     1      44.159   4.696  12.817  0.00  0.00    +0.000 A 
ATOM     24  H   UNL     1      45.458   8.004  14.035  0.00  0.00    +0.000 HD
BRANCH  17  26
ATOM     25  N   UNL     1      44.452   2.390   9.966  0.00  0.00    +0.000 N 
ATOM     26  C   UNL     1      43.902   2.951  11.085  0.00  0.00    +0.000 C 
ATOM     27  O   UNL     1      42.996   2.393  11.693  0.00  0.00    +0.000 OA
ATOM     28  H   UNL     1      44.120   1.466   9.719  0.00  0.00    +0.000 HD
ATOM     29  H   UNL     1      45.346   2.680   9.595  0.00  0.00    +0.000 HD
ENDBRANCH  17  26
ENDBRANCH  16  21
ENDBRANCH   1  16
TORSDOF 5
ENDMDL
MODEL 7
REMARK VINA RESULT:    -6.583      3.763      8.407
REMARK INTER + INTRA:          -9.463
REMARK INTER:                  -8.363
REMARK INTRA:                  -1.100
REMARK UNBOUND:                -0.956
REMARK  Name = 
REMARK  5 active torsions:
REMARK  status: ('A' for Active; 'I' for Inactive)
REMARK    1  A    between atoms: C_2  and  C_4
REMARK    2  A    between atoms: N_8  and  C_9
REMARK    3  A    between atoms: C_9  and  C_10
REMARK    4  A    between atoms: C_10  and  C_13
REMARK    5  A    between atoms: C_17  and  N_18
REMARK                            x       y       z     vdW  Elec       q    Type
REMARK                         _______ _______ _______ _____ _____    ______ ____
ROOT
ATOM      1  C   UNL     1      49.325   8.374  11.901  0.00  0.00    +0.000 C 
ATOM      2  F   UNL     1      49.442   9.519  11.164  0.00  0.00    +0.000 F 
ATOM      3  F   UNL     1      49.939   7.403  11.162  0.00  0.00    +0.000 F 
ENDROOT
BRANCH   1   4
ATOM      4  C   UNL     1      47.880   8.036  12.210  0.00  0.00    +0.000 A 
ATOM      5  C   UNL     1      47.027   8.989  12.774  0.00  0.00    +0.000 A 
ATOM      6  C   UNL     1      45.684   8.683  12.975  0.00  0.00    +0.000 A 
ATOM      7  C   UNL     1      45.187   7.430  12.597  0.00  0.00    +0.000 A 
ATOM      8  C   UNL     1      46.006   6.447  12.022  0.00  0.00    +0.000 A 
ATOM      9  C   UNL     1      47.360   6.777  11.856  0.00  0.00    +0.000 A 
BRANCH   8  10
ATOM     10  N   UNL     1      45.502   5.233  11.618  0.00  0.00    +0.000 N 
ATOM     11  C   UNL     1      45.156   4.920  10.222  0.00  0.00    +0.000 C 
ATOM     12  C   UNL     1      43.698   4.445  10.145  0.00  0.00    +0.000 C 
ATOM     13  O   UNL     1      43.464   3.326  11.018  0.00  0.00    +0.000 OA
ATOM     14  C   UNL     1      43.752   3.685  12.380  0.00  0.00    +0.000 C 
ATOM     15  C   UNL     1      45.213   4.140  12.560  0.00  0.00    +0.000 C 
ENDBRANCH   8  10
ENDBRANCH   1   4
BRANCH   1  16
ATOM     16  C   UNL     1      50.103   8.560  13.229  0.00  0.00    +0.000 C 
BRANCH  16  21
ATOM     17  C   UNL     1      48.498   6.768  17.770  0.00  0.00    +0.000 A 
ATOM     18  C   UNL     1      48.347   8.013  17.171  0.00  0.00    +0.000 A 
ATOM     19  C   UNL     1      48.903   8.229  15.910  0.00  0.00    +0.000 A 
ATOM     20  C   UNL     1      49.608   7.209  15.274  0.00  0.00    +0.000 A 
ATOM     21  N   UNL     1      50.191   7.357  14.045  0.00  0.00    +0.000 N 
ATOM     22  N   UNL     1      49.762   6.002  15.851  0.00  0.00    +0.000 NA
ATOM     23  C   UNL     1      49.215   5.805  17.079  0.00  0.00    +0.000 A 
ATOM     24  H   UNL     1      50.705   6.548  13.713  0.00  0.00    +0.000 HD
BRANCH  17  26
ATOM     25  N   UNL     1      46.854   5.655  19.171  0.00  0.00    +0.000 N 
ATOM     26  C   UNL     1      47.961   6.456  19.109  0.00  0.00    +0.000 C 
ATOM     27  O   UNL     1      48.499   6.873  20.127  0.00  0.00    +0.000 OA
ATOM     28  H   UNL     1      46.556   5.375  20.097  0.00  0.00    +0.000 HD
ATOM     29  H   UNL     1      46.542   5.095  18.391  0.00  0.00    +0.000 HD
ENDBRANCH  17  26
ENDBRANCH  16  21
ENDBRANCH   1  16
TORSDOF 5
ENDMDL
MODEL 8
REMARK VINA RESULT:    -6.467      3.607      5.559
REMARK INTER + INTRA:          -9.313
REMARK INTER:                  -8.220
REMARK INTRA:                  -1.093
REMARK UNBOUND:                -0.956
REMARK  Name = 
REMARK  5 active torsions:
REMARK  status: ('A' for Active; 'I' for Inactive)
REMARK    1  A    between atoms: C_2  and  C_4
REMARK    2  A    between atoms: N_8  and  C_9
REMARK    3  A    between atoms: C_9  and  C_10
REMARK    4  A    between atoms: C_10  and  C_13
REMARK    5  A    between atoms: C_17  and  N_18
REMARK                            x       y       z     vdW  Elec       q    Type
REMARK                         _______ _______ _______ _____ _____    ______ ____
ROOT
ATOM      1  C   UNL     1      48.741   8.577  14.479  0.00  0.00    +0.000 C 
ATOM      2  F   UNL     1      49.734   9.499  14.297  0.00  0.00    +0.000 F 
ATOM      3  F   UNL     1      47.596   9.187  14.050  0.00  0.00    +0.000 F 
ENDROOT
BRANCH   1   4
ATOM      4  C   UNL     1      48.643   8.116  15.920  0.00  0.00    +0.000 A 
ATOM      5  C   UNL     1      48.268   9.005  16.931  0.00  0.00    +0.000 A 
ATOM      6  C   UNL     1      48.106   8.542  18.234  0.00  0.00    +0.000 A 
ATOM      7  C   UNL     1      48.301   7.188  18.526  0.00  0.00    +0.000 A 
ATOM      8  C   UNL     1      48.672   6.260  17.541  0.00  0.00    +0.000 A 
ATOM      9  C   UNL     1      48.852   6.762  16.242  0.00  0.00    +0.000 A 
BRANCH   8  10
ATOM     10  N   UNL     1      48.824   4.923  17.827  0.00  0.00    +0.000 N 
ATOM     11  C   UNL     1      50.057   4.348  18.387  0.00  0.00    +0.000 C 
ATOM     12  C   UNL     1      50.549   3.206  17.487  0.00  0.00    +0.000 C 
ATOM     13  O   UNL     1      49.529   2.209  17.299  0.00  0.00    +0.000 OA
ATOM     14  C   UNL     1      48.363   2.792  16.695  0.00  0.00    +0.000 C 
ATOM     15  C   UNL     1      47.775   3.928  17.553  0.00  0.00    +0.000 C 
ENDBRANCH   8  10
ENDBRANCH   1   4
BRANCH   1  16
ATOM     16  C   UNL     1      49.028   7.355  13.570  0.00  0.00    +0.000 C 
BRANCH  16  21
ATOM     17  C   UNL     1      45.146   4.396  11.964  0.00  0.00    +0.000 A 
ATOM     18  C   UNL     1      45.947   4.320  13.096  0.00  0.00    +0.000 A 
ATOM     19  C   UNL     1      46.951   5.272  13.279  0.00  0.00    +0.000 A 
ATOM     20  C   UNL     1      47.148   6.271  12.328  0.00  0.00    +0.000 A 
ATOM     21  N   UNL     1      48.122   7.225  12.436  0.00  0.00    +0.000 N 
ATOM     22  N   UNL     1      46.379   6.346  11.226  0.00  0.00    +0.000 NA
ATOM     23  C   UNL     1      45.403   5.413  11.060  0.00  0.00    +0.000 A 
ATOM     24  H   UNL     1      48.180   7.871  11.656  0.00  0.00    +0.000 HD
BRANCH  17  26
ATOM     25  N   UNL     1      43.809   2.480  12.633  0.00  0.00    +0.000 N 
ATOM     26  C   UNL     1      44.074   3.422  11.678  0.00  0.00    +0.000 C 
ATOM     27  O   UNL     1      43.426   3.471  10.639  0.00  0.00    +0.000 OA
ATOM     28  H   UNL     1      43.011   1.881  12.462  0.00  0.00    +0.000 HD
ATOM     29  H   UNL     1      44.135   2.563  13.585  0.00  0.00    +0.000 HD
ENDBRANCH  17  26
ENDBRANCH  16  21
ENDBRANCH   1  16
TORSDOF 5
ENDMDL
