MODEL 1
REMARK VINA RESULT:    -7.981      0.000      0.000
REMARK INTER + INTRA:          -8.463
REMARK INTER:                  -9.380
REMARK INTRA:                   0.917
REMARK UNBOUND:                 0.917
REMARK  Name = 
REMARK  4 active torsions:
REMARK  status: ('A' for Active; 'I' for Inactive)
REMARK    1  A    between atoms: C_1  and  C_2
REMARK    2  A    between atoms: C_2  and  N_3
REMARK    3  A    between atoms: C_2  and  C_13
REMARK    4  A    between atoms: C_7  and  C_8
REMARK                            x       y       z     vdW  Elec       q    Type
REMARK                         _______ _______ _______ _____ _____    ______ ____
ROOT
ATOM      1  N   UNL     1      44.791   5.599  10.479  0.00  0.00    +0.000 N 
ATOM      2  C   UNL     1      45.412   5.295  11.700  0.00  0.00    +0.000 A 
ATOM      3  C   UNL     1      46.450   6.124  12.112  0.00  0.00    +0.000 A 
ATOM      4  C   UNL     1      47.139   5.839  13.288  0.00  0.00    +0.000 A 
ATOM      5  C   UNL     1      46.722   4.756  14.038  0.00  0.00    +0.000 A 
ATOM      6  N   UNL     1      45.684   3.976  13.655  0.00  0.00    +0.000 NA
ATOM      7  N   UNL     1      45.036   4.250  12.470  0.00  0.00    +0.000 NA
ATOM      8  H   UNL     1      44.189   6.407  10.627  0.00  0.00    +0.000 HD
ENDROOT
BRANCH   5   9
ATOM      9  C   UNL     1      47.414   4.397  15.306  0.00  0.00    +0.000 C 
ATOM     10  N   UNL     1      47.784   5.435  16.117  0.00  0.00    +0.000 N 
ATOM     11  O   UNL     1      47.644   3.230  15.612  0.00  0.00    +0.000 OA
ATOM     12  H   UNL     1      47.593   6.395  15.855  0.00  0.00    +0.000 HD
ATOM     13  H   UNL     1      48.257   5.233  16.986  0.00  0.00    +0.000 HD
ENDBRANCH   5   9
BRANCH   1  15
ATOM     14  C   UNL     1      43.393   3.599  10.884  0.00  0.00    +0.000 C 
ATOM     15  C   UNL     1      44.041   4.510   9.831  0.00  0.00    +0.000 C 
BRANCH  15  16
ATOM     16  C   UNL     1      45.009   3.697   8.965  0.00  0.00    +0.000 A 
ATOM     17  C   UNL     1      45.128   2.313   9.127  0.00  0.00    +0.000 A 
ATOM     18  C   UNL     1      46.015   1.606   8.319  0.00  0.00    +0.000 A 
ATOM     19  C   UNL     1      46.769   2.292   7.378  0.00  0.00    +0.000 A 
ATOM     20  C   UNL     1      46.605   3.664   7.284  0.00  0.00    +0.000 A 
ATOM     21  N   UNL     1      45.752   4.377   8.055  0.00  0.00    +0.000 NA
ENDBRANCH  15  16
ENDBRANCH   1  15
TORSDOF 3
ENDMDL
MODEL 2
REMARK VINA RESULT:    -7.720      2.868      6.131
REMARK INTER + INTRA:          -8.156
REMARK INTER:                  -8.831
REMARK INTRA:                   0.675
REMARK UNBOUND:                 0.917
REMARK  Name = 
REMARK  4 active torsions:
REMARK  status: ('A' for Active; 'I' for Inactive)
REMARK    1  A    between atoms: C_1  and  C_2
REMARK    2  A    between atoms: C_2  and  N_3
REMARK    3  A    between atoms: C_2  and  C_13
REMARK    4  A    between atoms: C_7  and  C_8
REMARK                            x       y       z     vdW  Elec       q    Type
REMARK                         _______ _______ _______ _____ _____    ______ ____
ROOT
ATOM      1  N   UNL     1      43.910   2.773  10.717  0.00  0.00    +0.000 N 
ATOM      2  C   UNL     1      44.725   2.821   9.576  0.00  0.00    +0.000 A 
ATOM      3  C   UNL     1      45.270   1.623   9.130  0.00  0.00    +0.000 A 
ATOM      4  C   UNL     1      46.130   1.617   8.036  0.00  0.00    +0.000 A 
ATOM      5  C   UNL     1      46.371   2.818   7.394  0.00  0.00    +0.000 A 
ATOM      6  N   UNL     1      45.805   3.976   7.806  0.00  0.00    +0.000 NA
ATOM      7  N   UNL     1      44.984   3.969   8.913  0.00  0.00    +0.000 NA
ATOM      8  H   UNL     1      43.011   2.378  10.443  0.00  0.00    +0.000 HD
ENDROOT
BRANCH   5   9
ATOM      9  C   UNL     1      47.279   2.883   6.217  0.00  0.00    +0.000 C 
ATOM     10  N   UNL     1      48.594   2.574   6.440  0.00  0.00    +0.000 N 
ATOM     11  O   UNL     1      46.875   3.198   5.101  0.00  0.00    +0.000 OA
ATOM     12  H   UNL     1      48.920   2.318   7.364  0.00  0.00    +0.000 HD
ATOM     13  H   UNL     1      49.243   2.607   5.667  0.00  0.00    +0.000 HD
ENDBRANCH   5   9
BRANCH   1  15
ATOM     14  C   UNL     1      43.372   5.174  10.469  0.00  0.00    +0.000 C 
ATOM     15  C   UNL     1      43.715   4.039  11.445  0.00  0.00    +0.000 C 
BRANCH  15  16
ATOM     16  C   UNL     1      45.007   4.373  12.198  0.00  0.00    +0.000 A 
ATOM     17  C   UNL     1      45.575   5.649  12.118  0.00  0.00    +0.000 A 
ATOM     18  C   UNL     1      46.747   5.917  12.819  0.00  0.00    +0.000 A 
ATOM     19  C   UNL     1      47.330   4.911  13.576  0.00  0.00    +0.000 A 
ATOM     20  C   UNL     1      46.716   3.671  13.598  0.00  0.00    +0.000 A 
ATOM     21  N   UNL     1      45.578   3.381  12.926  0.00  0.00    +0.000 NA
ENDBRANCH  15  16
ENDBRANCH   1  15
TORSDOF 3
ENDMDL
MODEL 3
REMARK VINA RESULT:    -7.619      2.946      7.170
REMARK INTER + INTRA:          -8.038
REMARK INTER:                  -7.591
REMARK INTRA:                  -0.447
REMARK UNBOUND:                 0.917
REMARK  Name = 
REMARK  4 active torsions:
REMARK  status: ('A' for Active; 'I' for Inactive)
REMARK    1  A    between atoms: C_1  and  C_2
REMARK    2  A    between atoms: C_2  and  N_3
REMARK    3  A    between atoms: C_2  and  C_13
REMARK    4  A    between atoms: C_7  and  C_8
REMARK                            x       y       z     vdW  Elec       q    Type
REMARK                         _______ _______ _______ _____ _____    ______ ____
ROOT
ATOM      1  N   UNL     1      47.647   5.244  15.631  0.00  0.00    +0.000 N 
ATOM      2  C   UNL     1      46.968   4.865  14.463  0.00  0.00    +0.000 A 
ATOM      3  C   UNL     1      46.698   5.860  13.531  0.00  0.00    +0.000 A 
ATOM      4  C   UNL     1      45.980   5.554  12.379  0.00  0.00    +0.000 A 
ATOM      5  C   UNL     1      45.601   4.240  12.180  0.00  0.00    +0.000 A 
ATOM      6  N   UNL     1      45.902   3.266  13.070  0.00  0.00    +0.000 NA
ATOM      7  N   UNL     1      46.583   3.593  14.223  0.00  0.00    +0.000 NA
ATOM      8  H   UNL     1      48.627   5.389  15.390  0.00  0.00    +0.000 HD
ENDROOT
BRANCH   5   9
ATOM      9  C   UNL     1      44.832   3.844  10.969  0.00  0.00    +0.000 C 
ATOM     10  N   UNL     1      44.873   2.520  10.624  0.00  0.00    +0.000 N 
ATOM     11  O   UNL     1      44.194   4.659  10.310  0.00  0.00    +0.000 OA
ATOM     12  H   UNL     1      45.404   1.854  11.171  0.00  0.00    +0.000 HD
ATOM     13  H   UNL     1      44.364   2.211   9.808  0.00  0.00    +0.000 HD
ENDBRANCH   5   9
BRANCH   1  15
ATOM     14  C   UNL     1      47.085   5.111  18.036  0.00  0.00    +0.000 C 
ATOM     15  C   UNL     1      47.531   4.337  16.787  0.00  0.00    +0.000 C 
BRANCH  15  16
ATOM     16  C   UNL     1      48.896   3.687  17.037  0.00  0.00    +0.000 A 
ATOM     17  C   UNL     1      49.923   4.395  17.669  0.00  0.00    +0.000 A 
ATOM     18  C   UNL     1      51.148   3.770  17.884  0.00  0.00    +0.000 A 
ATOM     19  C   UNL     1      51.326   2.462  17.459  0.00  0.00    +0.000 A 
ATOM     20  C   UNL     1      50.267   1.829  16.831  0.00  0.00    +0.000 A 
ATOM     21  N   UNL     1      49.066   2.411  16.608  0.00  0.00    +0.000 NA
ENDBRANCH  15  16
ENDBRANCH   1  15
TORSDOF 3
ENDMDL
MODEL 4
REMARK VINA RESULT:    -7.335      2.969      7.320
REMARK INTER + INTRA:          -7.704
REMARK INTER:                  -7.306
REMARK INTRA:                  -0.398
REMARK UNBOUND:                 0.917
REMARK  Name = 
REMARK  4 active torsions:
REMARK  status: ('A' for Active; 'I' for Inactive)
REMARK    1  A    between atoms: C_1  and  C_2
REMARK    2  A    between atoms: C_2  and  N_3
REMARK    3  A    between atoms: C_2  and  C_13
REMARK    4  A    between atoms: C_7  and  C_8
REMARK                            x       y       z     vdW  Elec       q    Type
REMARK                         _______ _______ _______ _____ _____    ______ ____
ROOT
ATOM      1  N   UNL     1      47.454   5.262  15.284  0.00  0.00    +0.000 N 
ATOM      2  C   UNL     1      46.678   4.738  14.240  0.00  0.00    +0.000 A 
ATOM      3  C   UNL     1      45.897   5.632  13.514  0.00  0.00    +0.000 A 
ATOM      4  C   UNL     1      45.065   5.162  12.503  0.00  0.00    +0.000 A 
ATOM      5  C   UNL     1      45.086   3.809  12.221  0.00  0.00    +0.000 A 
ATOM      6  N   UNL     1      45.878   2.948  12.902  0.00  0.00    +0.000 NA
ATOM      7  N   UNL     1      46.669   3.424  13.925  0.00  0.00    +0.000 NA
ATOM      8  H   UNL     1      48.253   5.740  14.870  0.00  0.00    +0.000 HD
ENDROOT
BRANCH   5   9
ATOM      9  C   UNL     1      44.222   3.240  11.151  0.00  0.00    +0.000 C 
ATOM     10  N   UNL     1      44.841   2.457  10.215  0.00  0.00    +0.000 N 
ATOM     11  O   UNL     1      43.015   3.461  11.105  0.00  0.00    +0.000 OA
ATOM     12  H   UNL     1      45.838   2.283  10.257  0.00  0.00    +0.000 HD
ATOM     13  H   UNL     1      44.289   2.053   9.471  0.00  0.00    +0.000 HD
ENDBRANCH   5   9
BRANCH   1  15
ATOM     14  C   UNL     1      46.966   4.352  17.532  0.00  0.00    +0.000 C 
ATOM     15  C   UNL     1      47.903   4.311  16.316  0.00  0.00    +0.000 C 
BRANCH  15  16
ATOM     16  C   UNL     1      49.325   4.687  16.742  0.00  0.00    +0.000 A 
ATOM     17  C   UNL     1      49.793   5.998  16.603  0.00  0.00    +0.000 A 
ATOM     18  C   UNL     1      51.091   6.304  17.006  0.00  0.00    +0.000 A 
ATOM     19  C   UNL     1      51.893   5.301  17.528  0.00  0.00    +0.000 A 
ATOM     20  C   UNL     1      51.364   4.025  17.625  0.00  0.00    +0.000 A 
ATOM     21  N   UNL     1      50.109   3.698  17.241  0.00  0.00    +0.000 NA
ENDBRANCH  15  16
ENDBRANCH   1  15
TORSDOF 3
ENDMDL
MODEL 5
REMARK VINA RESULT:    -7.106      2.852      4.320
REMARK INTER + INTRA:          -7.435
REMARK INTER:                  -7.079
REMARK INTRA:                  -0.356
REMARK UNBOUND:                 0.917
REMARK  Name = 
REMARK  4 active torsions:
REMARK  status: ('A' for Active; 'I' for Inactive)
REMARK    1  A    between atoms: C_1  and  C_2
REMARK    2  A    between atoms: C_2  and  N_3
REMARK    3  A    between atoms: C_2  and  C_13
REMARK    4  A    between atoms: C_7  and  C_8
REMARK                            x       y       z     vdW  Elec       q    Type
REMARK                         _______ _______ _______ _____ _____    ______ ____
ROOT
ATOM      1  N   UNL     1      46.838   6.242  13.825  0.00  0.00    +0.000 N 
ATOM      2  C   UNL     1      47.396   5.296  14.699  0.00  0.00    +0.000 A 
ATOM      3  C   UNL     1      47.931   5.768  15.893  0.00  0.00    +0.000 A 
ATOM      4  C   UNL     1      48.547   4.883  16.773  0.00  0.00    +0.000 A 
ATOM      5  C   UNL     1      48.556   3.541  16.443  0.00  0.00    +0.000 A 
ATOM      6  N   UNL     1      47.998   3.080  15.300  0.00  0.00    +0.000 NA
ATOM      7  N   UNL     1      47.424   3.975  14.422  0.00  0.00    +0.000 NA
ATOM      8  H   UNL     1      45.936   6.525  14.205  0.00  0.00    +0.000 HD
ENDROOT
BRANCH   5   9
ATOM      9  C   UNL     1      49.197   2.541  17.341  0.00  0.00    +0.000 C 
ATOM     10  N   UNL     1      49.064   2.753  18.687  0.00  0.00    +0.000 N 
ATOM     11  O   UNL     1      49.815   1.576  16.902  0.00  0.00    +0.000 OA
ATOM     12  H   UNL     1      48.556   3.554  19.041  0.00  0.00    +0.000 HD
ATOM     13  H   UNL     1      49.486   2.097  19.330  0.00  0.00    +0.000 HD
ENDBRANCH   5   9
BRANCH   1  15
ATOM     14  C   UNL     1      47.199   6.950  11.483  0.00  0.00    +0.000 C 
ATOM     15  C   UNL     1      46.698   5.838  12.415  0.00  0.00    +0.000 C 
BRANCH  15  16
ATOM     16  C   UNL     1      45.220   5.549  12.134  0.00  0.00    +0.000 A 
ATOM     17  C   UNL     1      44.785   5.223  10.846  0.00  0.00    +0.000 A 
ATOM     18  C   UNL     1      43.434   4.964  10.629  0.00  0.00    +0.000 A 
ATOM     19  C   UNL     1      42.549   5.041  11.694  0.00  0.00    +0.000 A 
ATOM     20  C   UNL     1      43.052   5.380  12.938  0.00  0.00    +0.000 A 
ATOM     21  N   UNL     1      44.358   5.639  13.179  0.00  0.00    +0.000 NA
ENDBRANCH  15  16
ENDBRANCH   1  15
TORSDOF 3
ENDMDL
MODEL 6
REMARK VINA RESULT:    -6.730      3.398      7.769
REMARK INTER + INTRA:          -6.993
REMARK INTER:                  -6.637
REMARK INTRA:                  -0.356
REMARK UNBOUND:                 0.917
REMARK  Name = 
REMARK  4 active torsions:
REMARK  status: ('A' for Active; 'I' for Inactive)
REMARK    1  A    between atoms: C_1  and  C_2
REMARK    2  A    between atoms: C_2  and  N_3
REMARK    3  A    between atoms: C_2  and  C_13
REMARK    4  A    between atoms: C_7  and  C_8
REMARK                            x       y       z     vdW  Elec       q    Type
REMARK                         _______ _______ _______ _____ _____    ______ ____
ROOT
ATOM      1  N   UNL     1      48.782   5.369  16.600  0.00  0.00    +0.000 N 
ATOM      2  C   UNL     1      47.980   4.987  15.514  0.00  0.00    +0.000 A 
ATOM      3  C   UNL     1      47.661   5.967  14.580  0.00  0.00    +0.000 A 
ATOM      4  C   UNL     1      46.823   5.660  13.511  0.00  0.00    +0.000 A 
ATOM      5  C   UNL     1      46.376   4.357  13.391  0.00  0.00    +0.000 A 
ATOM      6  N   UNL     1      46.723   3.396  14.279  0.00  0.00    +0.000 NA
ATOM      7  N   UNL     1      47.523   3.726  15.351  0.00  0.00    +0.000 NA
ATOM      8  H   UNL     1      49.738   5.467  16.263  0.00  0.00    +0.000 HD
ENDROOT
BRANCH   5   9
ATOM      9  C   UNL     1      45.480   3.961  12.271  0.00  0.00    +0.000 C 
ATOM     10  N   UNL     1      45.027   2.669  12.277  0.00  0.00    +0.000 N 
ATOM     11  O   UNL     1      45.161   4.748  11.385  0.00  0.00    +0.000 OA
ATOM     12  H   UNL     1      45.298   2.025  13.011  0.00  0.00    +0.000 HD
ATOM     13  H   UNL     1      44.417   2.360  11.534  0.00  0.00    +0.000 HD
ENDBRANCH   5   9
BRANCH   1  15
ATOM     14  C   UNL     1      48.652   5.344  19.070  0.00  0.00    +0.000 C 
ATOM     15  C   UNL     1      48.741   4.501  17.789  0.00  0.00    +0.000 C 
BRANCH  15  16
ATOM     16  C   UNL     1      50.013   3.647  17.815  0.00  0.00    +0.000 A 
ATOM     17  C   UNL     1      50.013   2.344  17.308  0.00  0.00    +0.000 A 
ATOM     18  C   UNL     1      51.190   1.600  17.344  0.00  0.00    +0.000 A 
ATOM     19  C   UNL     1      52.333   2.165  17.889  0.00  0.00    +0.000 A 
ATOM     20  C   UNL     1      52.253   3.456  18.381  0.00  0.00    +0.000 A 
ATOM     21  N   UNL     1      51.125   4.203  18.361  0.00  0.00    +0.000 NA
ENDBRANCH  15  16
ENDBRANCH   1  15
TORSDOF 3
ENDMDL
MODEL 7
REMARK VINA RESULT:    -6.662      3.164      5.296
REMARK INTER + INTRA:          -6.913
REMARK INTER:                  -6.741
REMARK INTRA:                  -0.172
REMARK UNBOUND:                 0.917
REMARK  Name = 
REMARK  4 active torsions:
REMARK  status: ('A' for Active; 'I' for Inactive)
REMARK    1  A    between atoms: C_1  and  C_2
REMARK    2  A    between atoms: C_2  and  N_3
REMARK    3  A    between atoms: C_2  and  C_13
REMARK    4  A    between atoms: C_7  and  C_8
REMARK                            x       y       z     vdW  Elec       q    Type
REMARK                         _______ _______ _______ _____ _____    ______ ____
ROOT
ATOM      1  N   UNL     1      46.378   4.427  15.501  0.00  0.00    +0.000 N 
ATOM      2  C   UNL     1      47.445   4.364  16.410  0.00  0.00    +0.000 A 
ATOM      3  C   UNL     1      47.176   4.699  17.733  0.00  0.00    +0.000 A 
ATOM      4  C   UNL     1      48.206   4.707  18.669  0.00  0.00    +0.000 A 
ATOM      5  C   UNL     1      49.467   4.327  18.249  0.00  0.00    +0.000 A 
ATOM      6  N   UNL     1      49.716   3.961  16.970  0.00  0.00    +0.000 NA
ATOM      7  N   UNL     1      48.692   3.993  16.048  0.00  0.00    +0.000 NA
ATOM      8  H   UNL     1      45.781   3.618  15.664  0.00  0.00    +0.000 HD
ENDROOT
BRANCH   5   9
ATOM      9  C   UNL     1      50.613   4.312  19.198  0.00  0.00    +0.000 C 
ATOM     10  N   UNL     1      50.329   4.601  20.506  0.00  0.00    +0.000 N 
ATOM     11  O   UNL     1      51.757   4.058  18.832  0.00  0.00    +0.000 OA
ATOM     12  H   UNL     1      49.384   4.813  20.799  0.00  0.00    +0.000 HD
ATOM     13  H   UNL     1      51.080   4.602  21.181  0.00  0.00    +0.000 HD
ENDBRANCH   5   9
BRANCH   1  15
ATOM     14  C   UNL     1      47.417   5.870  13.781  0.00  0.00    +0.000 C 
ATOM     15  C   UNL     1      46.732   4.527  14.074  0.00  0.00    +0.000 C 
BRANCH  15  16
ATOM     16  C   UNL     1      45.450   4.405  13.244  0.00  0.00    +0.000 A 
ATOM     17  C   UNL     1      44.612   5.508  13.050  0.00  0.00    +0.000 A 
ATOM     18  C   UNL     1      43.458   5.361  12.286  0.00  0.00    +0.000 A 
ATOM     19  C   UNL     1      43.160   4.121  11.740  0.00  0.00    +0.000 A 
ATOM     20  C   UNL     1      44.031   3.073  11.984  0.00  0.00    +0.000 A 
ATOM     21  N   UNL     1      45.159   3.186  12.723  0.00  0.00    +0.000 NA
ENDBRANCH  15  16
ENDBRANCH   1  15
TORSDOF 3
ENDMDL
MODEL 8
REMARK VINA RESULT:    -6.437      3.459      7.418
REMARK INTER + INTRA:          -6.649
REMARK INTER:                  -6.244
REMARK INTRA:                  -0.405
REMARK UNBOUND:                 0.917
REMARK  Name = 
REMARK  4 active torsions:
REMARK  status: ('A' for Active; 'I' for Inactive)
REMARK    1  A    between atoms: C_1  and  C_2
REMARK    2  A    between atoms: C_2  and  N_3
REMARK    3  A    between atoms: C_2  and  C_13
REMARK    4  A    between atoms: C_7  and  C_8
REMARK                            x       y       z     vdW  Elec       q    Type
REMARK                         _______ _______ _______ _____ _____    ______ ____
ROOT
ATOM      1  N   UNL     1      48.692   6.942  14.522  0.00  0.00    +0.000 N 
ATOM      2  C   UNL     1      47.742   6.039  14.022  0.00  0.00    +0.000 A 
ATOM      3  C   UNL     1      47.185   6.322  12.779  0.00  0.00    +0.000 A 
ATOM      4  C   UNL     1      46.198   5.491  12.257  0.00  0.00    +0.000 A 
ATOM      5  C   UNL     1      45.842   4.371  12.984  0.00  0.00    +0.000 A 
ATOM      6  N   UNL     1      46.416   4.076  14.174  0.00  0.00    +0.000 NA
ATOM      7  N   UNL     1      47.366   4.929  14.693  0.00  0.00    +0.000 NA
ATOM      8  H   UNL     1      49.562   6.795  14.014  0.00  0.00    +0.000 HD
ENDROOT
BRANCH   5   9
ATOM      9  C   UNL     1      44.794   3.440  12.483  0.00  0.00    +0.000 C 
ATOM     10  N   UNL     1      45.055   2.805  11.298  0.00  0.00    +0.000 N 
ATOM     11  O   UNL     1      43.748   3.249  13.096  0.00  0.00    +0.000 OA
ATOM     12  H   UNL     1      45.919   2.971  10.797  0.00  0.00    +0.000 HD
ATOM     13  H   UNL     1      44.368   2.166  10.924  0.00  0.00    +0.000 HD
ENDBRANCH   5   9
BRANCH   1  15
ATOM     14  C   UNL     1      48.587   8.266  16.610  0.00  0.00    +0.000 C 
ATOM     15  C   UNL     1      48.932   6.910  15.975  0.00  0.00    +0.000 C 
BRANCH  15  16
ATOM     16  C   UNL     1      50.410   6.584  16.219  0.00  0.00    +0.000 A 
ATOM     17  C   UNL     1      51.420   7.379  15.669  0.00  0.00    +0.000 A 
ATOM     18  C   UNL     1      52.752   7.054  15.915  0.00  0.00    +0.000 A 
ATOM     19  C   UNL     1      53.046   5.945  16.694  0.00  0.00    +0.000 A 
ATOM     20  C   UNL     1      51.993   5.199  17.194  0.00  0.00    +0.000 A 
ATOM     21  N   UNL     1      50.690   5.490  16.971  0.00  0.00    +0.000 NA
ENDBRANCH  15  16
ENDBRANCH   1  15
TORSDOF 3
ENDMDL
MODEL 9
REMARK VINA RESULT:    -6.107      3.214      6.642
REMARK INTER + INTRA:          -6.260
REMARK INTER:                  -5.858
REMARK INTRA:                  -0.402
REMARK UNBOUND:                 0.917
REMARK  Name = 
REMARK  4 active torsions:
REMARK  status: ('A' for Active; 'I' for Inactive)
REMARK    1  A    between atoms: C_1  and  C_2
REMARK    2  A    between atoms: C_2  and  N_3
REMARK    3  A    between atoms: C_2  and  C_13
REMARK    4  A    between atoms: C_7  and  C_8
REMARK                            x       y       z     vdW  Elec       q    Type
REMARK                         _______ _______ _______ _____ _____    ______ ____
ROOT
ATOM      1  N   UNL     1      47.676   7.574  12.264  0.00  0.00    +0.000 N 
ATOM      2  C   UNL     1      46.696   6.572  12.201  0.00  0.00    +0.000 A 
ATOM      3  C   UNL     1      46.331   6.115  10.939  0.00  0.00    +0.000 A 
ATOM      4  C   UNL     1      45.326   5.160  10.812  0.00  0.00    +0.000 A 
ATOM      5  C   UNL     1      44.758   4.659  11.967  0.00  0.00    +0.000 A 
ATOM      6  N   UNL     1      45.145   5.075  13.195  0.00  0.00    +0.000 NA
ATOM      7  N   UNL     1      46.116   6.048  13.302  0.00  0.00    +0.000 NA
ATOM      8  H   UNL     1      48.579   7.142  12.076  0.00  0.00    +0.000 HD
ENDROOT
BRANCH   5   9
ATOM      9  C   UNL     1      43.679   3.635  11.903  0.00  0.00    +0.000 C 
ATOM     10  N   UNL     1      43.877   2.491  12.626  0.00  0.00    +0.000 N 
ATOM     11  O   UNL     1      42.663   3.804  11.234  0.00  0.00    +0.000 OA
ATOM     12  H   UNL     1      44.719   2.358  13.172  0.00  0.00    +0.000 HD
ATOM     13  H   UNL     1      43.168   1.771  12.608  0.00  0.00    +0.000 HD
ENDBRANCH   5   9
BRANCH   1  15
ATOM     14  C   UNL     1      47.849   9.863  13.187  0.00  0.00    +0.000 C 
ATOM     15  C   UNL     1      47.732   8.365  13.506  0.00  0.00    +0.000 C 
BRANCH  15  16
ATOM     16  C   UNL     1      48.948   7.910  14.320  0.00  0.00    +0.000 A 
ATOM     17  C   UNL     1      50.234   8.360  14.001  0.00  0.00    +0.000 A 
ATOM     18  C   UNL     1      51.315   7.929  14.766  0.00  0.00    +0.000 A 
ATOM     19  C   UNL     1      51.094   7.056  15.821  0.00  0.00    +0.000 A 
ATOM     20  C   UNL     1      49.795   6.646  16.069  0.00  0.00    +0.000 A 
ATOM     21  N   UNL     1      48.726   7.047  15.343  0.00  0.00    +0.000 NA
ENDBRANCH  15  16
ENDBRANCH   1  15
TORSDOF 3
ENDMDL
