MODEL 1
REMARK VINA RESULT:    -9.445      0.000      0.000
REMARK INTER + INTRA:         -13.275
REMARK INTER:                 -12.206
REMARK INTRA:                  -1.069
REMARK UNBOUND:                -1.069
REMARK  Name = 
REMARK  5 active torsions:
REMARK  status: ('A' for Active; 'I' for Inactive)
REMARK    1  A    between atoms: C_2  and  C_3
REMARK    2  A    between atoms: C_7  and  C_8
REMARK    3  A    between atoms: C_12  and  C_13
REMARK    4  A    between atoms: C_13  and  N_14
REMARK    5  A    between atoms: C_18  and  C_19
REMARK                            x       y       z     vdW  Elec       q    Type
REMARK                         _______ _______ _______ _____ _____    ______ ____
ROOT
ATOM      1  C   UNL     1      43.929   5.105  11.162  0.00  0.00    +0.000 C 
ATOM      2  C   UNL     1      42.672   5.862  11.599  0.00  0.00    +0.000 C 
ATOM      3  C   UNL     1      42.701   4.376  11.672  0.00  0.00    +0.000 C 
ENDROOT
BRANCH   1   4
ATOM      4  N   UNL     1      44.256   5.112   9.724  0.00  0.00    +0.000 N 
ATOM      5  C   UNL     1      45.051   4.149   9.091  0.00  0.00    +0.000 A 
ATOM      6  C   UNL     1      45.050   2.803   9.447  0.00  0.00    +0.000 A 
ATOM      7  C   UNL     1      45.766   1.878   8.684  0.00  0.00    +0.000 A 
ATOM      8  C   UNL     1      46.485   2.322   7.582  0.00  0.00    +0.000 A 
ATOM      9  C   UNL     1      46.476   3.682   7.315  0.00  0.00    +0.000 A 
ATOM     10  N   UNL     1      45.766   4.591   8.035  0.00  0.00    +0.000 NA
ATOM     11  H   UNL     1      44.540   6.006   9.326  0.00  0.00    +0.000 HD
BRANCH   8  12
ATOM     12  C   UNL     1      47.255   1.417   6.702  0.00  0.00    +0.000 C 
ATOM     13  N   UNL     1      48.282   1.965   5.981  0.00  0.00    +0.000 N 
ATOM     14  O   UNL     1      47.012   0.221   6.648  0.00  0.00    +0.000 OA
ATOM     15  H   UNL     1      48.665   2.878   6.177  0.00  0.00    +0.000 HD
ATOM     16  H   UNL     1      48.863   1.317   5.463  0.00  0.00    +0.000 HD
ENDBRANCH   8  12
ENDBRANCH   1   4
BRANCH   1  21
ATOM     17  C   UNL     1      47.209   6.659  12.494  0.00  0.00    +0.000 A 
ATOM     18  C   UNL     1      47.412   5.880  13.643  0.00  0.00    +0.000 A 
ATOM     19  C   UNL     1      46.514   4.869  14.003  0.00  0.00    +0.000 A 
ATOM     20  C   UNL     1      45.391   4.607  13.217  0.00  0.00    +0.000 A 
ATOM     21  C   UNL     1      45.140   5.349  12.059  0.00  0.00    +0.000 A 
ATOM     22  C   UNL     1      46.072   6.359  11.722  0.00  0.00    +0.000 A 
BRANCH  17  27
ATOM     23  C   UNL     1      50.352   8.552  11.448  0.00  0.00    +0.000 A 
ATOM     24  C   UNL     1      49.896   9.871  11.428  0.00  0.00    +0.000 A 
ATOM     25  C   UNL     1      48.569  10.144  11.742  0.00  0.00    +0.000 A 
ATOM     26  C   UNL     1      47.698   9.101  12.070  0.00  0.00    +0.000 A 
ATOM     27  C   UNL     1      48.128   7.759  12.109  0.00  0.00    +0.000 A 
ATOM     28  C   UNL     1      49.476   7.511  11.792  0.00  0.00    +0.000 A 
BRANCH  23  30
ATOM     29  N   UNL     1      52.824   8.027  10.861  0.00  0.00    +0.000 NA
ATOM     30  C   UNL     1      51.718   8.262  11.125  0.00  0.00    +0.000 C 
ENDBRANCH  23  30
ENDBRANCH  17  27
ENDBRANCH   1  21
TORSDOF 5
ENDMDL
MODEL 2
REMARK VINA RESULT:    -8.630      2.901      4.635
REMARK INTER + INTRA:         -12.222
REMARK INTER:                 -11.324
REMARK INTRA:                  -0.898
REMARK UNBOUND:                -1.069
REMARK  Name = 
REMARK  5 active torsions:
REMARK  status: ('A' for Active; 'I' for Inactive)
REMARK    1  A    between atoms: C_2  and  C_3
REMARK    2  A    between atoms: C_7  and  C_8
REMARK    3  A    between atoms: C_12  and  C_13
REMARK    4  A    between atoms: C_13  and  N_14
REMARK    5  A    between atoms: C_18  and  C_19
REMARK                            x       y       z     vdW  Elec       q    Type
REMARK                         _______ _______ _______ _____ _____    ______ ____
ROOT
ATOM      1  C   UNL     1      44.312   4.892  11.640  0.00  0.00    +0.000 C 
ATOM      2  C   UNL     1      42.987   5.297  12.289  0.00  0.00    +0.000 C 
ATOM      3  C   UNL     1      43.388   3.865  12.265  0.00  0.00    +0.000 C 
ENDROOT
BRANCH   1   4
ATOM      4  N   UNL     1      44.414   5.019  10.175  0.00  0.00    +0.000 N 
ATOM      5  C   UNL     1      45.170   4.168   9.360  0.00  0.00    +0.000 A 
ATOM      6  C   UNL     1      45.321   2.807   9.607  0.00  0.00    +0.000 A 
ATOM      7  C   UNL     1      45.977   1.996   8.679  0.00  0.00    +0.000 A 
ATOM      8  C   UNL     1      46.485   2.568   7.519  0.00  0.00    +0.000 A 
ATOM      9  C   UNL     1      46.336   3.937   7.362  0.00  0.00    +0.000 A 
ATOM     10  N   UNL     1      45.680   4.736   8.246  0.00  0.00    +0.000 NA
ATOM     11  H   UNL     1      44.568   5.957   9.809  0.00  0.00    +0.000 HD
BRANCH   8  12
ATOM     12  C   UNL     1      47.175   1.789   6.469  0.00  0.00    +0.000 C 
ATOM     13  N   UNL     1      47.914   2.487   5.553  0.00  0.00    +0.000 N 
ATOM     14  O   UNL     1      47.120   0.570   6.441  0.00  0.00    +0.000 OA
ATOM     15  H   UNL     1      48.180   3.453   5.682  0.00  0.00    +0.000 HD
ATOM     16  H   UNL     1      48.461   1.936   4.903  0.00  0.00    +0.000 HD
ENDBRANCH   8  12
ENDBRANCH   1   4
BRANCH   1  21
ATOM     17  C   UNL     1      47.064   5.205  14.338  0.00  0.00    +0.000 A 
ATOM     18  C   UNL     1      47.801   6.284  13.826  0.00  0.00    +0.000 A 
ATOM     19  C   UNL     1      47.436   6.911  12.629  0.00  0.00    +0.000 A 
ATOM     20  C   UNL     1      46.319   6.476  11.916  0.00  0.00    +0.000 A 
ATOM     21  C   UNL     1      45.545   5.408  12.379  0.00  0.00    +0.000 A 
ATOM     22  C   UNL     1      45.939   4.802  13.595  0.00  0.00    +0.000 A 
BRANCH  17  27
ATOM     23  C   UNL     1      47.895   4.520  17.998  0.00  0.00    +0.000 A 
ATOM     24  C   UNL     1      48.242   3.168  17.962  0.00  0.00    +0.000 A 
ATOM     25  C   UNL     1      48.196   2.478  16.756  0.00  0.00    +0.000 A 
ATOM     26  C   UNL     1      47.799   3.136  15.588  0.00  0.00    +0.000 A 
ATOM     27  C   UNL     1      47.450   4.502  15.587  0.00  0.00    +0.000 A 
ATOM     28  C   UNL     1      47.511   5.177  16.820  0.00  0.00    +0.000 A 
BRANCH  23  30
ATOM     29  N   UNL     1      47.974   5.819  20.242  0.00  0.00    +0.000 NA
ATOM     30  C   UNL     1      47.940   5.238  19.237  0.00  0.00    +0.000 C 
ENDBRANCH  23  30
ENDBRANCH  17  27
ENDBRANCH   1  21
TORSDOF 5
ENDMDL
MODEL 3
REMARK VINA RESULT:    -6.860      4.178      8.215
REMARK INTER + INTRA:          -9.933
REMARK INTER:                  -8.838
REMARK INTRA:                  -1.095
REMARK UNBOUND:                -1.069
REMARK  Name = 
REMARK  5 active torsions:
REMARK  status: ('A' for Active; 'I' for Inactive)
REMARK    1  A    between atoms: C_2  and  C_3
REMARK    2  A    between atoms: C_7  and  C_8
REMARK    3  A    between atoms: C_12  and  C_13
REMARK    4  A    between atoms: C_13  and  N_14
REMARK    5  A    between atoms: C_18  and  C_19
REMARK                            x       y       z     vdW  Elec       q    Type
REMARK                         _______ _______ _______ _____ _____    ______ ____
ROOT
ATOM      1  C   UNL     1      49.096   8.424  12.619  0.00  0.00    +0.000 C 
ATOM      2  C   UNL     1      49.859   9.198  11.540  0.00  0.00    +0.000 C 
ATOM      3  C   UNL     1      50.140   7.752  11.748  0.00  0.00    +0.000 C 
ENDROOT
BRANCH   1   4
ATOM      4  N   UNL     1      49.391   8.757  14.024  0.00  0.00    +0.000 N 
ATOM      5  C   UNL     1      48.969   7.994  15.120  0.00  0.00    +0.000 A 
ATOM      6  C   UNL     1      48.881   6.605  15.097  0.00  0.00    +0.000 A 
ATOM      7  C   UNL     1      48.584   5.903  16.267  0.00  0.00    +0.000 A 
ATOM      8  C   UNL     1      48.365   6.610  17.443  0.00  0.00    +0.000 A 
ATOM      9  C   UNL     1      48.424   7.993  17.381  0.00  0.00    +0.000 A 
ATOM     10  N   UNL     1      48.735   8.689  16.254  0.00  0.00    +0.000 NA
ATOM     11  H   UNL     1      49.258   9.729  14.300  0.00  0.00    +0.000 HD
BRANCH   8  12
ATOM     12  C   UNL     1      48.065   5.955  18.734  0.00  0.00    +0.000 C 
ATOM     13  N   UNL     1      46.770   5.574  18.959  0.00  0.00    +0.000 N 
ATOM     14  O   UNL     1      48.943   5.729  19.553  0.00  0.00    +0.000 OA
ATOM     15  H   UNL     1      46.077   5.521  18.226  0.00  0.00    +0.000 HD
ATOM     16  H   UNL     1      46.599   5.038  19.801  0.00  0.00    +0.000 HD
ENDBRANCH   8  12
ENDBRANCH   1   4
BRANCH   1  21
ATOM     17  C   UNL     1      45.762   6.863  11.438  0.00  0.00    +0.000 A 
ATOM     18  C   UNL     1      44.869   7.897  11.756  0.00  0.00    +0.000 A 
ATOM     19  C   UNL     1      45.314   9.085  12.347  0.00  0.00    +0.000 A 
ATOM     20  C   UNL     1      46.668   9.270  12.629  0.00  0.00    +0.000 A 
ATOM     21  C   UNL     1      47.604   8.275  12.332  0.00  0.00    +0.000 A 
ATOM     22  C   UNL     1      47.119   7.090  11.730  0.00  0.00    +0.000 A 
BRANCH  17  27
ATOM     23  C   UNL     1      45.296   3.973   8.991  0.00  0.00    +0.000 A 
ATOM     24  C   UNL     1      44.402   3.155   9.684  0.00  0.00    +0.000 A 
ATOM     25  C   UNL     1      43.960   3.535  10.947  0.00  0.00    +0.000 A 
ATOM     26  C   UNL     1      44.415   4.727  11.519  0.00  0.00    +0.000 A 
ATOM     27  C   UNL     1      45.310   5.580  10.843  0.00  0.00    +0.000 A 
ATOM     28  C   UNL     1      45.737   5.174   9.565  0.00  0.00    +0.000 A 
BRANCH  23  30
ATOM     29  N   UNL     1      46.128   3.275   6.635  0.00  0.00    +0.000 NA
ATOM     30  C   UNL     1      45.756   3.588   7.689  0.00  0.00    +0.000 C 
ENDBRANCH  23  30
ENDBRANCH  17  27
ENDBRANCH   1  21
TORSDOF 5
ENDMDL
MODEL 4
REMARK VINA RESULT:    -6.753      5.475      8.459
REMARK INTER + INTRA:          -9.795
REMARK INTER:                  -8.801
REMARK INTRA:                  -0.994
REMARK UNBOUND:                -1.069
REMARK  Name = 
REMARK  5 active torsions:
REMARK  status: ('A' for Active; 'I' for Inactive)
REMARK    1  A    between atoms: C_2  and  C_3
REMARK    2  A    between atoms: C_7  and  C_8
REMARK    3  A    between atoms: C_12  and  C_13
REMARK    4  A    between atoms: C_13  and  N_14
REMARK    5  A    between atoms: C_18  and  C_19
REMARK                            x       y       z     vdW  Elec       q    Type
REMARK                         _______ _______ _______ _____ _____    ______ ____
ROOT
ATOM      1  C   UNL     1      49.155   6.404  17.249  0.00  0.00    +0.000 C 
ATOM      2  C   UNL     1      48.310   7.384  18.067  0.00  0.00    +0.000 C 
ATOM      3  C   UNL     1      49.774   7.288  18.315  0.00  0.00    +0.000 C 
ENDROOT
BRANCH   1   4
ATOM      4  N   UNL     1      48.947   4.966  17.493  0.00  0.00    +0.000 N 
ATOM      5  C   UNL     1      49.966   4.005  17.465  0.00  0.00    +0.000 A 
ATOM      6  C   UNL     1      51.263   4.254  17.903  0.00  0.00    +0.000 A 
ATOM      7  C   UNL     1      52.191   3.212  17.971  0.00  0.00    +0.000 A 
ATOM      8  C   UNL     1      51.803   1.935  17.584  0.00  0.00    +0.000 A 
ATOM      9  C   UNL     1      50.509   1.772  17.117  0.00  0.00    +0.000 A 
ATOM     10  N   UNL     1      49.588   2.772  17.066  0.00  0.00    +0.000 NA
ATOM     11  H   UNL     1      48.152   4.535  17.025  0.00  0.00    +0.000 HD
BRANCH   8  12
ATOM     12  C   UNL     1      52.705   0.765  17.641  0.00  0.00    +0.000 C 
ATOM     13  N   UNL     1      52.340  -0.270  18.459  0.00  0.00    +0.000 N 
ATOM     14  O   UNL     1      53.716   0.706  16.959  0.00  0.00    +0.000 OA
ATOM     15  H   UNL     1      51.411  -0.366  18.844  0.00  0.00    +0.000 HD
ATOM     16  H   UNL     1      52.913  -1.104  18.411  0.00  0.00    +0.000 HD
ENDBRANCH   8  12
ENDBRANCH   1   4
BRANCH   1  21
ATOM     17  C   UNL     1      48.246   6.609  13.497  0.00  0.00    +0.000 A 
ATOM     18  C   UNL     1      49.331   7.355  13.012  0.00  0.00    +0.000 A 
ATOM     19  C   UNL     1      50.347   7.798  13.866  0.00  0.00    +0.000 A 
ATOM     20  C   UNL     1      50.306   7.501  15.228  0.00  0.00    +0.000 A 
ATOM     21  C   UNL     1      49.250   6.759  15.767  0.00  0.00    +0.000 A 
ATOM     22  C   UNL     1      48.244   6.322  14.874  0.00  0.00    +0.000 A 
BRANCH  17  27
ATOM     23  C   UNL     1      45.250   4.661  12.160  0.00  0.00    +0.000 A 
ATOM     24  C   UNL     1      45.057   5.257  10.913  0.00  0.00    +0.000 A 
ATOM     25  C   UNL     1      45.889   6.296  10.511  0.00  0.00    +0.000 A 
ATOM     26  C   UNL     1      46.910   6.743  11.357  0.00  0.00    +0.000 A 
ATOM     27  C   UNL     1      47.138   6.157  12.618  0.00  0.00    +0.000 A 
ATOM     28  C   UNL     1      46.285   5.104  12.997  0.00  0.00    +0.000 A 
BRANCH  23  30
ATOM     29  N   UNL     1      43.704   2.721  12.921  0.00  0.00    +0.000 NA
ATOM     30  C   UNL     1      44.397   3.589  12.581  0.00  0.00    +0.000 C 
ENDBRANCH  23  30
ENDBRANCH  17  27
ENDBRANCH   1  21
TORSDOF 5
ENDMDL
