MODEL 1
REMARK VINA RESULT:    -8.212      0.000      0.000
REMARK INTER + INTRA:         -13.102
REMARK INTER:                 -12.053
REMARK INTRA:                  -1.049
REMARK UNBOUND:                -1.049
REMARK  Name = 
REMARK  9 active torsions:
REMARK  status: ('A' for Active; 'I' for Inactive)
REMARK    1  A    between atoms: C_1  and  C_2
REMARK    2  A    between atoms: C_2  and  O_3
REMARK    3  A    between atoms: O_3  and  C_4
REMARK    4  A    between atoms: C_4  and  N_5
REMARK    5  A    between atoms: C_4  and  C_18
REMARK    6  A    between atoms: C_6  and  C_8
REMARK    7  A    between atoms: C_21  and  C_22
REMARK    8  A    between atoms: C_22  and  N_23
REMARK    9  A    between atoms: C_24  and  C_26
REMARK                            x       y       z     vdW  Elec       q    Type
REMARK                         _______ _______ _______ _____ _____    ______ ____
ROOT
ATOM      1  C   UNL     1      46.952   8.039  13.060  0.00  0.00    +0.000 C 
ENDROOT
BRANCH   1   2
ATOM      2  C   UNL     1      46.080   6.976  12.409  0.00  0.00    +0.000 A 
ATOM      3  C   UNL     1      45.068   6.341  13.143  0.00  0.00    +0.000 A 
ATOM      4  C   UNL     1      44.375   5.253  12.602  0.00  0.00    +0.000 A 
ATOM      5  C   UNL     1      44.675   4.781  11.316  0.00  0.00    +0.000 A 
ATOM      6  C   UNL     1      45.642   5.451  10.559  0.00  0.00    +0.000 A 
ATOM      7  C   UNL     1      46.344   6.527  11.106  0.00  0.00    +0.000 A 
BRANCH   5   8
ATOM      8  C   UNL     1      43.998   3.556  10.762  0.00  0.00    +0.000 C 
BRANCH   8   9
ATOM      9  N   UNL     1      44.896   2.731   9.995  0.00  0.00    +0.000 N 
ATOM     10  C   UNL     1      45.058   2.952   8.648  0.00  0.00    +0.000 C 
ATOM     11  O   UNL     1      44.447   3.824   8.046  0.00  0.00    +0.000 OA
ATOM     12  H   UNL     1      45.470   2.058  10.480  0.00  0.00    +0.000 HD
BRANCH  10  13
ATOM     13  C   UNL     1      45.995   2.082   7.986  0.00  0.00    +0.000 A 
ATOM     14  C   UNL     1      46.990   2.290   7.051  0.00  0.00    +0.000 A 
ATOM     15  C   UNL     1      47.552   1.019   6.821  0.00  0.00    +0.000 A 
ATOM     16  N   UNL     1      46.969   0.068   7.551  0.00  0.00    +0.000 NA
ATOM     17  N   UNL     1      46.033   0.735   8.248  0.00  0.00    +0.000 N 
ATOM     18  H   UNL     1      45.442   0.222   8.893  0.00  0.00    +0.000 HD
ENDBRANCH  10  13
ENDBRANCH   8   9
ENDBRANCH   5   8
ENDBRANCH   1   2
BRANCH   1  19
ATOM     19  N   UNL     1      47.397   7.623  14.356  0.00  0.00    +0.000 N 
ATOM     20  C   UNL     1      48.513   6.856  14.543  0.00  0.00    +0.000 C 
ATOM     21  O   UNL     1      49.298   6.600  13.634  0.00  0.00    +0.000 OA
ATOM     22  H   UNL     1      46.706   7.707  15.087  0.00  0.00    +0.000 HD
BRANCH  20  23
ATOM     23  C   UNL     1      48.747   6.373  15.912  0.00  0.00    +0.000 A 
ATOM     24  C   UNL     1      49.559   7.091  16.782  0.00  0.00    +0.000 A 
ATOM     25  S   UNL     1      49.762   6.341  18.302  0.00  0.00    +0.000 S 
ATOM     26  C   UNL     1      48.809   5.010  17.835  0.00  0.00    +0.000 A 
ATOM     27  N   UNL     1      48.632   3.945  18.665  0.00  0.00    +0.000 NA
ATOM     28  C   UNL     1      47.920   2.992  18.163  0.00  0.00    +0.000 A 
ATOM     29  N   UNL     1      47.348   3.016  16.918  0.00  0.00    +0.000 N 
ATOM     30  C   UNL     1      47.425   4.107  16.089  0.00  0.00    +0.000 A 
ATOM     31  O   UNL     1      46.764   4.163  15.058  0.00  0.00    +0.000 OA
ATOM     32  C   UNL     1      48.287   5.170  16.565  0.00  0.00    +0.000 A 
ATOM     33  H   UNL     1      46.755   2.261  16.605  0.00  0.00    +0.000 HD
ENDBRANCH  20  23
ENDBRANCH   1  19
BRANCH   1  34
ATOM     34  O   UNL     1      46.183   9.230  13.280  0.00  0.00    +0.000 OA
BRANCH  34  36
ATOM     35  C   UNL     1      44.622  10.159  11.700  0.00  0.00    +0.000 C 
ATOM     36  C   UNL     1      46.078  10.033  12.102  0.00  0.00    +0.000 C 
ENDBRANCH  34  36
ENDBRANCH   1  34
TORSDOF 8
ENDMDL
MODEL 2
REMARK VINA RESULT:    -7.852      2.562      4.861
REMARK INTER + INTRA:         -12.574
REMARK INTER:                 -11.252
REMARK INTRA:                  -1.321
REMARK UNBOUND:                -1.049
REMARK  Name = 
REMARK  9 active torsions:
REMARK  status: ('A' for Active; 'I' for Inactive)
REMARK    1  A    between atoms: C_1  and  C_2
REMARK    2  A    between atoms: C_2  and  O_3
REMARK    3  A    between atoms: O_3  and  C_4
REMARK    4  A    between atoms: C_4  and  N_5
REMARK    5  A    between atoms: C_4  and  C_18
REMARK    6  A    between atoms: C_6  and  C_8
REMARK    7  A    between atoms: C_21  and  C_22
REMARK    8  A    between atoms: C_22  and  N_23
REMARK    9  A    between atoms: C_24  and  C_26
REMARK                            x       y       z     vdW  Elec       q    Type
REMARK                         _______ _______ _______ _____ _____    ______ ____
ROOT
ATOM      1  C   UNL     1      47.228   5.547  14.473  0.00  0.00    +0.000 C 
ENDROOT
BRANCH   1   2
ATOM      2  C   UNL     1      46.312   5.180  13.315  0.00  0.00    +0.000 A 
ATOM      3  C   UNL     1      45.936   3.846  13.104  0.00  0.00    +0.000 A 
ATOM      4  C   UNL     1      45.231   3.482  11.951  0.00  0.00    +0.000 A 
ATOM      5  C   UNL     1      44.885   4.443  10.990  0.00  0.00    +0.000 A 
ATOM      6  C   UNL     1      45.207   5.784  11.229  0.00  0.00    +0.000 A 
ATOM      7  C   UNL     1      45.924   6.144  12.372  0.00  0.00    +0.000 A 
BRANCH   5   8
ATOM      8  C   UNL     1      44.208   4.046   9.706  0.00  0.00    +0.000 C 
BRANCH   8   9
ATOM      9  N   UNL     1      45.146   3.819   8.637  0.00  0.00    +0.000 N 
ATOM     10  C   UNL     1      45.573   2.543   8.349  0.00  0.00    +0.000 C 
ATOM     11  O   UNL     1      45.200   1.566   8.985  0.00  0.00    +0.000 OA
ATOM     12  H   UNL     1      45.408   4.594   8.047  0.00  0.00    +0.000 HD
BRANCH  10  13
ATOM     13  C   UNL     1      46.493   2.431   7.249  0.00  0.00    +0.000 A 
ATOM     14  C   UNL     1      46.662   3.136   6.073  0.00  0.00    +0.000 A 
ATOM     15  C   UNL     1      47.756   2.525   5.430  0.00  0.00    +0.000 A 
ATOM     16  N   UNL     1      48.256   1.509   6.135  0.00  0.00    +0.000 NA
ATOM     17  N   UNL     1      47.477   1.474   7.231  0.00  0.00    +0.000 N 
ATOM     18  H   UNL     1      47.660   0.773   7.941  0.00  0.00    +0.000 HD
ENDBRANCH  10  13
ENDBRANCH   8   9
ENDBRANCH   5   8
ENDBRANCH   1   2
BRANCH   1  19
ATOM     19  N   UNL     1      48.383   6.260  14.016  0.00  0.00    +0.000 N 
ATOM     20  C   UNL     1      48.951   7.281  14.725  0.00  0.00    +0.000 C 
ATOM     21  O   UNL     1      48.611   7.557  15.873  0.00  0.00    +0.000 OA
ATOM     22  H   UNL     1      48.591   6.142  13.035  0.00  0.00    +0.000 HD
BRANCH  20  23
ATOM     23  C   UNL     1      50.027   8.021  14.050  0.00  0.00    +0.000 A 
ATOM     24  C   UNL     1      51.327   7.975  14.539  0.00  0.00    +0.000 A 
ATOM     25  S   UNL     1      52.422   8.946  13.660  0.00  0.00    +0.000 S 
ATOM     26  C   UNL     1      51.189   9.498  12.625  0.00  0.00    +0.000 A 
ATOM     27  N   UNL     1      51.439  10.429  11.664  0.00  0.00    +0.000 NA
ATOM     28  C   UNL     1      50.402  10.783  10.981  0.00  0.00    +0.000 A 
ATOM     29  N   UNL     1      49.143  10.272  11.153  0.00  0.00    +0.000 N 
ATOM     30  C   UNL     1      48.867   9.266  12.046  0.00  0.00    +0.000 A 
ATOM     31  O   UNL     1      47.771   8.716  12.057  0.00  0.00    +0.000 OA
ATOM     32  C   UNL     1      49.975   8.895  12.901  0.00  0.00    +0.000 A 
ATOM     33  H   UNL     1      48.383  10.550  10.548  0.00  0.00    +0.000 HD
ENDBRANCH  20  23
ENDBRANCH   1  19
BRANCH   1  34
ATOM     34  O   UNL     1      47.730   4.355  15.092  0.00  0.00    +0.000 OA
BRANCH  34  36
ATOM     35  C   UNL     1      47.895   2.971  17.054  0.00  0.00    +0.000 C 
ATOM     36  C   UNL     1      47.370   4.267  16.473  0.00  0.00    +0.000 C 
ENDBRANCH  34  36
ENDBRANCH   1  34
TORSDOF 8
ENDMDL
MODEL 3
REMARK VINA RESULT:    -7.752      2.889      4.587
REMARK INTER + INTRA:         -12.427
REMARK INTER:                 -11.186
REMARK INTRA:                  -1.241
REMARK UNBOUND:                -1.049
REMARK  Name = 
REMARK  9 active torsions:
REMARK  status: ('A' for Active; 'I' for Inactive)
REMARK    1  A    between atoms: C_1  and  C_2
REMARK    2  A    between atoms: C_2  and  O_3
REMARK    3  A    between atoms: O_3  and  C_4
REMARK    4  A    between atoms: C_4  and  N_5
REMARK    5  A    between atoms: C_4  and  C_18
REMARK    6  A    between atoms: C_6  and  C_8
REMARK    7  A    between atoms: C_21  and  C_22
REMARK    8  A    between atoms: C_22  and  N_23
REMARK    9  A    between atoms: C_24  and  C_26
REMARK                            x       y       z     vdW  Elec       q    Type
REMARK                         _______ _______ _______ _____ _____    ______ ____
ROOT
ATOM      1  C   UNL     1      47.219   5.899  14.270  0.00  0.00    +0.000 C 
ENDROOT
BRANCH   1   2
ATOM      2  C   UNL     1      46.309   5.562  13.098  0.00  0.00    +0.000 A 
ATOM      3  C   UNL     1      45.421   4.480  13.177  0.00  0.00    +0.000 A 
ATOM      4  C   UNL     1      44.704   4.067  12.049  0.00  0.00    +0.000 A 
ATOM      5  C   UNL     1      44.856   4.728  10.822  0.00  0.00    +0.000 A 
ATOM      6  C   UNL     1      45.696   5.846  10.756  0.00  0.00    +0.000 A 
ATOM      7  C   UNL     1      46.423   6.248  11.878  0.00  0.00    +0.000 A 
BRANCH   5   8
ATOM      8  C   UNL     1      44.158   4.234   9.583  0.00  0.00    +0.000 C 
BRANCH   8   9
ATOM      9  N   UNL     1      45.078   3.935   8.516  0.00  0.00    +0.000 N 
ATOM     10  C   UNL     1      45.601   2.670   8.388  0.00  0.00    +0.000 C 
ATOM     11  O   UNL     1      45.334   1.765   9.167  0.00  0.00    +0.000 OA
ATOM     12  H   UNL     1      45.254   4.638   7.815  0.00  0.00    +0.000 HD
BRANCH  10  13
ATOM     13  C   UNL     1      46.493   2.478   7.275  0.00  0.00    +0.000 A 
ATOM     14  C   UNL     1      46.650   3.117   6.059  0.00  0.00    +0.000 A 
ATOM     15  C   UNL     1      47.714   2.447   5.425  0.00  0.00    +0.000 A 
ATOM     16  N   UNL     1      48.207   1.458   6.171  0.00  0.00    +0.000 NA
ATOM     17  N   UNL     1      47.454   1.499   7.284  0.00  0.00    +0.000 N 
ATOM     18  H   UNL     1      47.638   0.832   8.026  0.00  0.00    +0.000 HD
ENDBRANCH  10  13
ENDBRANCH   8   9
ENDBRANCH   5   8
ENDBRANCH   1   2
BRANCH   1  19
ATOM     19  N   UNL     1      48.373   6.628  13.838  0.00  0.00    +0.000 N 
ATOM     20  C   UNL     1      48.434   7.994  13.852  0.00  0.00    +0.000 C 
ATOM     21  O   UNL     1      47.569   8.688  14.379  0.00  0.00    +0.000 OA
ATOM     22  H   UNL     1      49.029   6.093  13.286  0.00  0.00    +0.000 HD
BRANCH  20  23
ATOM     23  C   UNL     1      49.619   8.598  13.225  0.00  0.00    +0.000 A 
ATOM     24  C   UNL     1      49.487   9.409  12.105  0.00  0.00    +0.000 A 
ATOM     25  S   UNL     1      50.977   9.965  11.485  0.00  0.00    +0.000 S 
ATOM     26  C   UNL     1      51.853   9.105  12.664  0.00  0.00    +0.000 A 
ATOM     27  N   UNL     1      53.214   9.091  12.660  0.00  0.00    +0.000 NA
ATOM     28  C   UNL     1      53.743   8.365  13.588  0.00  0.00    +0.000 A 
ATOM     29  N   UNL     1      53.035   7.671  14.534  0.00  0.00    +0.000 N 
ATOM     30  C   UNL     1      51.667   7.733  14.630  0.00  0.00    +0.000 A 
ATOM     31  O   UNL     1      51.079   7.239  15.585  0.00  0.00    +0.000 OA
ATOM     32  C   UNL     1      51.018   8.461  13.559  0.00  0.00    +0.000 A 
ATOM     33  H   UNL     1      53.510   7.165  15.268  0.00  0.00    +0.000 HD
ENDBRANCH  20  23
ENDBRANCH   1  19
BRANCH   1  34
ATOM     34  O   UNL     1      47.721   4.692  14.857  0.00  0.00    +0.000 OA
BRANCH  34  36
ATOM     35  C   UNL     1      47.154   3.810  17.024  0.00  0.00    +0.000 C 
ATOM     36  C   UNL     1      47.969   4.832  16.258  0.00  0.00    +0.000 C 
ENDBRANCH  34  36
ENDBRANCH   1  34
TORSDOF 8
ENDMDL
MODEL 4
REMARK VINA RESULT:    -7.411      2.160      2.882
REMARK INTER + INTRA:         -11.927
REMARK INTER:                 -10.617
REMARK INTRA:                  -1.309
REMARK UNBOUND:                -1.049
REMARK  Name = 
REMARK  9 active torsions:
REMARK  status: ('A' for Active; 'I' for Inactive)
REMARK    1  A    between atoms: C_1  and  C_2
REMARK    2  A    between atoms: C_2  and  O_3
REMARK    3  A    between atoms: O_3  and  C_4
REMARK    4  A    between atoms: C_4  and  N_5
REMARK    5  A    between atoms: C_4  and  C_18
REMARK    6  A    between atoms: C_6  and  C_8
REMARK    7  A    between atoms: C_21  and  C_22
REMARK    8  A    between atoms: C_22  and  N_23
REMARK    9  A    between atoms: C_24  and  C_26
REMARK                            x       y       z     vdW  Elec       q    Type
REMARK                         _______ _______ _______ _____ _____    ______ ____
ROOT
ATOM      1  C   UNL     1      47.901   7.423  13.633  0.00  0.00    +0.000 C 
ENDROOT
BRANCH   1   2
ATOM      2  C   UNL     1      46.791   6.576  13.029  0.00  0.00    +0.000 A 
ATOM      3  C   UNL     1      46.759   5.190  13.241  0.00  0.00    +0.000 A 
ATOM      4  C   UNL     1      45.840   4.389  12.557  0.00  0.00    +0.000 A 
ATOM      5  C   UNL     1      44.931   4.954  11.650  0.00  0.00    +0.000 A 
ATOM      6  C   UNL     1      44.921   6.344  11.483  0.00  0.00    +0.000 A 
ATOM      7  C   UNL     1      45.850   7.142  12.155  0.00  0.00    +0.000 A 
BRANCH   5   8
ATOM      8  C   UNL     1      44.001   4.089  10.843  0.00  0.00    +0.000 C 
BRANCH   8   9
ATOM      9  N   UNL     1      44.708   3.142  10.019  0.00  0.00    +0.000 N 
ATOM     10  C   UNL     1      45.254   3.539   8.821  0.00  0.00    +0.000 C 
ATOM     11  O   UNL     1      45.151   4.682   8.398  0.00  0.00    +0.000 OA
ATOM     12  H   UNL     1      44.876   2.215  10.380  0.00  0.00    +0.000 HD
BRANCH  10  13
ATOM     13  C   UNL     1      45.955   2.516   8.091  0.00  0.00    +0.000 A 
ATOM     14  C   UNL     1      46.743   2.526   6.956  0.00  0.00    +0.000 A 
ATOM     15  C   UNL     1      47.138   1.187   6.769  0.00  0.00    +0.000 A 
ATOM     16  N   UNL     1      46.647   0.378   7.709  0.00  0.00    +0.000 NA
ATOM     17  N   UNL     1      45.938   1.204   8.497  0.00  0.00    +0.000 N 
ATOM     18  H   UNL     1      45.458   0.822   9.305  0.00  0.00    +0.000 HD
ENDBRANCH  10  13
ENDBRANCH   8   9
ENDBRANCH   5   8
ENDBRANCH   1   2
BRANCH   1  19
ATOM     19  N   UNL     1      47.884   7.356  15.064  0.00  0.00    +0.000 N 
ATOM     20  C   UNL     1      48.934   6.874  15.795  0.00  0.00    +0.000 C 
ATOM     21  O   UNL     1      50.023   6.611  15.291  0.00  0.00    +0.000 OA
ATOM     22  H   UNL     1      46.967   7.438  15.480  0.00  0.00    +0.000 HD
BRANCH  20  23
ATOM     23  C   UNL     1      48.703   6.716  17.238  0.00  0.00    +0.000 A 
ATOM     24  C   UNL     1      48.871   5.479  17.846  0.00  0.00    +0.000 A 
ATOM     25  S   UNL     1      48.497   5.480  19.512  0.00  0.00    +0.000 S 
ATOM     26  C   UNL     1      48.052   7.122  19.468  0.00  0.00    +0.000 A 
ATOM     27  N   UNL     1      47.557   7.748  20.571  0.00  0.00    +0.000 NA
ATOM     28  C   UNL     1      47.225   8.981  20.380  0.00  0.00    +0.000 A 
ATOM     29  N   UNL     1      47.366   9.653  19.195  0.00  0.00    +0.000 N 
ATOM     30  C   UNL     1      47.946   9.087  18.087  0.00  0.00    +0.000 A 
ATOM     31  O   UNL     1      48.211   9.763  17.099  0.00  0.00    +0.000 OA
ATOM     32  C   UNL     1      48.255   7.678  18.218  0.00  0.00    +0.000 A 
ATOM     33  H   UNL     1      47.138  10.635  19.125  0.00  0.00    +0.000 HD
ENDBRANCH  20  23
ENDBRANCH   1  19
BRANCH   1  34
ATOM     34  O   UNL     1      47.691   8.803  13.309  0.00  0.00    +0.000 OA
BRANCH  34  36
ATOM     35  C   UNL     1      49.873   8.527  12.330  0.00  0.00    +0.000 C 
ATOM     36  C   UNL     1      48.542   9.247  12.250  0.00  0.00    +0.000 C 
ENDBRANCH  34  36
ENDBRANCH   1  34
TORSDOF 8
ENDMDL
MODEL 5
REMARK VINA RESULT:    -7.381      3.311      7.757
REMARK INTER + INTRA:         -11.883
REMARK INTER:                 -10.760
REMARK INTRA:                  -1.123
REMARK UNBOUND:                -1.049
REMARK  Name = 
REMARK  9 active torsions:
REMARK  status: ('A' for Active; 'I' for Inactive)
REMARK    1  A    between atoms: C_1  and  C_2
REMARK    2  A    between atoms: C_2  and  O_3
REMARK    3  A    between atoms: O_3  and  C_4
REMARK    4  A    between atoms: C_4  and  N_5
REMARK    5  A    between atoms: C_4  and  C_18
REMARK    6  A    between atoms: C_6  and  C_8
REMARK    7  A    between atoms: C_21  and  C_22
REMARK    8  A    between atoms: C_22  and  N_23
REMARK    9  A    between atoms: C_24  and  C_26
REMARK                            x       y       z     vdW  Elec       q    Type
REMARK                         _______ _______ _______ _____ _____    ______ ____
ROOT
ATOM      1  C   UNL     1      48.156   6.991  13.552  0.00  0.00    +0.000 C 
ENDROOT
BRANCH   1   2
ATOM      2  C   UNL     1      48.266   6.260  14.882  0.00  0.00    +0.000 A 
ATOM      3  C   UNL     1      49.270   6.602  15.799  0.00  0.00    +0.000 A 
ATOM      4  C   UNL     1      49.477   5.829  16.946  0.00  0.00    +0.000 A 
ATOM      5  C   UNL     1      48.683   4.701  17.202  0.00  0.00    +0.000 A 
ATOM      6  C   UNL     1      47.642   4.394  16.319  0.00  0.00    +0.000 A 
ATOM      7  C   UNL     1      47.446   5.157  15.166  0.00  0.00    +0.000 A 
BRANCH   5   8
ATOM      8  C   UNL     1      48.958   3.812  18.385  0.00  0.00    +0.000 C 
BRANCH   8   9
ATOM      9  N   UNL     1      50.291   3.267  18.365  0.00  0.00    +0.000 N 
ATOM     10  C   UNL     1      50.627   2.291  17.456  0.00  0.00    +0.000 C 
ATOM     11  O   UNL     1      49.823   1.834  16.655  0.00  0.00    +0.000 OA
ATOM     12  H   UNL     1      50.994   3.680  18.960  0.00  0.00    +0.000 HD
BRANCH  10  13
ATOM     13  C   UNL     1      51.991   1.835  17.512  0.00  0.00    +0.000 A 
ATOM     14  C   UNL     1      53.184   2.441  17.855  0.00  0.00    +0.000 A 
ATOM     15  C   UNL     1      54.163   1.439  17.708  0.00  0.00    +0.000 A 
ATOM     16  N   UNL     1      53.643   0.278  17.306  0.00  0.00    +0.000 NA
ATOM     17  N   UNL     1      52.330   0.543  17.197  0.00  0.00    +0.000 N 
ATOM     18  H   UNL     1      51.702  -0.198  16.902  0.00  0.00    +0.000 HD
ENDBRANCH  10  13
ENDBRANCH   8   9
ENDBRANCH   5   8
ENDBRANCH   1   2
BRANCH   1  19
ATOM     19  N   UNL     1      47.548   6.163  12.554  0.00  0.00    +0.000 N 
ATOM     20  C   UNL     1      46.397   6.512  11.905  0.00  0.00    +0.000 C 
ATOM     21  O   UNL     1      45.887   7.624  12.016  0.00  0.00    +0.000 OA
ATOM     22  H   UNL     1      47.870   5.206  12.545  0.00  0.00    +0.000 HD
BRANCH  20  23
ATOM     23  C   UNL     1      45.809   5.487  11.029  0.00  0.00    +0.000 A 
ATOM     24  C   UNL     1      45.916   5.596   9.648  0.00  0.00    +0.000 A 
ATOM     25  S   UNL     1      45.118   4.347   8.801  0.00  0.00    +0.000 S 
ATOM     26  C   UNL     1      44.564   3.643  10.248  0.00  0.00    +0.000 A 
ATOM     27  N   UNL     1      43.745   2.556  10.234  0.00  0.00    +0.000 NA
ATOM     28  C   UNL     1      43.372   2.155  11.403  0.00  0.00    +0.000 A 
ATOM     29  N   UNL     1      43.762   2.726  12.586  0.00  0.00    +0.000 N 
ATOM     30  C   UNL     1      44.659   3.763  12.648  0.00  0.00    +0.000 A 
ATOM     31  O   UNL     1      45.116   4.138  13.721  0.00  0.00    +0.000 OA
ATOM     32  C   UNL     1      45.040   4.311  11.362  0.00  0.00    +0.000 A 
ATOM     33  H   UNL     1      43.479   2.330  13.471  0.00  0.00    +0.000 HD
ENDBRANCH  20  23
ENDBRANCH   1  19
BRANCH   1  34
ATOM     34  O   UNL     1      49.466   7.296  13.056  0.00  0.00    +0.000 OA
BRANCH  34  36
ATOM     35  C   UNL     1      48.639   9.552  13.204  0.00  0.00    +0.000 C 
ATOM     36  C   UNL     1      49.528   8.587  12.446  0.00  0.00    +0.000 C 
ENDBRANCH  34  36
ENDBRANCH   1  34
TORSDOF 8
ENDMDL
MODEL 6
REMARK VINA RESULT:    -7.076      3.119      8.325
REMARK INTER + INTRA:         -11.435
REMARK INTER:                 -10.203
REMARK INTRA:                  -1.232
REMARK UNBOUND:                -1.049
REMARK  Name = 
REMARK  9 active torsions:
REMARK  status: ('A' for Active; 'I' for Inactive)
REMARK    1  A    between atoms: C_1  and  C_2
REMARK    2  A    between atoms: C_2  and  O_3
REMARK    3  A    between atoms: O_3  and  C_4
REMARK    4  A    between atoms: C_4  and  N_5
REMARK    5  A    between atoms: C_4  and  C_18
REMARK    6  A    between atoms: C_6  and  C_8
REMARK    7  A    between atoms: C_21  and  C_22
REMARK    8  A    between atoms: C_22  and  N_23
REMARK    9  A    between atoms: C_24  and  C_26
REMARK                            x       y       z     vdW  Elec       q    Type
REMARK                         _______ _______ _______ _____ _____    ______ ____
ROOT
ATOM      1  C   UNL     1      47.811   6.769  13.297  0.00  0.00    +0.000 C 
ENDROOT
BRANCH   1   2
ATOM      2  C   UNL     1      48.060   6.365  14.743  0.00  0.00    +0.000 A 
ATOM      3  C   UNL     1      48.875   7.151  15.569  0.00  0.00    +0.000 A 
ATOM      4  C   UNL     1      49.239   6.701  16.843  0.00  0.00    +0.000 A 
ATOM      5  C   UNL     1      48.792   5.460  17.318  0.00  0.00    +0.000 A 
ATOM      6  C   UNL     1      47.929   4.701  16.519  0.00  0.00    +0.000 A 
ATOM      7  C   UNL     1      47.580   5.144  15.242  0.00  0.00    +0.000 A 
BRANCH   5   8
ATOM      8  C   UNL     1      49.252   4.928  18.649  0.00  0.00    +0.000 C 
BRANCH   8   9
ATOM      9  N   UNL     1      50.026   3.720  18.521  0.00  0.00    +0.000 N 
ATOM     10  C   UNL     1      51.371   3.786  18.244  0.00  0.00    +0.000 C 
ATOM     11  O   UNL     1      51.957   4.847  18.077  0.00  0.00    +0.000 OA
ATOM     12  H   UNL     1      49.586   2.837  18.732  0.00  0.00    +0.000 HD
BRANCH  10  13
ATOM     13  C   UNL     1      52.049   2.519  18.159  0.00  0.00    +0.000 A 
ATOM     14  C   UNL     1      51.844   1.379  17.406  0.00  0.00    +0.000 A 
ATOM     15  C   UNL     1      52.869   0.493  17.791  0.00  0.00    +0.000 A 
ATOM     16  N   UNL     1      53.674   1.021  18.715  0.00  0.00    +0.000 NA
ATOM     17  N   UNL     1      53.159   2.246  18.918  0.00  0.00    +0.000 N 
ATOM     18  H   UNL     1      53.604   2.861  19.591  0.00  0.00    +0.000 HD
ENDBRANCH  10  13
ENDBRANCH   8   9
ENDBRANCH   5   8
ENDBRANCH   1   2
BRANCH   1  19
ATOM     19  N   UNL     1      47.010   5.796  12.617  0.00  0.00    +0.000 N 
ATOM     20  C   UNL     1      45.683   5.985  12.351  0.00  0.00    +0.000 C 
ATOM     21  O   UNL     1      45.120   7.062  12.535  0.00  0.00    +0.000 OA
ATOM     22  H   UNL     1      47.411   4.870  12.580  0.00  0.00    +0.000 HD
BRANCH  20  23
ATOM     23  C   UNL     1      44.960   4.832  11.796  0.00  0.00    +0.000 A 
ATOM     24  C   UNL     1      44.157   4.044  12.612  0.00  0.00    +0.000 A 
ATOM     25  S   UNL     1      43.452   2.718  11.802  0.00  0.00    +0.000 S 
ATOM     26  C   UNL     1      44.231   3.123  10.343  0.00  0.00    +0.000 A 
ATOM     27  N   UNL     1      44.110   2.338   9.238  0.00  0.00    +0.000 NA
ATOM     28  C   UNL     1      44.787   2.745   8.218  0.00  0.00    +0.000 A 
ATOM     29  N   UNL     1      45.555   3.880   8.193  0.00  0.00    +0.000 N 
ATOM     30  C   UNL     1      45.629   4.748   9.254  0.00  0.00    +0.000 A 
ATOM     31  O   UNL     1      46.185   5.834   9.143  0.00  0.00    +0.000 OA
ATOM     32  C   UNL     1      44.960   4.292  10.456  0.00  0.00    +0.000 A 
ATOM     33  H   UNL     1      46.017   4.175   7.345  0.00  0.00    +0.000 HD
ENDBRANCH  20  23
ENDBRANCH   1  19
BRANCH   1  34
ATOM     34  O   UNL     1      49.054   6.812  12.584  0.00  0.00    +0.000 OA
BRANCH  34  36
ATOM     35  C   UNL     1      48.098   8.983  12.170  0.00  0.00    +0.000 C 
ATOM     36  C   UNL     1      49.185   7.996  11.794  0.00  0.00    +0.000 C 
ENDBRANCH  34  36
ENDBRANCH   1  34
TORSDOF 8
ENDMDL
MODEL 7
REMARK VINA RESULT:    -6.816      2.160      4.408
REMARK INTER + INTRA:         -11.053
REMARK INTER:                  -9.761
REMARK INTRA:                  -1.292
REMARK UNBOUND:                -1.049
REMARK  Name = 
REMARK  9 active torsions:
REMARK  status: ('A' for Active; 'I' for Inactive)
REMARK    1  A    between atoms: C_1  and  C_2
REMARK    2  A    between atoms: C_2  and  O_3
REMARK    3  A    between atoms: O_3  and  C_4
REMARK    4  A    between atoms: C_4  and  N_5
REMARK    5  A    between atoms: C_4  and  C_18
REMARK    6  A    between atoms: C_6  and  C_8
REMARK    7  A    between atoms: C_21  and  C_22
REMARK    8  A    between atoms: C_22  and  N_23
REMARK    9  A    between atoms: C_24  and  C_26
REMARK                            x       y       z     vdW  Elec       q    Type
REMARK                         _______ _______ _______ _____ _____    ______ ____
ROOT
ATOM      1  C   UNL     1      47.388   4.495  15.541  0.00  0.00    +0.000 C 
ENDROOT
BRANCH   1   2
ATOM      2  C   UNL     1      46.733   4.900  14.229  0.00  0.00    +0.000 A 
ATOM      3  C   UNL     1      45.704   4.121  13.679  0.00  0.00    +0.000 A 
ATOM      4  C   UNL     1      45.214   4.397  12.398  0.00  0.00    +0.000 A 
ATOM      5  C   UNL     1      45.736   5.457  11.643  0.00  0.00    +0.000 A 
ATOM      6  C   UNL     1      46.720   6.272  12.215  0.00  0.00    +0.000 A 
ATOM      7  C   UNL     1      47.220   5.987  13.487  0.00  0.00    +0.000 A 
BRANCH   5   8
ATOM      8  C   UNL     1      45.278   5.703  10.231  0.00  0.00    +0.000 C 
BRANCH   8   9
ATOM      9  N   UNL     1      45.952   4.859   9.279  0.00  0.00    +0.000 N 
ATOM     10  C   UNL     1      45.300   3.783   8.724  0.00  0.00    +0.000 C 
ATOM     11  O   UNL     1      44.151   3.487   9.019  0.00  0.00    +0.000 OA
ATOM     12  H   UNL     1      46.871   5.126   8.958  0.00  0.00    +0.000 HD
BRANCH  10  13
ATOM     13  C   UNL     1      46.063   3.022   7.770  0.00  0.00    +0.000 A 
ATOM     14  C   UNL     1      46.595   3.311   6.528  0.00  0.00    +0.000 A 
ATOM     15  C   UNL     1      47.242   2.128   6.119  0.00  0.00    +0.000 A 
ATOM     16  N   UNL     1      47.139   1.155   7.025  0.00  0.00    +0.000 NA
ATOM     17  N   UNL     1      46.425   1.720   8.014  0.00  0.00    +0.000 N 
ATOM     18  H   UNL     1      46.209   1.172   8.840  0.00  0.00    +0.000 HD
ENDBRANCH  10  13
ENDBRANCH   8   9
ENDBRANCH   5   8
ENDBRANCH   1   2
BRANCH   1  19
ATOM     19  N   UNL     1      48.382   5.445  15.940  0.00  0.00    +0.000 N 
ATOM     20  C   UNL     1      48.394   6.028  17.175  0.00  0.00    +0.000 C 
ATOM     21  O   UNL     1      47.651   5.667  18.084  0.00  0.00    +0.000 OA
ATOM     22  H   UNL     1      48.910   5.848  15.179  0.00  0.00    +0.000 HD
BRANCH  20  23
ATOM     23  C   UNL     1      49.378   7.102  17.377  0.00  0.00    +0.000 A 
ATOM     24  C   UNL     1      50.492   6.894  18.181  0.00  0.00    +0.000 A 
ATOM     25  S   UNL     1      51.483   8.275  18.344  0.00  0.00    +0.000 S 
ATOM     26  C   UNL     1      50.434   9.211  17.385  0.00  0.00    +0.000 A 
ATOM     27  N   UNL     1      50.663  10.537  17.179  0.00  0.00    +0.000 NA
ATOM     28  C   UNL     1      49.764  11.128  16.465  0.00  0.00    +0.000 A 
ATOM     29  N   UNL     1      48.670  10.510  15.919  0.00  0.00    +0.000 N 
ATOM     30  C   UNL     1      48.452   9.159  16.025  0.00  0.00    +0.000 A 
ATOM     31  O   UNL     1      47.561   8.612  15.385  0.00  0.00    +0.000 OA
ATOM     32  C   UNL     1      49.382   8.462  16.890  0.00  0.00    +0.000 A 
ATOM     33  H   UNL     1      48.032  11.017  15.323  0.00  0.00    +0.000 HD
ENDBRANCH  20  23
ENDBRANCH   1  19
BRANCH   1  34
ATOM     34  O   UNL     1      48.085   3.253  15.373  0.00  0.00    +0.000 OA
BRANCH  34  36
ATOM     35  C   UNL     1      49.688   2.149  16.789  0.00  0.00    +0.000 C 
ATOM     36  C   UNL     1      48.237   2.545  16.605  0.00  0.00    +0.000 C 
ENDBRANCH  34  36
ENDBRANCH   1  34
TORSDOF 8
ENDMDL
MODEL 8
REMARK VINA RESULT:    -6.566      2.443      4.194
REMARK INTER + INTRA:         -10.687
REMARK INTER:                 -10.329
REMARK INTRA:                  -0.358
REMARK UNBOUND:                -1.049
REMARK  Name = 
REMARK  9 active torsions:
REMARK  status: ('A' for Active; 'I' for Inactive)
REMARK    1  A    between atoms: C_1  and  C_2
REMARK    2  A    between atoms: C_2  and  O_3
REMARK    3  A    between atoms: O_3  and  C_4
REMARK    4  A    between atoms: C_4  and  N_5
REMARK    5  A    between atoms: C_4  and  C_18
REMARK    6  A    between atoms: C_6  and  C_8
REMARK    7  A    between atoms: C_21  and  C_22
REMARK    8  A    between atoms: C_22  and  N_23
REMARK    9  A    between atoms: C_24  and  C_26
REMARK                            x       y       z     vdW  Elec       q    Type
REMARK                         _______ _______ _______ _____ _____    ______ ____
ROOT
ATOM      1  C   UNL     1      46.924   5.272  14.994  0.00  0.00    +0.000 C 
ENDROOT
BRANCH   1   2
ATOM      2  C   UNL     1      46.400   4.931  13.607  0.00  0.00    +0.000 A 
ATOM      3  C   UNL     1      45.851   5.930  12.790  0.00  0.00    +0.000 A 
ATOM      4  C   UNL     1      45.222   5.596  11.587  0.00  0.00    +0.000 A 
ATOM      5  C   UNL     1      45.132   4.259  11.172  0.00  0.00    +0.000 A 
ATOM      6  C   UNL     1      45.733   3.268  11.956  0.00  0.00    +0.000 A 
ATOM      7  C   UNL     1      46.347   3.601  13.165  0.00  0.00    +0.000 A 
BRANCH   5   8
ATOM      8  C   UNL     1      44.378   3.883   9.925  0.00  0.00    +0.000 C 
BRANCH   8   9
ATOM      9  N   UNL     1      45.247   3.702   8.790  0.00  0.00    +0.000 N 
ATOM     10  C   UNL     1      45.663   2.442   8.431  0.00  0.00    +0.000 C 
ATOM     11  O   UNL     1      45.340   1.440   9.054  0.00  0.00    +0.000 OA
ATOM     12  H   UNL     1      45.464   4.501   8.213  0.00  0.00    +0.000 HD
BRANCH  10  13
ATOM     13  C   UNL     1      46.512   2.377   7.271  0.00  0.00    +0.000 A 
ATOM     14  C   UNL     1      46.551   3.077   6.080  0.00  0.00    +0.000 A 
ATOM     15  C   UNL     1      47.637   2.532   5.367  0.00  0.00    +0.000 A 
ATOM     16  N   UNL     1      48.251   1.561   6.044  0.00  0.00    +0.000 NA
ATOM     17  N   UNL     1      47.555   1.488   7.192  0.00  0.00    +0.000 N 
ATOM     18  H   UNL     1      47.833   0.810   7.893  0.00  0.00    +0.000 HD
ENDBRANCH  10  13
ENDBRANCH   8   9
ENDBRANCH   5   8
ENDBRANCH   1   2
BRANCH   1  19
ATOM     19  N   UNL     1      47.547   6.562  15.011  0.00  0.00    +0.000 N 
ATOM     20  C   UNL     1      48.630   6.870  14.236  0.00  0.00    +0.000 C 
ATOM     21  O   UNL     1      49.050   6.120  13.359  0.00  0.00    +0.000 OA
ATOM     22  H   UNL     1      47.307   7.137  15.806  0.00  0.00    +0.000 HD
BRANCH  20  23
ATOM     23  C   UNL     1      49.256   8.177  14.485  0.00  0.00    +0.000 A 
ATOM     24  C   UNL     1      49.643   8.986  13.423  0.00  0.00    +0.000 A 
ATOM     25  S   UNL     1      50.407  10.433  13.911  0.00  0.00    +0.000 S 
ATOM     26  C   UNL     1      50.289  10.008  15.554  0.00  0.00    +0.000 A 
ATOM     27  N   UNL     1      50.826  10.796  16.526  0.00  0.00    +0.000 NA
ATOM     28  C   UNL     1      50.696  10.329  17.723  0.00  0.00    +0.000 A 
ATOM     29  N   UNL     1      50.057   9.159  18.040  0.00  0.00    +0.000 N 
ATOM     30  C   UNL     1      49.422   8.384  17.101  0.00  0.00    +0.000 A 
ATOM     31  O   UNL     1      48.718   7.438  17.436  0.00  0.00    +0.000 OA
ATOM     32  C   UNL     1      49.613   8.814  15.731  0.00  0.00    +0.000 A 
ATOM     33  H   UNL     1      49.940   8.876  19.002  0.00  0.00    +0.000 HD
ENDBRANCH  20  23
ENDBRANCH   1  19
BRANCH   1  34
ATOM     34  O   UNL     1      47.950   4.343  15.367  0.00  0.00    +0.000 OA
BRANCH  34  36
ATOM     35  C   UNL     1      47.274   3.113  17.323  0.00  0.00    +0.000 C 
ATOM     36  C   UNL     1      48.112   4.255  16.785  0.00  0.00    +0.000 C 
ENDBRANCH  34  36
ENDBRANCH   1  34
TORSDOF 8
ENDMDL
MODEL 9
REMARK VINA RESULT:    -6.306      3.685      5.434
REMARK INTER + INTRA:         -10.304
REMARK INTER:                  -8.549
REMARK INTRA:                  -1.755
REMARK UNBOUND:                -1.049
REMARK  Name = 
REMARK  9 active torsions:
REMARK  status: ('A' for Active; 'I' for Inactive)
REMARK    1  A    between atoms: C_1  and  C_2
REMARK    2  A    between atoms: C_2  and  O_3
REMARK    3  A    between atoms: O_3  and  C_4
REMARK    4  A    between atoms: C_4  and  N_5
REMARK    5  A    between atoms: C_4  and  C_18
REMARK    6  A    between atoms: C_6  and  C_8
REMARK    7  A    between atoms: C_21  and  C_22
REMARK    8  A    between atoms: C_22  and  N_23
REMARK    9  A    between atoms: C_24  and  C_26
REMARK                            x       y       z     vdW  Elec       q    Type
REMARK                         _______ _______ _______ _____ _____    ______ ____
ROOT
ATOM      1  C   UNL     1      49.128   7.227  15.005  0.00  0.00    +0.000 C 
ENDROOT
BRANCH   1   2
ATOM      2  C   UNL     1      47.998   7.026  14.006  0.00  0.00    +0.000 A 
ATOM      3  C   UNL     1      47.510   5.739  13.737  0.00  0.00    +0.000 A 
ATOM      4  C   UNL     1      46.589   5.531  12.705  0.00  0.00    +0.000 A 
ATOM      5  C   UNL     1      46.134   6.604  11.924  0.00  0.00    +0.000 A 
ATOM      6  C   UNL     1      46.573   7.896  12.231  0.00  0.00    +0.000 A 
ATOM      7  C   UNL     1      47.504   8.101  13.251  0.00  0.00    +0.000 A 
BRANCH   5   8
ATOM      8  C   UNL     1      45.214   6.376  10.755  0.00  0.00    +0.000 C 
BRANCH   8   9
ATOM      9  N   UNL     1      45.753   5.437   9.806  0.00  0.00    +0.000 N 
ATOM     10  C   UNL     1      45.089   4.262   9.540  0.00  0.00    +0.000 C 
ATOM     11  O   UNL     1      44.044   3.957  10.098  0.00  0.00    +0.000 OA
ATOM     12  H   UNL     1      46.570   5.698   9.274  0.00  0.00    +0.000 HD
BRANCH  10  13
ATOM     13  C   UNL     1      45.708   3.409   8.560  0.00  0.00    +0.000 A 
ATOM     14  C   UNL     1      45.826   2.038   8.430  0.00  0.00    +0.000 A 
ATOM     15  C   UNL     1      46.546   1.842   7.235  0.00  0.00    +0.000 A 
ATOM     16  N   UNL     1      46.863   2.992   6.640  0.00  0.00    +0.000 NA
ATOM     17  N   UNL     1      46.344   3.924   7.458  0.00  0.00    +0.000 N 
ATOM     18  H   UNL     1      46.452   4.904   7.219  0.00  0.00    +0.000 HD
ENDBRANCH  10  13
ENDBRANCH   8   9
ENDBRANCH   5   8
ENDBRANCH   1   2
BRANCH   1  19
ATOM     19  N   UNL     1      50.387   7.381  14.340  0.00  0.00    +0.000 N 
ATOM     20  C   UNL     1      51.026   8.585  14.236  0.00  0.00    +0.000 C 
ATOM     21  O   UNL     1      50.648   9.587  14.837  0.00  0.00    +0.000 OA
ATOM     22  H   UNL     1      50.642   6.613  13.736  0.00  0.00    +0.000 HD
BRANCH  20  23
ATOM     23  C   UNL     1      52.225   8.613  13.385  0.00  0.00    +0.000 A 
ATOM     24  C   UNL     1      53.445   9.030  13.901  0.00  0.00    +0.000 A 
ATOM     25  S   UNL     1      54.702   9.054  12.747  0.00  0.00    +0.000 S 
ATOM     26  C   UNL     1      53.650   8.552  11.507  0.00  0.00    +0.000 A 
ATOM     27  N   UNL     1      54.080   8.438  10.221  0.00  0.00    +0.000 NA
ATOM     28  C   UNL     1      53.164   8.087   9.382  0.00  0.00    +0.000 A 
ATOM     29  N   UNL     1      51.864   7.814   9.715  0.00  0.00    +0.000 N 
ATOM     30  C   UNL     1      51.412   7.826  11.011  0.00  0.00    +0.000 A 
ATOM     31  O   UNL     1      50.293   7.415  11.293  0.00  0.00    +0.000 OA
ATOM     32  C   UNL     1      52.376   8.301  11.983  0.00  0.00    +0.000 A 
ATOM     33  H   UNL     1      51.207   7.490   9.019  0.00  0.00    +0.000 HD
ENDBRANCH  20  23
ENDBRANCH   1  19
BRANCH   1  34
ATOM     34  O   UNL     1      49.264   6.060  15.825  0.00  0.00    +0.000 OA
BRANCH  34  36
ATOM     35  C   UNL     1      48.788   7.680  17.542  0.00  0.00    +0.000 C 
ATOM     36  C   UNL     1      49.497   6.385  17.198  0.00  0.00    +0.000 C 
ENDBRANCH  34  36
ENDBRANCH   1  34
TORSDOF 8
ENDMDL
