MODEL 1
REMARK VINA RESULT:    -8.242      0.000      0.000
REMARK INTER + INTRA:         -12.473
REMARK INTER:                 -11.856
REMARK INTRA:                  -0.617
REMARK UNBOUND:                -0.617
REMARK  Name = 
REMARK  8 active torsions:
REMARK  status: ('A' for Active; 'I' for Inactive)
REMARK    1  A    between atoms: C_2  and  C_4
REMARK    2  A    between atoms: C_7  and  O_8
REMARK    3  A    between atoms: O_8  and  C_9
REMARK    4  A    between atoms: C_9  and  C_10
REMARK    5  A    between atoms: C_10  and  C_11
REMARK    6  A    between atoms: C_15  and  C_16
REMARK    7  A    between atoms: C_17  and  C_18
REMARK    8  A    between atoms: C_18  and  O_19
REMARK                            x       y       z     vdW  Elec       q    Type
REMARK                         _______ _______ _______ _____ _____    ______ ____
ROOT
ATOM      1  C   UNL     1      44.060   5.004  11.197  0.00  0.00    +0.000 C 
ENDROOT
BRANCH   1   2
ATOM      2  O   UNL     1      43.637   4.769   9.843  0.00  0.00    +0.000 OA
BRANCH   2   6
ATOM      3  C   UNL     1      46.352   2.457   7.769  0.00  0.00    +0.000 A 
ATOM      4  C   UNL     1      45.487   1.845   8.678  0.00  0.00    +0.000 A 
ATOM      5  C   UNL     1      44.568   2.638   9.380  0.00  0.00    +0.000 A 
ATOM      6  C   UNL     1      44.551   4.003   9.142  0.00  0.00    +0.000 A 
ATOM      7  N   UNL     1      45.384   4.612   8.269  0.00  0.00    +0.000 NA
ATOM      8  C   UNL     1      46.270   3.833   7.611  0.00  0.00    +0.000 A 
BRANCH   3  10
ATOM      9  N   UNL     1      48.460   2.425   6.560  0.00  0.00    +0.000 N 
ATOM     10  C   UNL     1      47.367   1.724   6.985  0.00  0.00    +0.000 C 
ATOM     11  O   UNL     1      47.256   0.526   6.760  0.00  0.00    +0.000 OA
ATOM     12  H   UNL     1      49.193   1.884   6.119  0.00  0.00    +0.000 HD
ATOM     13  H   UNL     1      48.708   3.329   6.936  0.00  0.00    +0.000 HD
ENDBRANCH   3  10
ENDBRANCH   2   6
ENDBRANCH   1   2
BRANCH   1  14
ATOM     14  C   UNL     1      44.761   6.360  11.295  0.00  0.00    +0.000 C 
BRANCH  14  15
ATOM     15  C   UNL     1      46.042   6.290  12.094  0.00  0.00    +0.000 A 
ATOM     16  C   UNL     1      47.187   6.971  11.675  0.00  0.00    +0.000 A 
ATOM     17  C   UNL     1      48.344   6.868  12.437  0.00  0.00    +0.000 A 
ATOM     18  N   UNL     1      48.441   6.141  13.570  0.00  0.00    +0.000 NA
ATOM     19  C   UNL     1      47.331   5.479  13.954  0.00  0.00    +0.000 A 
ATOM     20  C   UNL     1      46.125   5.518  13.260  0.00  0.00    +0.000 A 
BRANCH  19  21
ATOM     21  C   UNL     1      47.473   4.705  15.150  0.00  0.00    +0.000 C 
ATOM     22  C   UNL     1      47.561   3.963  16.218  0.00  0.00    +0.000 C 
BRANCH  22  23
ATOM     23  C   UNL     1      47.663   3.096  17.463  0.00  0.00    +0.000 C 
BRANCH  23  24
ATOM     24  O   UNL     1      46.375   2.618  17.818  0.00  0.00    +0.000 OA
ATOM     25  H   UNL     1      46.480   2.129  18.652  0.00  0.00    +0.000 HD
ENDBRANCH  23  24
ENDBRANCH  22  23
ENDBRANCH  19  21
ENDBRANCH  14  15
ENDBRANCH   1  14
TORSDOF 8
ENDMDL
MODEL 2
REMARK VINA RESULT:    -7.604      2.224      3.503
REMARK INTER + INTRA:         -11.555
REMARK INTER:                 -10.757
REMARK INTRA:                  -0.798
REMARK UNBOUND:                -0.617
REMARK  Name = 
REMARK  8 active torsions:
REMARK  status: ('A' for Active; 'I' for Inactive)
REMARK    1  A    between atoms: C_2  and  C_4
REMARK    2  A    between atoms: C_7  and  O_8
REMARK    3  A    between atoms: O_8  and  C_9
REMARK    4  A    between atoms: C_9  and  C_10
REMARK    5  A    between atoms: C_10  and  C_11
REMARK    6  A    between atoms: C_15  and  C_16
REMARK    7  A    between atoms: C_17  and  C_18
REMARK    8  A    between atoms: C_18  and  O_19
REMARK                            x       y       z     vdW  Elec       q    Type
REMARK                         _______ _______ _______ _____ _____    ______ ____
ROOT
ATOM      1  C   UNL     1      43.406   4.375  11.044  0.00  0.00    +0.000 C 
ENDROOT
BRANCH   1   2
ATOM      2  O   UNL     1      43.760   4.868   9.741  0.00  0.00    +0.000 OA
BRANCH   2   6
ATOM      3  C   UNL     1      46.361   2.310   7.815  0.00  0.00    +0.000 A 
ATOM      4  C   UNL     1      45.481   1.798   8.769  0.00  0.00    +0.000 A 
ATOM      5  C   UNL     1      44.601   2.674   9.421  0.00  0.00    +0.000 A 
ATOM      6  C   UNL     1      44.637   4.020   9.089  0.00  0.00    +0.000 A 
ATOM      7  N   UNL     1      45.485   4.532   8.170  0.00  0.00    +0.000 NA
ATOM      8  C   UNL     1      46.334   3.674   7.562  0.00  0.00    +0.000 A 
BRANCH   3  10
ATOM      9  N   UNL     1      48.420   2.122   6.537  0.00  0.00    +0.000 N 
ATOM     10  C   UNL     1      47.340   1.484   7.077  0.00  0.00    +0.000 C 
ATOM     11  O   UNL     1      47.210   0.270   6.987  0.00  0.00    +0.000 OA
ATOM     12  H   UNL     1      49.132   1.527   6.130  0.00  0.00    +0.000 HD
ATOM     13  H   UNL     1      48.690   3.058   6.804  0.00  0.00    +0.000 HD
ENDBRANCH   3  10
ENDBRANCH   2   6
ENDBRANCH   1   2
BRANCH   1  14
ATOM     14  C   UNL     1      43.705   5.438  12.102  0.00  0.00    +0.000 C 
BRANCH  14  15
ATOM     15  C   UNL     1      45.131   5.369  12.600  0.00  0.00    +0.000 A 
ATOM     16  C   UNL     1      45.515   4.416  13.546  0.00  0.00    +0.000 A 
ATOM     17  C   UNL     1      46.834   4.398  13.981  0.00  0.00    +0.000 A 
ATOM     18  N   UNL     1      47.785   5.255  13.550  0.00  0.00    +0.000 NA
ATOM     19  C   UNL     1      47.395   6.177  12.647  0.00  0.00    +0.000 A 
ATOM     20  C   UNL     1      46.099   6.277  12.150  0.00  0.00    +0.000 A 
BRANCH  19  21
ATOM     21  C   UNL     1      48.423   7.079  12.223  0.00  0.00    +0.000 C 
ATOM     22  C   UNL     1      49.400   7.857  11.851  0.00  0.00    +0.000 C 
BRANCH  22  23
ATOM     23  C   UNL     1      50.540   8.765  11.417  0.00  0.00    +0.000 C 
BRANCH  23  24
ATOM     24  O   UNL     1      51.525   8.002  10.740  0.00  0.00    +0.000 OA
ATOM     25  H   UNL     1      51.297   8.030   9.796  0.00  0.00    +0.000 HD
ENDBRANCH  23  24
ENDBRANCH  22  23
ENDBRANCH  19  21
ENDBRANCH  14  15
ENDBRANCH   1  14
TORSDOF 8
ENDMDL
MODEL 3
REMARK VINA RESULT:    -6.850      2.207      8.084
REMARK INTER + INTRA:         -10.471
REMARK INTER:                 -10.011
REMARK INTRA:                  -0.460
REMARK UNBOUND:                -0.617
REMARK  Name = 
REMARK  8 active torsions:
REMARK  status: ('A' for Active; 'I' for Inactive)
REMARK    1  A    between atoms: C_2  and  C_4
REMARK    2  A    between atoms: C_7  and  O_8
REMARK    3  A    between atoms: O_8  and  C_9
REMARK    4  A    between atoms: C_9  and  C_10
REMARK    5  A    between atoms: C_10  and  C_11
REMARK    6  A    between atoms: C_15  and  C_16
REMARK    7  A    between atoms: C_17  and  C_18
REMARK    8  A    between atoms: C_18  and  O_19
REMARK                            x       y       z     vdW  Elec       q    Type
REMARK                         _______ _______ _______ _____ _____    ______ ____
ROOT
ATOM      1  C   UNL     1      45.385   6.318  12.778  0.00  0.00    +0.000 C 
ENDROOT
BRANCH   1   2
ATOM      2  O   UNL     1      46.584   5.524  12.755  0.00  0.00    +0.000 OA
BRANCH   2   6
ATOM      3  C   UNL     1      48.154   4.995  16.532  0.00  0.00    +0.000 A 
ATOM      4  C   UNL     1      48.560   6.093  15.772  0.00  0.00    +0.000 A 
ATOM      5  C   UNL     1      48.024   6.265  14.488  0.00  0.00    +0.000 A 
ATOM      6  C   UNL     1      47.104   5.337  14.023  0.00  0.00    +0.000 A 
ATOM      7  N   UNL     1      46.703   4.267  14.745  0.00  0.00    +0.000 NA
ATOM      8  C   UNL     1      47.241   4.112  15.975  0.00  0.00    +0.000 A 
BRANCH   3  10
ATOM      9  N   UNL     1      47.752   4.329  18.835  0.00  0.00    +0.000 N 
ATOM     10  C   UNL     1      48.662   4.707  17.890  0.00  0.00    +0.000 C 
ATOM     11  O   UNL     1      49.858   4.764  18.149  0.00  0.00    +0.000 OA
ATOM     12  H   UNL     1      48.131   4.032  19.726  0.00  0.00    +0.000 HD
ATOM     13  H   UNL     1      46.817   4.027  18.601  0.00  0.00    +0.000 HD
ENDBRANCH   3  10
ENDBRANCH   2   6
ENDBRANCH   1   2
BRANCH   1  14
ATOM     14  C   UNL     1      44.815   6.439  11.364  0.00  0.00    +0.000 C 
BRANCH  14  15
ATOM     15  C   UNL     1      44.715   5.102  10.667  0.00  0.00    +0.000 A 
ATOM     16  C   UNL     1      43.949   4.066  11.207  0.00  0.00    +0.000 A 
ATOM     17  C   UNL     1      43.897   2.852  10.536  0.00  0.00    +0.000 A 
ATOM     18  N   UNL     1      44.547   2.597   9.380  0.00  0.00    +0.000 NA
ATOM     19  C   UNL     1      45.292   3.603   8.878  0.00  0.00    +0.000 A 
ATOM     20  C   UNL     1      45.409   4.854   9.475  0.00  0.00    +0.000 A 
BRANCH  19  21
ATOM     21  C   UNL     1      45.981   3.294   7.662  0.00  0.00    +0.000 C 
ATOM     22  C   UNL     1      46.647   2.979   6.587  0.00  0.00    +0.000 C 
BRANCH  22  23
ATOM     23  C   UNL     1      47.424   2.611   5.332  0.00  0.00    +0.000 C 
BRANCH  23  24
ATOM     24  O   UNL     1      48.524   1.785   5.678  0.00  0.00    +0.000 OA
ATOM     25  H   UNL     1      49.043   2.275   6.338  0.00  0.00    +0.000 HD
ENDBRANCH  23  24
ENDBRANCH  22  23
ENDBRANCH  19  21
ENDBRANCH  14  15
ENDBRANCH   1  14
TORSDOF 8
ENDMDL
MODEL 4
REMARK VINA RESULT:    -6.655      2.922      3.735
REMARK INTER + INTRA:         -10.190
REMARK INTER:                  -9.716
REMARK INTRA:                  -0.474
REMARK UNBOUND:                -0.617
REMARK  Name = 
REMARK  8 active torsions:
REMARK  status: ('A' for Active; 'I' for Inactive)
REMARK    1  A    between atoms: C_2  and  C_4
REMARK    2  A    between atoms: C_7  and  O_8
REMARK    3  A    between atoms: O_8  and  C_9
REMARK    4  A    between atoms: C_9  and  C_10
REMARK    5  A    between atoms: C_10  and  C_11
REMARK    6  A    between atoms: C_15  and  C_16
REMARK    7  A    between atoms: C_17  and  C_18
REMARK    8  A    between atoms: C_18  and  O_19
REMARK                            x       y       z     vdW  Elec       q    Type
REMARK                         _______ _______ _______ _____ _____    ______ ____
ROOT
ATOM      1  C   UNL     1      43.892   4.785  11.273  0.00  0.00    +0.000 C 
ENDROOT
BRANCH   1   2
ATOM      2  O   UNL     1      44.095   5.057   9.875  0.00  0.00    +0.000 OA
BRANCH   2   6
ATOM      3  C   UNL     1      46.214   2.033   8.037  0.00  0.00    +0.000 A 
ATOM      4  C   UNL     1      45.230   1.707   8.972  0.00  0.00    +0.000 A 
ATOM      5  C   UNL     1      44.515   2.740   9.594  0.00  0.00    +0.000 A 
ATOM      6  C   UNL     1      44.811   4.051   9.252  0.00  0.00    +0.000 A 
ATOM      7  N   UNL     1      45.763   4.384   8.352  0.00  0.00    +0.000 NA
ATOM      8  C   UNL     1      46.449   3.374   7.773  0.00  0.00    +0.000 A 
BRANCH   3  10
ATOM      9  N   UNL     1      46.782  -0.288   7.591  0.00  0.00    +0.000 N 
ATOM     10  C   UNL     1      47.037   1.029   7.331  0.00  0.00    +0.000 C 
ATOM     11  O   UNL     1      47.885   1.360   6.513  0.00  0.00    +0.000 OA
ATOM     12  H   UNL     1      47.280  -0.960   7.020  0.00  0.00    +0.000 HD
ATOM     13  H   UNL     1      45.939  -0.599   8.051  0.00  0.00    +0.000 HD
ENDBRANCH   3  10
ENDBRANCH   2   6
ENDBRANCH   1   2
BRANCH   1  14
ATOM     14  C   UNL     1      45.229   4.842  12.013  0.00  0.00    +0.000 C 
BRANCH  14  15
ATOM     15  C   UNL     1      45.799   6.241  12.065  0.00  0.00    +0.000 A 
ATOM     16  C   UNL     1      44.967   7.349  12.241  0.00  0.00    +0.000 A 
ATOM     17  C   UNL     1      45.536   8.615  12.272  0.00  0.00    +0.000 A 
ATOM     18  N   UNL     1      46.858   8.855  12.137  0.00  0.00    +0.000 NA
ATOM     19  C   UNL     1      47.646   7.776  11.954  0.00  0.00    +0.000 A 
ATOM     20  C   UNL     1      47.173   6.468  11.909  0.00  0.00    +0.000 A 
BRANCH  19  21
ATOM     21  C   UNL     1      49.040   8.066  11.799  0.00  0.00    +0.000 C 
ATOM     22  C   UNL     1      50.318   8.272  11.649  0.00  0.00    +0.000 C 
BRANCH  22  23
ATOM     23  C   UNL     1      51.809   8.510  11.473  0.00  0.00    +0.000 C 
BRANCH  23  24
ATOM     24  O   UNL     1      52.525   7.822  12.485  0.00  0.00    +0.000 OA
ATOM     25  H   UNL     1      52.994   7.092  12.047  0.00  0.00    +0.000 HD
ENDBRANCH  23  24
ENDBRANCH  22  23
ENDBRANCH  19  21
ENDBRANCH  14  15
ENDBRANCH   1  14
TORSDOF 8
ENDMDL
MODEL 5
REMARK VINA RESULT:    -6.442      3.055      7.233
REMARK INTER + INTRA:          -9.884
REMARK INTER:                  -9.218
REMARK INTRA:                  -0.666
REMARK UNBOUND:                -0.617
REMARK  Name = 
REMARK  8 active torsions:
REMARK  status: ('A' for Active; 'I' for Inactive)
REMARK    1  A    between atoms: C_2  and  C_4
REMARK    2  A    between atoms: C_7  and  O_8
REMARK    3  A    between atoms: O_8  and  C_9
REMARK    4  A    between atoms: C_9  and  C_10
REMARK    5  A    between atoms: C_10  and  C_11
REMARK    6  A    between atoms: C_15  and  C_16
REMARK    7  A    between atoms: C_17  and  C_18
REMARK    8  A    between atoms: C_18  and  O_19
REMARK                            x       y       z     vdW  Elec       q    Type
REMARK                         _______ _______ _______ _____ _____    ______ ____
ROOT
ATOM      1  C   UNL     1      45.123   6.510  12.686  0.00  0.00    +0.000 C 
ENDROOT
BRANCH   1   2
ATOM      2  O   UNL     1      45.669   7.819  12.924  0.00  0.00    +0.000 OA
BRANCH   2   6
ATOM      3  C   UNL     1      49.634   8.028  11.802  0.00  0.00    +0.000 A 
ATOM      4  C   UNL     1      49.141   6.844  12.353  0.00  0.00    +0.000 A 
ATOM      5  C   UNL     1      47.793   6.781  12.734  0.00  0.00    +0.000 A 
ATOM      6  C   UNL     1      46.997   7.900  12.544  0.00  0.00    +0.000 A 
ATOM      7  N   UNL     1      47.459   9.055  12.015  0.00  0.00    +0.000 NA
ATOM      8  C   UNL     1      48.763   9.100  11.667  0.00  0.00    +0.000 A 
BRANCH   3  10
ATOM      9  N   UNL     1      51.662   7.147  10.794  0.00  0.00    +0.000 N 
ATOM     10  C   UNL     1      51.037   8.212  11.378  0.00  0.00    +0.000 C 
ATOM     11  O   UNL     1      51.607   9.288  11.507  0.00  0.00    +0.000 OA
ATOM     12  H   UNL     1      52.584   7.325  10.414  0.00  0.00    +0.000 HD
ATOM     13  H   UNL     1      51.159   6.345  10.443  0.00  0.00    +0.000 HD
ENDBRANCH   3  10
ENDBRANCH   2   6
ENDBRANCH   1   2
BRANCH   1  14
ATOM     14  C   UNL     1      44.434   6.474  11.321  0.00  0.00    +0.000 C 
BRANCH  14  15
ATOM     15  C   UNL     1      44.502   5.108  10.678  0.00  0.00    +0.000 A 
ATOM     16  C   UNL     1      43.858   4.010  11.255  0.00  0.00    +0.000 A 
ATOM     17  C   UNL     1      43.958   2.773  10.633  0.00  0.00    +0.000 A 
ATOM     18  N   UNL     1      44.649   2.551   9.493  0.00  0.00    +0.000 NA
ATOM     19  C   UNL     1      45.276   3.618   8.957  0.00  0.00    +0.000 A 
ATOM     20  C   UNL     1      45.236   4.897   9.503  0.00  0.00    +0.000 A 
BRANCH  19  21
ATOM     21  C   UNL     1      46.011   3.345   7.759  0.00  0.00    +0.000 C 
ATOM     22  C   UNL     1      46.636   3.060   6.652  0.00  0.00    +0.000 C 
BRANCH  22  23
ATOM     23  C   UNL     1      47.365   2.727   5.359  0.00  0.00    +0.000 C 
BRANCH  23  24
ATOM     24  O   UNL     1      48.443   1.847   5.632  0.00  0.00    +0.000 OA
ATOM     25  H   UNL     1      48.410   1.149   4.958  0.00  0.00    +0.000 HD
ENDBRANCH  23  24
ENDBRANCH  22  23
ENDBRANCH  19  21
ENDBRANCH  14  15
ENDBRANCH   1  14
TORSDOF 8
ENDMDL
MODEL 6
REMARK VINA RESULT:    -6.326      3.991      6.590
REMARK INTER + INTRA:          -9.717
REMARK INTER:                  -9.274
REMARK INTRA:                  -0.443
REMARK UNBOUND:                -0.617
REMARK  Name = 
REMARK  8 active torsions:
REMARK  status: ('A' for Active; 'I' for Inactive)
REMARK    1  A    between atoms: C_2  and  C_4
REMARK    2  A    between atoms: C_7  and  O_8
REMARK    3  A    between atoms: O_8  and  C_9
REMARK    4  A    between atoms: C_9  and  C_10
REMARK    5  A    between atoms: C_10  and  C_11
REMARK    6  A    between atoms: C_15  and  C_16
REMARK    7  A    between atoms: C_17  and  C_18
REMARK    8  A    between atoms: C_18  and  O_19
REMARK                            x       y       z     vdW  Elec       q    Type
REMARK                         _______ _______ _______ _____ _____    ______ ____
ROOT
ATOM      1  C   UNL     1      47.404   3.822  15.934  0.00  0.00    +0.000 C 
ENDROOT
BRANCH   1   2
ATOM      2  O   UNL     1      47.570   3.291  14.608  0.00  0.00    +0.000 OA
BRANCH   2   6
ATOM      3  C   UNL     1      44.827   4.896  11.977  0.00  0.00    +0.000 A 
ATOM      4  C   UNL     1      45.560   5.749  12.805  0.00  0.00    +0.000 A 
ATOM      5  C   UNL     1      46.489   5.196  13.697  0.00  0.00    +0.000 A 
ATOM      6  C   UNL     1      46.647   3.818  13.722  0.00  0.00    +0.000 A 
ATOM      7  N   UNL     1      45.943   2.979  12.931  0.00  0.00    +0.000 NA
ATOM      8  C   UNL     1      45.044   3.530  12.086  0.00  0.00    +0.000 A 
BRANCH   3  10
ATOM      9  N   UNL     1      43.801   4.778   9.777  0.00  0.00    +0.000 N 
ATOM     10  C   UNL     1      43.814   5.366  11.010  0.00  0.00    +0.000 C 
ATOM     11  O   UNL     1      42.990   6.220  11.313  0.00  0.00    +0.000 OA
ATOM     12  H   UNL     1      43.035   5.036   9.168  0.00  0.00    +0.000 HD
ATOM     13  H   UNL     1      44.283   3.912   9.582  0.00  0.00    +0.000 HD
ENDBRANCH   3  10
ENDBRANCH   2   6
ENDBRANCH   1   2
BRANCH   1  14
ATOM     14  C   UNL     1      47.869   2.795  16.968  0.00  0.00    +0.000 C 
BRANCH  14  15
ATOM     15  C   UNL     1      49.307   3.007  17.382  0.00  0.00    +0.000 A 
ATOM     16  C   UNL     1      49.716   4.209  17.966  0.00  0.00    +0.000 A 
ATOM     17  C   UNL     1      51.050   4.361  18.321  0.00  0.00    +0.000 A 
ATOM     18  N   UNL     1      51.996   3.415  18.135  0.00  0.00    +0.000 NA
ATOM     19  C   UNL     1      51.588   2.266  17.558  0.00  0.00    +0.000 A 
ATOM     20  C   UNL     1      50.275   2.018  17.167  0.00  0.00    +0.000 A 
BRANCH  19  21
ATOM     21  C   UNL     1      52.617   1.291  17.360  0.00  0.00    +0.000 C 
ATOM     22  C   UNL     1      53.519   0.377  17.140  0.00  0.00    +0.000 C 
BRANCH  22  23
ATOM     23  C   UNL     1      54.571  -0.691  16.883  0.00  0.00    +0.000 C 
BRANCH  23  24
ATOM     24  O   UNL     1      54.246  -1.405  15.701  0.00  0.00    +0.000 OA
ATOM     25  H   UNL     1      54.114  -2.332  15.964  0.00  0.00    +0.000 HD
ENDBRANCH  23  24
ENDBRANCH  22  23
ENDBRANCH  19  21
ENDBRANCH  14  15
ENDBRANCH   1  14
TORSDOF 8
ENDMDL
MODEL 7
REMARK VINA RESULT:    -6.110      2.761      8.665
REMARK INTER + INTRA:          -9.406
REMARK INTER:                  -8.975
REMARK INTRA:                  -0.431
REMARK UNBOUND:                -0.617
REMARK  Name = 
REMARK  8 active torsions:
REMARK  status: ('A' for Active; 'I' for Inactive)
REMARK    1  A    between atoms: C_2  and  C_4
REMARK    2  A    between atoms: C_7  and  O_8
REMARK    3  A    between atoms: O_8  and  C_9
REMARK    4  A    between atoms: C_9  and  C_10
REMARK    5  A    between atoms: C_10  and  C_11
REMARK    6  A    between atoms: C_15  and  C_16
REMARK    7  A    between atoms: C_17  and  C_18
REMARK    8  A    between atoms: C_18  and  O_19
REMARK                            x       y       z     vdW  Elec       q    Type
REMARK                         _______ _______ _______ _____ _____    ______ ____
ROOT
ATOM      1  C   UNL     1      46.767   4.493  13.971  0.00  0.00    +0.000 C 
ENDROOT
BRANCH   1   2
ATOM      2  O   UNL     1      46.495   3.996  15.293  0.00  0.00    +0.000 OA
BRANCH   2   6
ATOM      3  C   UNL     1      49.627   4.660  17.894  0.00  0.00    +0.000 A 
ATOM      4  C   UNL     1      48.845   3.514  18.045  0.00  0.00    +0.000 A 
ATOM      5  C   UNL     1      47.781   3.296  17.158  0.00  0.00    +0.000 A 
ATOM      6  C   UNL     1      47.548   4.229  16.159  0.00  0.00    +0.000 A 
ATOM      7  N   UNL     1      48.292   5.346  16.003  0.00  0.00    +0.000 NA
ATOM      8  C   UNL     1      49.305   5.544  16.875  0.00  0.00    +0.000 A 
BRANCH   3  10
ATOM      9  N   UNL     1      51.452   3.962  19.340  0.00  0.00    +0.000 N 
ATOM     10  C   UNL     1      50.763   4.999  18.777  0.00  0.00    +0.000 C 
ATOM     11  O   UNL     1      51.100   6.160  18.965  0.00  0.00    +0.000 OA
ATOM     12  H   UNL     1      52.289   4.209  19.853  0.00  0.00    +0.000 HD
ATOM     13  H   UNL     1      51.368   3.011  19.012  0.00  0.00    +0.000 HD
ENDBRANCH   3  10
ENDBRANCH   2   6
ENDBRANCH   1   2
BRANCH   1  14
ATOM     14  C   UNL     1      45.507   5.130  13.385  0.00  0.00    +0.000 C 
BRANCH  14  15
ATOM     15  C   UNL     1      44.882   4.279  12.303  0.00  0.00    +0.000 A 
ATOM     16  C   UNL     1      43.752   3.501  12.565  0.00  0.00    +0.000 A 
ATOM     17  C   UNL     1      43.219   2.727  11.542  0.00  0.00    +0.000 A 
ATOM     18  N   UNL     1      43.728   2.670  10.293  0.00  0.00    +0.000 NA
ATOM     19  C   UNL     1      44.827   3.417  10.059  0.00  0.00    +0.000 A 
ATOM     20  C   UNL     1      45.434   4.224  11.017  0.00  0.00    +0.000 A 
BRANCH  19  21
ATOM     21  C   UNL     1      45.350   3.321   8.730  0.00  0.00    +0.000 C 
ATOM     22  C   UNL     1      45.869   3.197   7.541  0.00  0.00    +0.000 C 
BRANCH  22  23
ATOM     23  C   UNL     1      46.475   3.051   6.154  0.00  0.00    +0.000 C 
BRANCH  23  24
ATOM     24  O   UNL     1      47.888   2.981   6.256  0.00  0.00    +0.000 OA
ATOM     25  H   UNL     1      48.244   3.337   5.424  0.00  0.00    +0.000 HD
ENDBRANCH  23  24
ENDBRANCH  22  23
ENDBRANCH  19  21
ENDBRANCH  14  15
ENDBRANCH   1  14
TORSDOF 8
ENDMDL
MODEL 8
REMARK VINA RESULT:    -5.618      3.193      5.248
REMARK INTER + INTRA:          -8.698
REMARK INTER:                  -8.260
REMARK INTRA:                  -0.438
REMARK UNBOUND:                -0.617
REMARK  Name = 
REMARK  8 active torsions:
REMARK  status: ('A' for Active; 'I' for Inactive)
REMARK    1  A    between atoms: C_2  and  C_4
REMARK    2  A    between atoms: C_7  and  O_8
REMARK    3  A    between atoms: O_8  and  C_9
REMARK    4  A    between atoms: C_9  and  C_10
REMARK    5  A    between atoms: C_10  and  C_11
REMARK    6  A    between atoms: C_15  and  C_16
REMARK    7  A    between atoms: C_17  and  C_18
REMARK    8  A    between atoms: C_18  and  O_19
REMARK                            x       y       z     vdW  Elec       q    Type
REMARK                         _______ _______ _______ _____ _____    ______ ____
ROOT
ATOM      1  C   UNL     1      48.259   6.521  14.146  0.00  0.00    +0.000 C 
ENDROOT
BRANCH   1   2
ATOM      2  O   UNL     1      47.185   5.661  14.567  0.00  0.00    +0.000 OA
BRANCH   2   6
ATOM      3  C   UNL     1      45.003   4.280  11.350  0.00  0.00    +0.000 A 
ATOM      4  C   UNL     1      45.456   5.600  11.352  0.00  0.00    +0.000 A 
ATOM      5  C   UNL     1      46.196   6.063  12.449  0.00  0.00    +0.000 A 
ATOM      6  C   UNL     1      46.453   5.187  13.493  0.00  0.00    +0.000 A 
ATOM      7  N   UNL     1      46.018   3.907  13.509  0.00  0.00    +0.000 NA
ATOM      8  C   UNL     1      45.297   3.484  12.448  0.00  0.00    +0.000 A 
BRANCH   3  10
ATOM      9  N   UNL     1      44.008   4.452   9.139  0.00  0.00    +0.000 N 
ATOM     10  C   UNL     1      44.206   3.689  10.255  0.00  0.00    +0.000 C 
ATOM     11  O   UNL     1      43.773   2.546  10.325  0.00  0.00    +0.000 OA
ATOM     12  H   UNL     1      43.554   3.993   8.359  0.00  0.00    +0.000 HD
ATOM     13  H   UNL     1      44.553   5.280   8.941  0.00  0.00    +0.000 HD
ENDBRANCH   3  10
ENDBRANCH   2   6
ENDBRANCH   1   2
BRANCH   1  14
ATOM     14  C   UNL     1      48.693   7.416  15.308  0.00  0.00    +0.000 C 
BRANCH  14  15
ATOM     15  C   UNL     1      49.015   6.625  16.555  0.00  0.00    +0.000 A 
ATOM     16  C   UNL     1      48.568   7.049  17.809  0.00  0.00    +0.000 A 
ATOM     17  C   UNL     1      48.898   6.294  18.927  0.00  0.00    +0.000 A 
ATOM     18  N   UNL     1      49.636   5.164  18.887  0.00  0.00    +0.000 NA
ATOM     19  C   UNL     1      50.071   4.776  17.671  0.00  0.00    +0.000 A 
ATOM     20  C   UNL     1      49.795   5.462  16.493  0.00  0.00    +0.000 A 
BRANCH  19  21
ATOM     21  C   UNL     1      50.864   3.583  17.667  0.00  0.00    +0.000 C 
ATOM     22  C   UNL     1      51.540   2.470  17.691  0.00  0.00    +0.000 C 
BRANCH  22  23
ATOM     23  C   UNL     1      52.328   1.169  17.719  0.00  0.00    +0.000 C 
BRANCH  23  24
ATOM     24  O   UNL     1      51.497   0.118  18.182  0.00  0.00    +0.000 OA
ATOM     25  H   UNL     1      50.594   0.328  17.890  0.00  0.00    +0.000 HD
ENDBRANCH  23  24
ENDBRANCH  22  23
ENDBRANCH  19  21
ENDBRANCH  14  15
ENDBRANCH   1  14
TORSDOF 8
ENDMDL
MODEL 9
REMARK VINA RESULT:    -5.464      3.121      7.824
REMARK INTER + INTRA:          -8.478
REMARK INTER:                  -7.974
REMARK INTRA:                  -0.504
REMARK UNBOUND:                -0.617
REMARK  Name = 
REMARK  8 active torsions:
REMARK  status: ('A' for Active; 'I' for Inactive)
REMARK    1  A    between atoms: C_2  and  C_4
REMARK    2  A    between atoms: C_7  and  O_8
REMARK    3  A    between atoms: O_8  and  C_9
REMARK    4  A    between atoms: C_9  and  C_10
REMARK    5  A    between atoms: C_10  and  C_11
REMARK    6  A    between atoms: C_15  and  C_16
REMARK    7  A    between atoms: C_17  and  C_18
REMARK    8  A    between atoms: C_18  and  O_19
REMARK                            x       y       z     vdW  Elec       q    Type
REMARK                         _______ _______ _______ _____ _____    ______ ____
ROOT
ATOM      1  C   UNL     1      46.322   5.445  13.655  0.00  0.00    +0.000 C 
ENDROOT
BRANCH   1   2
ATOM      2  O   UNL     1      47.525   5.354  12.871  0.00  0.00    +0.000 OA
BRANCH   2   6
ATOM      3  C   UNL     1      49.849   8.745  13.204  0.00  0.00    +0.000 A 
ATOM      4  C   UNL     1      49.096   8.544  12.046  0.00  0.00    +0.000 A 
ATOM      5  C   UNL     1      48.310   7.388  11.939  0.00  0.00    +0.000 A 
ATOM      6  C   UNL     1      48.308   6.488  12.994  0.00  0.00    +0.000 A 
ATOM      7  N   UNL     1      49.034   6.666  14.120  0.00  0.00    +0.000 NA
ATOM      8  C   UNL     1      49.794   7.780  14.198  0.00  0.00    +0.000 A 
BRANCH   3  10
ATOM      9  N   UNL     1      50.647  10.545  14.630  0.00  0.00    +0.000 N 
ATOM     10  C   UNL     1      50.722   9.918  13.419  0.00  0.00    +0.000 C 
ATOM     11  O   UNL     1      51.513  10.290  12.561  0.00  0.00    +0.000 OA
ATOM     12  H   UNL     1      51.327  11.276  14.797  0.00  0.00    +0.000 HD
ATOM     13  H   UNL     1      50.207  10.122  15.435  0.00  0.00    +0.000 HD
ENDBRANCH   3  10
ENDBRANCH   2   6
ENDBRANCH   1   2
BRANCH   1  14
ATOM     14  C   UNL     1      45.144   5.827  12.758  0.00  0.00    +0.000 C 
BRANCH  14  15
ATOM     15  C   UNL     1      44.714   4.691  11.858  0.00  0.00    +0.000 A 
ATOM     16  C   UNL     1      43.731   3.786  12.265  0.00  0.00    +0.000 A 
ATOM     17  C   UNL     1      43.377   2.752  11.408  0.00  0.00    +0.000 A 
ATOM     18  N   UNL     1      43.927   2.556  10.190  0.00  0.00    +0.000 NA
ATOM     19  C   UNL     1      44.884   3.431   9.818  0.00  0.00    +0.000 A 
ATOM     20  C   UNL     1      45.308   4.497  10.604  0.00  0.00    +0.000 A 
BRANCH  19  21
ATOM     21  C   UNL     1      45.458   3.184   8.529  0.00  0.00    +0.000 C 
ATOM     22  C   UNL     1      46.025   2.997   7.371  0.00  0.00    +0.000 C 
BRANCH  22  23
ATOM     23  C   UNL     1      46.688   2.780   6.020  0.00  0.00    +0.000 C 
BRANCH  23  24
ATOM     24  O   UNL     1      47.603   1.699   6.107  0.00  0.00    +0.000 OA
ATOM     25  H   UNL     1      47.100   0.935   6.434  0.00  0.00    +0.000 HD
ENDBRANCH  23  24
ENDBRANCH  22  23
ENDBRANCH  19  21
ENDBRANCH  14  15
ENDBRANCH   1  14
TORSDOF 8
ENDMDL
