MODEL 1
REMARK VINA RESULT:    -8.698      0.000      0.000
REMARK INTER + INTRA:         -13.037
REMARK INTER:                 -12.003
REMARK INTRA:                  -1.034
REMARK UNBOUND:                -1.034
REMARK  Name = 
REMARK  7 active torsions:
REMARK  status: ('A' for Active; 'I' for Inactive)
REMARK    1  A    between atoms: N_1  and  C_2
REMARK    2  A    between atoms: C_2  and  C_3
REMARK    3  A    between atoms: C_6  and  C_7
REMARK    4  A    between atoms: C_7  and  C_8
REMARK    5  A    between atoms: C_11  and  C_12
REMARK    6  A    between atoms: C_12  and  N_13
REMARK    7  A    between atoms: C_14  and  C_16
REMARK                            x       y       z     vdW  Elec       q    Type
REMARK                         _______ _______ _______ _____ _____    ______ ____
ROOT
ATOM      1  C   UNL     1      44.551   5.308  10.996  0.00  0.00    +0.000 A 
ATOM      2  C   UNL     1      44.271   6.676  11.104  0.00  0.00    +0.000 A 
ATOM      3  C   UNL     1      45.061   7.504  11.908  0.00  0.00    +0.000 A 
ATOM      4  C   UNL     1      46.155   6.980  12.607  0.00  0.00    +0.000 A 
ATOM      5  C   UNL     1      46.386   5.598  12.564  0.00  0.00    +0.000 A 
ATOM      6  C   UNL     1      45.597   4.772  11.759  0.00  0.00    +0.000 A 
ENDROOT
BRANCH   1   7
ATOM      7  C   UNL     1      43.796   4.444  10.010  0.00  0.00    +0.000 C 
BRANCH   7  11
ATOM      8  C   UNL     1      46.434   1.994   7.713  0.00  0.00    +0.000 A 
ATOM      9  C   UNL     1      46.385   3.357   7.432  0.00  0.00    +0.000 A 
ATOM     10  C   UNL     1      45.510   4.164   8.157  0.00  0.00    +0.000 A 
ATOM     11  C   UNL     1      44.707   3.601   9.152  0.00  0.00    +0.000 A 
ATOM     12  C   UNL     1      44.829   2.232   9.363  0.00  0.00    +0.000 A 
ATOM     13  N   UNL     1      45.663   1.421   8.672  0.00  0.00    +0.000 NA
BRANCH   8  14
ATOM     14  C   UNL     1      47.443   1.104   7.020  0.00  0.00    +0.000 C 
BRANCH  14  15
ATOM     15  N   UNL     1      48.375   1.883   6.200  0.00  0.00    +0.000 NA
ATOM     16  H   UNL     1      48.198   2.874   6.352  0.00  0.00    +0.000 HD
ATOM     17  H   UNL     1      48.131   1.704   5.223  0.00  0.00    +0.000 HD
ENDBRANCH  14  15
ENDBRANCH   8  14
ENDBRANCH   7  11
ENDBRANCH   1   7
BRANCH   4  18
ATOM     18  C   UNL     1      47.075   7.881  13.388  0.00  0.00    +0.000 C 
BRANCH  18  19
ATOM     19  N   UNL     1      47.495   7.268  14.620  0.00  0.00    +0.000 N 
ATOM     20  C   UNL     1      48.780   6.815  14.783  0.00  0.00    +0.000 C 
ATOM     21  O   UNL     1      49.636   6.956  13.912  0.00  0.00    +0.000 OA
ATOM     22  H   UNL     1      46.764   6.933  15.239  0.00  0.00    +0.000 HD
BRANCH  20  23
ATOM     23  C   UNL     1      49.098   6.210  16.080  0.00  0.00    +0.000 A 
ATOM     24  C   UNL     1      50.102   6.760  16.867  0.00  0.00    +0.000 A 
ATOM     25  S   UNL     1      50.303   5.972  18.366  0.00  0.00    +0.000 S 
ATOM     26  C   UNL     1      49.095   4.835  17.995  0.00  0.00    +0.000 A 
ATOM     27  N   UNL     1      48.777   3.841  18.865  0.00  0.00    +0.000 NA
ATOM     28  C   UNL     1      47.864   3.030  18.442  0.00  0.00    +0.000 A 
ATOM     29  N   UNL     1      47.235   3.129  17.228  0.00  0.00    +0.000 N 
ATOM     30  C   UNL     1      47.502   4.135  16.329  0.00  0.00    +0.000 A 
ATOM     31  O   UNL     1      46.888   4.217  15.268  0.00  0.00    +0.000 OA
ATOM     32  C   UNL     1      48.529   5.064  16.750  0.00  0.00    +0.000 A 
ATOM     33  H   UNL     1      46.521   2.468  16.959  0.00  0.00    +0.000 HD
ENDBRANCH  20  23
ENDBRANCH  18  19
ENDBRANCH   4  18
TORSDOF 7
ENDMDL
MODEL 2
REMARK VINA RESULT:    -7.441      1.836      2.339
REMARK INTER + INTRA:         -11.303
REMARK INTER:                 -10.282
REMARK INTRA:                  -1.021
REMARK UNBOUND:                -1.034
REMARK  Name = 
REMARK  7 active torsions:
REMARK  status: ('A' for Active; 'I' for Inactive)
REMARK    1  A    between atoms: N_1  and  C_2
REMARK    2  A    between atoms: C_2  and  C_3
REMARK    3  A    between atoms: C_6  and  C_7
REMARK    4  A    between atoms: C_7  and  C_8
REMARK    5  A    between atoms: C_11  and  C_12
REMARK    6  A    between atoms: C_12  and  N_13
REMARK    7  A    between atoms: C_14  and  C_16
REMARK                            x       y       z     vdW  Elec       q    Type
REMARK                         _______ _______ _______ _____ _____    ______ ____
ROOT
ATOM      1  C   UNL     1      45.137   6.004  11.315  0.00  0.00    +0.000 A 
ATOM      2  C   UNL     1      46.318   5.672  11.990  0.00  0.00    +0.000 A 
ATOM      3  C   UNL     1      47.027   6.641  12.706  0.00  0.00    +0.000 A 
ATOM      4  C   UNL     1      46.559   7.959  12.771  0.00  0.00    +0.000 A 
ATOM      5  C   UNL     1      45.424   8.310  12.029  0.00  0.00    +0.000 A 
ATOM      6  C   UNL     1      44.715   7.341  11.314  0.00  0.00    +0.000 A 
ENDROOT
BRANCH   1   7
ATOM      7  C   UNL     1      44.290   4.929  10.672  0.00  0.00    +0.000 C 
BRANCH   7  11
ATOM      8  C   UNL     1      46.356   2.765   7.624  0.00  0.00    +0.000 A 
ATOM      9  C   UNL     1      45.654   2.044   8.586  0.00  0.00    +0.000 A 
ATOM     10  C   UNL     1      44.995   2.737   9.601  0.00  0.00    +0.000 A 
ATOM     11  C   UNL     1      45.043   4.132   9.635  0.00  0.00    +0.000 A 
ATOM     12  C   UNL     1      45.767   4.764   8.629  0.00  0.00    +0.000 A 
ATOM     13  N   UNL     1      46.421   4.121   7.635  0.00  0.00    +0.000 NA
BRANCH   8  14
ATOM     14  C   UNL     1      46.997   2.057   6.450  0.00  0.00    +0.000 C 
BRANCH  14  15
ATOM     15  N   UNL     1      48.412   2.413   6.313  0.00  0.00    +0.000 NA
ATOM     16  H   UNL     1      48.561   3.331   6.727  0.00  0.00    +0.000 HD
ATOM     17  H   UNL     1      48.593   2.526   5.313  0.00  0.00    +0.000 HD
ENDBRANCH  14  15
ENDBRANCH   8  14
ENDBRANCH   7  11
ENDBRANCH   1   7
BRANCH   4  18
ATOM     18  C   UNL     1      47.256   8.985  13.626  0.00  0.00    +0.000 C 
BRANCH  18  19
ATOM     19  N   UNL     1      47.440   8.514  14.973  0.00  0.00    +0.000 N 
ATOM     20  C   UNL     1      48.274   9.169  15.844  0.00  0.00    +0.000 C 
ATOM     21  O   UNL     1      48.856  10.206  15.534  0.00  0.00    +0.000 OA
ATOM     22  H   UNL     1      47.169   7.555  15.164  0.00  0.00    +0.000 HD
BRANCH  20  23
ATOM     23  C   UNL     1      48.383   8.602  17.192  0.00  0.00    +0.000 A 
ATOM     24  C   UNL     1      48.216   9.425  18.299  0.00  0.00    +0.000 A 
ATOM     25  S   UNL     1      48.316   8.596  19.786  0.00  0.00    +0.000 S 
ATOM     26  C   UNL     1      48.642   7.121  19.006  0.00  0.00    +0.000 A 
ATOM     27  N   UNL     1      48.861   5.984  19.719  0.00  0.00    +0.000 NA
ATOM     28  C   UNL     1      49.127   4.944  19.002  0.00  0.00    +0.000 A 
ATOM     29  N   UNL     1      49.189   4.937  17.633  0.00  0.00    +0.000 N 
ATOM     30  C   UNL     1      48.947   6.053  16.868  0.00  0.00    +0.000 A 
ATOM     31  O   UNL     1      48.969   6.000  15.641  0.00  0.00    +0.000 OA
ATOM     32  C   UNL     1      48.655   7.252  17.627  0.00  0.00    +0.000 A 
ATOM     33  H   UNL     1      49.394   4.087  17.128  0.00  0.00    +0.000 HD
ENDBRANCH  20  23
ENDBRANCH  18  19
ENDBRANCH   4  18
TORSDOF 7
ENDMDL
MODEL 3
REMARK VINA RESULT:    -6.994      4.870      7.419
REMARK INTER + INTRA:         -10.685
REMARK INTER:                  -9.600
REMARK INTRA:                  -1.085
REMARK UNBOUND:                -1.034
REMARK  Name = 
REMARK  7 active torsions:
REMARK  status: ('A' for Active; 'I' for Inactive)
REMARK    1  A    between atoms: N_1  and  C_2
REMARK    2  A    between atoms: C_2  and  C_3
REMARK    3  A    between atoms: C_6  and  C_7
REMARK    4  A    between atoms: C_7  and  C_8
REMARK    5  A    between atoms: C_11  and  C_12
REMARK    6  A    between atoms: C_12  and  N_13
REMARK    7  A    between atoms: C_14  and  C_16
REMARK                            x       y       z     vdW  Elec       q    Type
REMARK                         _______ _______ _______ _____ _____    ______ ____
ROOT
ATOM      1  C   UNL     1      51.103   8.578  11.191  0.00  0.00    +0.000 A 
ATOM      2  C   UNL     1      50.506   7.370  11.574  0.00  0.00    +0.000 A 
ATOM      3  C   UNL     1      49.143   7.317  11.886  0.00  0.00    +0.000 A 
ATOM      4  C   UNL     1      48.351   8.468  11.807  0.00  0.00    +0.000 A 
ATOM      5  C   UNL     1      48.965   9.691  11.503  0.00  0.00    +0.000 A 
ATOM      6  C   UNL     1      50.326   9.744  11.190  0.00  0.00    +0.000 A 
ENDROOT
BRANCH   1   7
ATOM      7  C   UNL     1      52.535   8.607  10.705  0.00  0.00    +0.000 C 
BRANCH   7  11
ATOM      8  C   UNL     1      53.529   5.553   7.890  0.00  0.00    +0.000 A 
ATOM      9  C   UNL     1      52.745   6.619   7.458  0.00  0.00    +0.000 A 
ATOM     10  C   UNL     1      52.393   7.610   8.373  0.00  0.00    +0.000 A 
ATOM     11  C   UNL     1      52.833   7.524   9.696  0.00  0.00    +0.000 A 
ATOM     12  C   UNL     1      53.614   6.424  10.032  0.00  0.00    +0.000 A 
ATOM     13  N   UNL     1      53.968   5.443   9.170  0.00  0.00    +0.000 NA
BRANCH   8  14
ATOM     14  C   UNL     1      54.018   4.512   6.905  0.00  0.00    +0.000 C 
BRANCH  14  15
ATOM     15  N   UNL     1      53.111   3.363   6.841  0.00  0.00    +0.000 NA
ATOM     16  H   UNL     1      52.715   3.204   7.765  0.00  0.00    +0.000 HD
ATOM     17  H   UNL     1      53.686   2.542   6.638  0.00  0.00    +0.000 HD
ENDBRANCH  14  15
ENDBRANCH   8  14
ENDBRANCH   7  11
ENDBRANCH   1   7
BRANCH   4  18
ATOM     18  C   UNL     1      46.864   8.399  12.037  0.00  0.00    +0.000 C 
BRANCH  18  19
ATOM     19  N   UNL     1      46.364   7.062  11.865  0.00  0.00    +0.000 N 
ATOM     20  C   UNL     1      45.045   6.833  11.566  0.00  0.00    +0.000 C 
ATOM     21  O   UNL     1      44.249   7.751  11.383  0.00  0.00    +0.000 OA
ATOM     22  H   UNL     1      46.930   6.308  12.241  0.00  0.00    +0.000 HD
BRANCH  20  23
ATOM     23  C   UNL     1      44.645   5.430  11.411  0.00  0.00    +0.000 A 
ATOM     24  C   UNL     1      43.907   4.811  12.412  0.00  0.00    +0.000 A 
ATOM     25  S   UNL     1      43.477   3.202  12.047  0.00  0.00    +0.000 S 
ATOM     26  C   UNL     1      44.308   3.257  10.564  0.00  0.00    +0.000 A 
ATOM     27  N   UNL     1      44.357   2.171   9.747  0.00  0.00    +0.000 NA
ATOM     28  C   UNL     1      45.047   2.343   8.669  0.00  0.00    +0.000 A 
ATOM     29  N   UNL     1      45.689   3.505   8.331  0.00  0.00    +0.000 N 
ATOM     30  C   UNL     1      45.643   4.637   9.110  0.00  0.00    +0.000 A 
ATOM     31  O   UNL     1      46.195   5.676   8.754  0.00  0.00    +0.000 OA
ATOM     32  C   UNL     1      44.891   4.494  10.339  0.00  0.00    +0.000 A 
ATOM     33  H   UNL     1      46.207   3.579   7.467  0.00  0.00    +0.000 HD
ENDBRANCH  20  23
ENDBRANCH  18  19
ENDBRANCH   4  18
TORSDOF 7
ENDMDL
MODEL 4
REMARK VINA RESULT:    -6.869      3.773      8.276
REMARK INTER + INTRA:         -10.513
REMARK INTER:                  -9.366
REMARK INTRA:                  -1.147
REMARK UNBOUND:                -1.034
REMARK  Name = 
REMARK  7 active torsions:
REMARK  status: ('A' for Active; 'I' for Inactive)
REMARK    1  A    between atoms: N_1  and  C_2
REMARK    2  A    between atoms: C_2  and  C_3
REMARK    3  A    between atoms: C_6  and  C_7
REMARK    4  A    between atoms: C_7  and  C_8
REMARK    5  A    between atoms: C_11  and  C_12
REMARK    6  A    between atoms: C_12  and  N_13
REMARK    7  A    between atoms: C_14  and  C_16
REMARK                            x       y       z     vdW  Elec       q    Type
REMARK                         _______ _______ _______ _____ _____    ______ ____
ROOT
ATOM      1  C   UNL     1      50.190   5.041  17.405  0.00  0.00    +0.000 A 
ATOM      2  C   UNL     1      50.942   6.046  16.783  0.00  0.00    +0.000 A 
ATOM      3  C   UNL     1      50.364   6.869  15.810  0.00  0.00    +0.000 A 
ATOM      4  C   UNL     1      49.020   6.709  15.453  0.00  0.00    +0.000 A 
ATOM      5  C   UNL     1      48.292   5.652  16.015  0.00  0.00    +0.000 A 
ATOM      6  C   UNL     1      48.869   4.831  16.988  0.00  0.00    +0.000 A 
ENDROOT
BRANCH   1   7
ATOM      7  C   UNL     1      50.766   4.257  18.563  0.00  0.00    +0.000 C 
BRANCH   7  11
ATOM      8  C   UNL     1      53.454   1.148  17.400  0.00  0.00    +0.000 A 
ATOM      9  C   UNL     1      53.989   2.334  17.896  0.00  0.00    +0.000 A 
ATOM     10  C   UNL     1      53.125   3.366  18.256  0.00  0.00    +0.000 A 
ATOM     11  C   UNL     1      51.744   3.196  18.123  0.00  0.00    +0.000 A 
ATOM     12  C   UNL     1      51.304   1.976  17.621  0.00  0.00    +0.000 A 
ATOM     13  N   UNL     1      52.117   0.957  17.257  0.00  0.00    +0.000 NA
BRANCH   8  14
ATOM     14  C   UNL     1      54.352  -0.031  17.096  0.00  0.00    +0.000 C 
BRANCH  14  15
ATOM     15  N   UNL     1      53.903  -0.756  15.904  0.00  0.00    +0.000 NA
ATOM     16  H   UNL     1      54.719  -1.074  15.385  0.00  0.00    +0.000 HD
ATOM     17  H   UNL     1      53.437  -0.074  15.300  0.00  0.00    +0.000 HD
ENDBRANCH  14  15
ENDBRANCH   8  14
ENDBRANCH   7  11
ENDBRANCH   1   7
BRANCH   4  18
ATOM     18  C   UNL     1      48.361   7.657  14.485  0.00  0.00    +0.000 C 
BRANCH  18  19
ATOM     19  N   UNL     1      47.128   7.120  13.974  0.00  0.00    +0.000 N 
ATOM     20  C   UNL     1      46.909   7.014  12.624  0.00  0.00    +0.000 C 
ATOM     21  O   UNL     1      47.765   7.322  11.798  0.00  0.00    +0.000 OA
ATOM     22  H   UNL     1      46.341   7.090  14.614  0.00  0.00    +0.000 HD
BRANCH  20  23
ATOM     23  C   UNL     1      45.618   6.449  12.217  0.00  0.00    +0.000 A 
ATOM     24  C   UNL     1      44.651   7.277  11.661  0.00  0.00    +0.000 A 
ATOM     25  S   UNL     1      43.235   6.452  11.189  0.00  0.00    +0.000 S 
ATOM     26  C   UNL     1      43.840   4.970  11.762  0.00  0.00    +0.000 A 
ATOM     27  N   UNL     1      43.099   3.833  11.683  0.00  0.00    +0.000 NA
ATOM     28  C   UNL     1      43.669   2.787  12.184  0.00  0.00    +0.000 A 
ATOM     29  N   UNL     1      44.916   2.775  12.751  0.00  0.00    +0.000 N 
ATOM     30  C   UNL     1      45.714   3.892  12.825  0.00  0.00    +0.000 A 
ATOM     31  O   UNL     1      46.845   3.834  13.301  0.00  0.00    +0.000 OA
ATOM     32  C   UNL     1      45.116   5.097  12.288  0.00  0.00    +0.000 A 
ATOM     33  H   UNL     1      45.310   1.920  13.117  0.00  0.00    +0.000 HD
ENDBRANCH  20  23
ENDBRANCH  18  19
ENDBRANCH   4  18
TORSDOF 7
ENDMDL
MODEL 5
REMARK VINA RESULT:    -6.833      3.454      5.190
REMARK INTER + INTRA:         -10.463
REMARK INTER:                  -9.349
REMARK INTRA:                  -1.114
REMARK UNBOUND:                -1.034
REMARK  Name = 
REMARK  7 active torsions:
REMARK  status: ('A' for Active; 'I' for Inactive)
REMARK    1  A    between atoms: N_1  and  C_2
REMARK    2  A    between atoms: C_2  and  C_3
REMARK    3  A    between atoms: C_6  and  C_7
REMARK    4  A    between atoms: C_7  and  C_8
REMARK    5  A    between atoms: C_11  and  C_12
REMARK    6  A    between atoms: C_12  and  N_13
REMARK    7  A    between atoms: C_14  and  C_16
REMARK                            x       y       z     vdW  Elec       q    Type
REMARK                         _______ _______ _______ _____ _____    ______ ____
ROOT
ATOM      1  C   UNL     1      45.347   5.315  11.690  0.00  0.00    +0.000 A 
ATOM      2  C   UNL     1      45.730   6.662  11.730  0.00  0.00    +0.000 A 
ATOM      3  C   UNL     1      46.687   7.104  12.649  0.00  0.00    +0.000 A 
ATOM      4  C   UNL     1      47.287   6.204  13.538  0.00  0.00    +0.000 A 
ATOM      5  C   UNL     1      46.844   4.874  13.554  0.00  0.00    +0.000 A 
ATOM      6  C   UNL     1      45.890   4.432  12.634  0.00  0.00    +0.000 A 
ENDROOT
BRANCH   1   7
ATOM      7  C   UNL     1      44.433   4.808  10.598  0.00  0.00    +0.000 C 
BRANCH   7  11
ATOM      8  C   UNL     1      46.450   2.758   7.440  0.00  0.00    +0.000 A 
ATOM      9  C   UNL     1      45.814   2.000   8.419  0.00  0.00    +0.000 A 
ATOM     10  C   UNL     1      45.172   2.656   9.469  0.00  0.00    +0.000 A 
ATOM     11  C   UNL     1      45.171   4.052   9.520  0.00  0.00    +0.000 A 
ATOM     12  C   UNL     1      45.830   4.722   8.495  0.00  0.00    +0.000 A 
ATOM     13  N   UNL     1      46.467   4.115   7.467  0.00  0.00    +0.000 NA
BRANCH   8  14
ATOM     14  C   UNL     1      47.067   2.088   6.232  0.00  0.00    +0.000 C 
BRANCH  14  15
ATOM     15  N   UNL     1      48.502   1.856   6.419  0.00  0.00    +0.000 NA
ATOM     16  H   UNL     1      48.630   1.159   7.149  0.00  0.00    +0.000 HD
ATOM     17  H   UNL     1      48.896   2.724   6.790  0.00  0.00    +0.000 HD
ENDBRANCH  14  15
ENDBRANCH   8  14
ENDBRANCH   7  11
ENDBRANCH   1   7
BRANCH   4  18
ATOM     18  C   UNL     1      48.393   6.649  14.458  0.00  0.00    +0.000 C 
BRANCH  18  19
ATOM     19  N   UNL     1      49.514   7.170  13.724  0.00  0.00    +0.000 N 
ATOM     20  C   UNL     1      50.329   8.133  14.265  0.00  0.00    +0.000 C 
ATOM     21  O   UNL     1      50.170   8.554  15.409  0.00  0.00    +0.000 OA
ATOM     22  H   UNL     1      49.517   7.018  12.721  0.00  0.00    +0.000 HD
BRANCH  20  23
ATOM     23  C   UNL     1      51.444   8.589  13.428  0.00  0.00    +0.000 A 
ATOM     24  C   UNL     1      52.748   8.292  13.801  0.00  0.00    +0.000 A 
ATOM     25  S   UNL     1      53.918   8.844  12.689  0.00  0.00    +0.000 S 
ATOM     26  C   UNL     1      52.728   9.547  11.700  0.00  0.00    +0.000 A 
ATOM     27  N   UNL     1      53.064  10.218  10.567  0.00  0.00    +0.000 NA
ATOM     28  C   UNL     1      52.064  10.728   9.928  0.00  0.00    +0.000 A 
ATOM     29  N   UNL     1      50.755  10.622  10.319  0.00  0.00    +0.000 N 
ATOM     30  C   UNL     1      50.363   9.929  11.439  0.00  0.00    +0.000 A 
ATOM     31  O   UNL     1      49.176   9.818  11.735  0.00  0.00    +0.000 OA
ATOM     32  C   UNL     1      51.450   9.347  12.199  0.00  0.00    +0.000 A 
ATOM     33  H   UNL     1      50.015  11.037   9.770  0.00  0.00    +0.000 HD
ENDBRANCH  20  23
ENDBRANCH  18  19
ENDBRANCH   4  18
TORSDOF 7
ENDMDL
MODEL 6
REMARK VINA RESULT:    -6.775      4.679      8.946
REMARK INTER + INTRA:         -10.384
REMARK INTER:                  -9.755
REMARK INTRA:                  -0.629
REMARK UNBOUND:                -1.034
REMARK  Name = 
REMARK  7 active torsions:
REMARK  status: ('A' for Active; 'I' for Inactive)
REMARK    1  A    between atoms: N_1  and  C_2
REMARK    2  A    between atoms: C_2  and  C_3
REMARK    3  A    between atoms: C_6  and  C_7
REMARK    4  A    between atoms: C_7  and  C_8
REMARK    5  A    between atoms: C_11  and  C_12
REMARK    6  A    between atoms: C_12  and  N_13
REMARK    7  A    between atoms: C_14  and  C_16
REMARK                            x       y       z     vdW  Elec       q    Type
REMARK                         _______ _______ _______ _____ _____    ______ ____
ROOT
ATOM      1  C   UNL     1      51.717   3.146  17.813  0.00  0.00    +0.000 A 
ATOM      2  C   UNL     1      51.056   4.373  17.950  0.00  0.00    +0.000 A 
ATOM      3  C   UNL     1      49.693   4.485  17.658  0.00  0.00    +0.000 A 
ATOM      4  C   UNL     1      48.963   3.367  17.237  0.00  0.00    +0.000 A 
ATOM      5  C   UNL     1      49.641   2.160  17.021  0.00  0.00    +0.000 A 
ATOM      6  C   UNL     1      51.003   2.048  17.314  0.00  0.00    +0.000 A 
ENDROOT
BRANCH   1   7
ATOM      7  C   UNL     1      53.148   2.988  18.275  0.00  0.00    +0.000 C 
BRANCH   7  11
ATOM      8  C   UNL     1      54.843  -0.681  16.895  0.00  0.00    +0.000 A 
ATOM      9  C   UNL     1      54.010  -0.716  18.010  0.00  0.00    +0.000 A 
ATOM     10  C   UNL     1      53.469   0.477  18.486  0.00  0.00    +0.000 A 
ATOM     11  C   UNL     1      53.763   1.680  17.840  0.00  0.00    +0.000 A 
ATOM     12  C   UNL     1      54.603   1.615  16.733  0.00  0.00    +0.000 A 
ATOM     13  N   UNL     1      55.148   0.474  16.250  0.00  0.00    +0.000 NA
BRANCH   8  14
ATOM     14  C   UNL     1      55.365  -1.965  16.287  0.00  0.00    +0.000 C 
BRANCH  14  15
ATOM     15  N   UNL     1      54.495  -2.441  15.207  0.00  0.00    +0.000 NA
ATOM     16  H   UNL     1      54.699  -3.423  15.030  0.00  0.00    +0.000 HD
ATOM     17  H   UNL     1      54.774  -1.942  14.360  0.00  0.00    +0.000 HD
ENDBRANCH  14  15
ENDBRANCH   8  14
ENDBRANCH   7  11
ENDBRANCH   1   7
BRANCH   4  18
ATOM     18  C   UNL     1      47.475   3.453  17.023  0.00  0.00    +0.000 C 
BRANCH  18  19
ATOM     19  N   UNL     1      47.136   4.467  16.060  0.00  0.00    +0.000 N 
ATOM     20  C   UNL     1      47.127   4.192  14.716  0.00  0.00    +0.000 C 
ATOM     21  O   UNL     1      47.356   3.066  14.279  0.00  0.00    +0.000 OA
ATOM     22  H   UNL     1      47.182   5.431  16.374  0.00  0.00    +0.000 HD
BRANCH  20  23
ATOM     23  C   UNL     1      46.765   5.300  13.826  0.00  0.00    +0.000 A 
ATOM     24  C   UNL     1      47.651   6.355  13.647  0.00  0.00    +0.000 A 
ATOM     25  S   UNL     1      47.100   7.528  12.537  0.00  0.00    +0.000 S 
ATOM     26  C   UNL     1      45.636   6.697  12.300  0.00  0.00    +0.000 A 
ATOM     27  N   UNL     1      44.680   7.186  11.467  0.00  0.00    +0.000 NA
ATOM     28  C   UNL     1      43.606   6.470  11.405  0.00  0.00    +0.000 A 
ATOM     29  N   UNL     1      43.405   5.305  12.097  0.00  0.00    +0.000 N 
ATOM     30  C   UNL     1      44.354   4.756  12.927  0.00  0.00    +0.000 A 
ATOM     31  O   UNL     1      44.155   3.687  13.498  0.00  0.00    +0.000 OA
ATOM     32  C   UNL     1      45.574   5.528  13.042  0.00  0.00    +0.000 A 
ATOM     33  H   UNL     1      42.545   4.785  11.998  0.00  0.00    +0.000 HD
ENDBRANCH  20  23
ENDBRANCH  18  19
ENDBRANCH   4  18
TORSDOF 7
ENDMDL
MODEL 7
REMARK VINA RESULT:    -6.466      4.609      8.915
REMARK INTER + INTRA:          -9.956
REMARK INTER:                  -9.120
REMARK INTRA:                  -0.837
REMARK UNBOUND:                -1.034
REMARK  Name = 
REMARK  7 active torsions:
REMARK  status: ('A' for Active; 'I' for Inactive)
REMARK    1  A    between atoms: N_1  and  C_2
REMARK    2  A    between atoms: C_2  and  C_3
REMARK    3  A    between atoms: C_6  and  C_7
REMARK    4  A    between atoms: C_7  and  C_8
REMARK    5  A    between atoms: C_11  and  C_12
REMARK    6  A    between atoms: C_12  and  N_13
REMARK    7  A    between atoms: C_14  and  C_16
REMARK                            x       y       z     vdW  Elec       q    Type
REMARK                         _______ _______ _______ _____ _____    ______ ____
ROOT
ATOM      1  C   UNL     1      51.771   3.154  17.859  0.00  0.00    +0.000 A 
ATOM      2  C   UNL     1      51.103   4.368  18.062  0.00  0.00    +0.000 A 
ATOM      3  C   UNL     1      49.737   4.485  17.783  0.00  0.00    +0.000 A 
ATOM      4  C   UNL     1      49.013   3.385  17.308  0.00  0.00    +0.000 A 
ATOM      5  C   UNL     1      49.698   2.196  17.026  0.00  0.00    +0.000 A 
ATOM      6  C   UNL     1      51.062   2.078  17.307  0.00  0.00    +0.000 A 
ENDROOT
BRANCH   1   7
ATOM      7  C   UNL     1      53.206   2.982  18.305  0.00  0.00    +0.000 C 
BRANCH   7  11
ATOM      8  C   UNL     1      54.955  -0.553  16.668  0.00  0.00    +0.000 A 
ATOM      9  C   UNL     1      54.037  -0.690  17.706  0.00  0.00    +0.000 A 
ATOM     10  C   UNL     1      53.477   0.457  18.266  0.00  0.00    +0.000 A 
ATOM     11  C   UNL     1      53.836   1.716  17.778  0.00  0.00    +0.000 A 
ATOM     12  C   UNL     1      54.758   1.752  16.738  0.00  0.00    +0.000 A 
ATOM     13  N   UNL     1      55.323   0.658  16.177  0.00  0.00    +0.000 NA
BRANCH   8  14
ATOM     14  C   UNL     1      55.506  -1.775  15.965  0.00  0.00    +0.000 C 
BRANCH  14  15
ATOM     15  N   UNL     1      54.454  -2.504  15.249  0.00  0.00    +0.000 NA
ATOM     16  H   UNL     1      54.725  -2.597  14.272  0.00  0.00    +0.000 HD
ATOM     17  H   UNL     1      53.625  -1.905  15.252  0.00  0.00    +0.000 HD
ENDBRANCH  14  15
ENDBRANCH   8  14
ENDBRANCH   7  11
ENDBRANCH   1   7
BRANCH   4  18
ATOM     18  C   UNL     1      47.523   3.472  17.105  0.00  0.00    +0.000 C 
BRANCH  18  19
ATOM     19  N   UNL     1      47.179   4.464  16.122  0.00  0.00    +0.000 N 
ATOM     20  C   UNL     1      47.144   4.153  14.786  0.00  0.00    +0.000 C 
ATOM     21  O   UNL     1      47.353   3.013  14.376  0.00  0.00    +0.000 OA
ATOM     22  H   UNL     1      47.242   5.435  16.408  0.00  0.00    +0.000 HD
BRANCH  20  23
ATOM     23  C   UNL     1      46.779   5.241  13.873  0.00  0.00    +0.000 A 
ATOM     24  C   UNL     1      45.610   5.149  13.128  0.00  0.00    +0.000 A 
ATOM     25  S   UNL     1      45.306   6.523  12.164  0.00  0.00    +0.000 S 
ATOM     26  C   UNL     1      46.752   7.264  12.665  0.00  0.00    +0.000 A 
ATOM     27  N   UNL     1      47.118   8.482  12.184  0.00  0.00    +0.000 NA
ATOM     28  C   UNL     1      48.254   8.912  12.625  0.00  0.00    +0.000 A 
ATOM     29  N   UNL     1      49.053   8.236  13.509  0.00  0.00    +0.000 N 
ATOM     30  C   UNL     1      48.711   7.018  14.045  0.00  0.00    +0.000 A 
ATOM     31  O   UNL     1      49.433   6.461  14.868  0.00  0.00    +0.000 OA
ATOM     32  C   UNL     1      47.450   6.484  13.572  0.00  0.00    +0.000 A 
ATOM     33  H   UNL     1      49.928   8.632  13.823  0.00  0.00    +0.000 HD
ENDBRANCH  20  23
ENDBRANCH  18  19
ENDBRANCH   4  18
TORSDOF 7
ENDMDL
MODEL 8
REMARK VINA RESULT:    -6.289      2.915      8.674
REMARK INTER + INTRA:          -9.713
REMARK INTER:                  -8.600
REMARK INTRA:                  -1.113
REMARK UNBOUND:                -1.034
REMARK  Name = 
REMARK  7 active torsions:
REMARK  status: ('A' for Active; 'I' for Inactive)
REMARK    1  A    between atoms: N_1  and  C_2
REMARK    2  A    between atoms: C_2  and  C_3
REMARK    3  A    between atoms: C_6  and  C_7
REMARK    4  A    between atoms: C_7  and  C_8
REMARK    5  A    between atoms: C_11  and  C_12
REMARK    6  A    between atoms: C_12  and  N_13
REMARK    7  A    between atoms: C_14  and  C_16
REMARK                            x       y       z     vdW  Elec       q    Type
REMARK                         _______ _______ _______ _____ _____    ______ ____
ROOT
ATOM      1  C   UNL     1      50.274   8.119  15.109  0.00  0.00    +0.000 A 
ATOM      2  C   UNL     1      48.902   8.353  15.268  0.00  0.00    +0.000 A 
ATOM      3  C   UNL     1      48.050   8.384  14.159  0.00  0.00    +0.000 A 
ATOM      4  C   UNL     1      48.555   8.168  12.871  0.00  0.00    +0.000 A 
ATOM      5  C   UNL     1      49.938   8.017  12.704  0.00  0.00    +0.000 A 
ATOM      6  C   UNL     1      50.788   7.984  13.812  0.00  0.00    +0.000 A 
ENDROOT
BRANCH   1   7
ATOM      7  C   UNL     1      51.166   7.932  16.315  0.00  0.00    +0.000 C 
BRANCH   7  11
ATOM      8  C   UNL     1      49.357   5.308  19.158  0.00  0.00    +0.000 A 
ATOM      9  C   UNL     1      49.372   6.672  19.434  0.00  0.00    +0.000 A 
ATOM     10  C   UNL     1      49.981   7.537  18.527  0.00  0.00    +0.000 A 
ATOM     11  C   UNL     1      50.557   7.029  17.360  0.00  0.00    +0.000 A 
ATOM     12  C   UNL     1      50.489   5.653  17.170  0.00  0.00    +0.000 A 
ATOM     13  N   UNL     1      49.911   4.787  18.034  0.00  0.00    +0.000 NA
BRANCH   8  14
ATOM     14  C   UNL     1      48.616   4.350  20.066  0.00  0.00    +0.000 C 
BRANCH  14  15
ATOM     15  N   UNL     1      48.299   3.094  19.379  0.00  0.00    +0.000 NA
ATOM     16  H   UNL     1      48.062   3.299  18.411  0.00  0.00    +0.000 HD
ATOM     17  H   UNL     1      47.443   2.731  19.805  0.00  0.00    +0.000 HD
ENDBRANCH  14  15
ENDBRANCH   8  14
ENDBRANCH   7  11
ENDBRANCH   1   7
BRANCH   4  18
ATOM     18  C   UNL     1      47.632   8.094  11.683  0.00  0.00    +0.000 C 
BRANCH  18  19
ATOM     19  N   UNL     1      46.955   6.827  11.618  0.00  0.00    +0.000 N 
ATOM     20  C   UNL     1      45.590   6.747  11.734  0.00  0.00    +0.000 C 
ATOM     21  O   UNL     1      44.885   7.748  11.848  0.00  0.00    +0.000 OA
ATOM     22  H   UNL     1      47.519   5.996  11.765  0.00  0.00    +0.000 HD
BRANCH  20  23
ATOM     23  C   UNL     1      45.006   5.404  11.651  0.00  0.00    +0.000 A 
ATOM     24  C   UNL     1      44.383   4.855  12.764  0.00  0.00    +0.000 A 
ATOM     25  S   UNL     1      43.708   3.315  12.479  0.00  0.00    +0.000 S 
ATOM     26  C   UNL     1      44.271   3.303  10.875  0.00  0.00    +0.000 A 
ATOM     27  N   UNL     1      44.049   2.237  10.061  0.00  0.00    +0.000 NA
ATOM     28  C   UNL     1      44.559   2.349   8.880  0.00  0.00    +0.000 A 
ATOM     29  N   UNL     1      45.266   3.436   8.436  0.00  0.00    +0.000 N 
ATOM     30  C   UNL     1      45.490   4.549   9.211  0.00  0.00    +0.000 A 
ATOM     31  O   UNL     1      46.092   5.522   8.765  0.00  0.00    +0.000 OA
ATOM     32  C   UNL     1      44.949   4.468  10.552  0.00  0.00    +0.000 A 
ATOM     33  H   UNL     1      45.632   3.466   7.495  0.00  0.00    +0.000 HD
ENDBRANCH  20  23
ENDBRANCH  18  19
ENDBRANCH   4  18
TORSDOF 7
ENDMDL
MODEL 9
REMARK VINA RESULT:    -6.232      1.725      2.658
REMARK INTER + INTRA:          -9.634
REMARK INTER:                  -8.611
REMARK INTRA:                  -1.023
REMARK UNBOUND:                -1.034
REMARK  Name = 
REMARK  7 active torsions:
REMARK  status: ('A' for Active; 'I' for Inactive)
REMARK    1  A    between atoms: N_1  and  C_2
REMARK    2  A    between atoms: C_2  and  C_3
REMARK    3  A    between atoms: C_6  and  C_7
REMARK    4  A    between atoms: C_7  and  C_8
REMARK    5  A    between atoms: C_11  and  C_12
REMARK    6  A    between atoms: C_12  and  N_13
REMARK    7  A    between atoms: C_14  and  C_16
REMARK                            x       y       z     vdW  Elec       q    Type
REMARK                         _______ _______ _______ _____ _____    ______ ____
ROOT
ATOM      1  C   UNL     1      45.846   6.770  12.532  0.00  0.00    +0.000 A 
ATOM      2  C   UNL     1      46.823   5.806  12.810  0.00  0.00    +0.000 A 
ATOM      3  C   UNL     1      48.057   6.177  13.354  0.00  0.00    +0.000 A 
ATOM      4  C   UNL     1      48.329   7.520  13.644  0.00  0.00    +0.000 A 
ATOM      5  C   UNL     1      47.384   8.492  13.291  0.00  0.00    +0.000 A 
ATOM      6  C   UNL     1      46.151   8.121  12.748  0.00  0.00    +0.000 A 
ENDROOT
BRANCH   1   7
ATOM      7  C   UNL     1      44.460   6.355  12.091  0.00  0.00    +0.000 C 
BRANCH   7  11
ATOM      8  C   UNL     1      44.532   2.899   9.583  0.00  0.00    +0.000 A 
ATOM      9  C   UNL     1      45.256   4.019   9.185  0.00  0.00    +0.000 A 
ATOM     10  C   UNL     1      45.221   5.162   9.982  0.00  0.00    +0.000 A 
ATOM     11  C   UNL     1      44.473   5.166  11.162  0.00  0.00    +0.000 A 
ATOM     12  C   UNL     1      43.786   3.999  11.477  0.00  0.00    +0.000 A 
ATOM     13  N   UNL     1      43.794   2.876  10.723  0.00  0.00    +0.000 NA
BRANCH   8  14
ATOM     14  C   UNL     1      44.626   1.606   8.801  0.00  0.00    +0.000 C 
BRANCH  14  15
ATOM     15  N   UNL     1      46.013   1.292   8.446  0.00  0.00    +0.000 NA
ATOM     16  H   UNL     1      46.548   2.157   8.412  0.00  0.00    +0.000 HD
ATOM     17  H   UNL     1      46.000   0.935   7.488  0.00  0.00    +0.000 HD
ENDBRANCH  14  15
ENDBRANCH   8  14
ENDBRANCH   7  11
ENDBRANCH   1   7
BRANCH   4  18
ATOM     18  C   UNL     1      49.611   7.917  14.328  0.00  0.00    +0.000 C 
BRANCH  18  19
ATOM     19  N   UNL     1      49.620   7.515  15.709  0.00  0.00    +0.000 N 
ATOM     20  C   UNL     1      50.764   7.041  16.301  0.00  0.00    +0.000 C 
ATOM     21  O   UNL     1      51.835   6.986  15.700  0.00  0.00    +0.000 OA
ATOM     22  H   UNL     1      48.720   7.328  16.139  0.00  0.00    +0.000 HD
BRANCH  20  23
ATOM     23  C   UNL     1      50.658   6.663  17.714  0.00  0.00    +0.000 A 
ATOM     24  C   UNL     1      51.446   7.308  18.658  0.00  0.00    +0.000 A 
ATOM     25  S   UNL     1      51.157   6.790  20.258  0.00  0.00    +0.000 S 
ATOM     26  C   UNL     1      50.010   5.647  19.739  0.00  0.00    +0.000 A 
ATOM     27  N   UNL     1      49.382   4.832  20.627  0.00  0.00    +0.000 NA
ATOM     28  C   UNL     1      48.559   3.991  20.094  0.00  0.00    +0.000 A 
ATOM     29  N   UNL     1      48.303   3.896  18.751  0.00  0.00    +0.000 N 
ATOM     30  C   UNL     1      48.890   4.718  17.819  0.00  0.00    +0.000 A 
ATOM     31  O   UNL     1      48.604   4.633  16.627  0.00  0.00    +0.000 OA
ATOM     32  C   UNL     1      49.833   5.672  18.365  0.00  0.00    +0.000 A 
ATOM     33  H   UNL     1      47.640   3.222  18.397  0.00  0.00    +0.000 HD
ENDBRANCH  20  23
ENDBRANCH  18  19
ENDBRANCH   4  18
TORSDOF 7
ENDMDL
