MODEL 1
REMARK VINA RESULT:    -7.906      0.000      0.000
REMARK INTER + INTRA:         -13.121
REMARK INTER:                 -12.297
REMARK INTRA:                  -0.824
REMARK UNBOUND:                -0.824
REMARK  Name = 
REMARK  10 active torsions:
REMARK  status: ('A' for Active; 'I' for Inactive)
REMARK    1  A    between atoms: N_1  and  C_2
REMARK    2  A    between atoms: C_2  and  C_3
REMARK    3  A    between atoms: C_3  and  N_4
REMARK    4  A    between atoms: C_3  and  C_20
REMARK    5  A    between atoms: N_4  and  C_5
REMARK    6  A    between atoms: C_5  and  C_6
REMARK    7  A    between atoms: C_9  and  C_10
REMARK    8  A    between atoms: C_10  and  O_11
REMARK    9  A    between atoms: O_11  and  C_12
REMARK   10  A    between atoms: C_12  and  C_13
REMARK                            x       y       z     vdW  Elec       q    Type
REMARK                         _______ _______ _______ _____ _____    ______ ____
ROOT
ATOM      1  N   UNL     1      48.318   4.706  15.695  0.00  0.00    +0.000 NA
ATOM      2  H   UNL     1      49.242   4.335  15.473  0.00  0.00    +0.000 HD
ENDROOT
BRANCH   1   3
ATOM      3  C   UNL     1      48.332   5.156  17.104  0.00  0.00    +0.000 C 
BRANCH   3   4
ATOM      4  C   UNL     1      49.702   4.843  17.712  0.00  0.00    +0.000 A 
ATOM      5  C   UNL     1      50.537   5.746  18.355  0.00  0.00    +0.000 A 
ATOM      6  S   UNL     1      52.076   5.098  18.734  0.00  0.00    +0.000 S 
ATOM      7  C   UNL     1      51.674   3.583  18.068  0.00  0.00    +0.000 A 
ATOM      8  N   UNL     1      52.579   2.567  18.012  0.00  0.00    +0.000 NA
ATOM      9  C   UNL     1      52.131   1.489  17.456  0.00  0.00    +0.000 A 
ATOM     10  N   UNL     1      50.857   1.323  16.978  0.00  0.00    +0.000 N 
ATOM     11  C   UNL     1      49.902   2.309  17.039  0.00  0.00    +0.000 A 
ATOM     12  O   UNL     1      48.751   2.108  16.648  0.00  0.00    +0.000 OA
ATOM     13  C   UNL     1      50.372   3.558  17.612  0.00  0.00    +0.000 A 
ATOM     14  H   UNL     1      50.566   0.446  16.574  0.00  0.00    +0.000 HD
ENDBRANCH   3   4
BRANCH   3  15
ATOM     15  C   UNL     1      47.199   4.516  17.983  0.00  0.00    +0.000 C 
BRANCH  15  16
ATOM     16  N   UNL     1      46.454   3.435  17.322  0.00  0.00    +0.000 NA
ATOM     17  H   UNL     1      46.426   2.622  17.931  0.00  0.00    +0.000 HD
ATOM     18  H   UNL     1      46.961   3.157  16.476  0.00  0.00    +0.000 HD
ENDBRANCH  15  16
ENDBRANCH   3  15
ENDBRANCH   1   3
BRANCH   1  19
ATOM     19  C   UNL     1      48.029   5.781  14.739  0.00  0.00    +0.000 C 
BRANCH  19  20
ATOM     20  C   UNL     1      47.105   5.322  13.633  0.00  0.00    +0.000 A 
ATOM     21  C   UNL     1      46.601   4.013  13.636  0.00  0.00    +0.000 A 
ATOM     22  C   UNL     1      45.664   3.604  12.685  0.00  0.00    +0.000 A 
ATOM     23  C   UNL     1      45.199   4.500  11.714  0.00  0.00    +0.000 A 
ATOM     24  C   UNL     1      45.712   5.804  11.699  0.00  0.00    +0.000 A 
ATOM     25  C   UNL     1      46.656   6.211  12.648  0.00  0.00    +0.000 A 
BRANCH  23  26
ATOM     26  C   UNL     1      44.172   4.065  10.702  0.00  0.00    +0.000 C 
BRANCH  26  27
ATOM     27  O   UNL     1      44.781   3.155   9.790  0.00  0.00    +0.000 OA
BRANCH  27  28
ATOM     28  C   UNL     1      44.953   3.748   8.504  0.00  0.00    +0.000 C 
BRANCH  28  29
ATOM     29  C   UNL     1      45.961   2.930   7.776  0.00  0.00    +0.000 A 
ATOM     30  C   UNL     1      46.761   3.230   6.690  0.00  0.00    +0.000 A 
ATOM     31  C   UNL     1      47.561   2.093   6.420  0.00  0.00    +0.000 A 
ATOM     32  C   UNL     1      47.224   1.125   7.339  0.00  0.00    +0.000 A 
ATOM     33  N   UNL     1      46.245   1.636   8.147  0.00  0.00    +0.000 N 
ATOM     34  H   UNL     1      45.787   1.164   8.918  0.00  0.00    +0.000 HD
ENDBRANCH  28  29
ENDBRANCH  27  28
ENDBRANCH  26  27
ENDBRANCH  23  26
ENDBRANCH  19  20
ENDBRANCH   1  19
TORSDOF 10
ENDMDL
MODEL 2
REMARK VINA RESULT:    -7.758      2.158      3.149
REMARK INTER + INTRA:         -12.891
REMARK INTER:                 -11.642
REMARK INTRA:                  -1.249
REMARK UNBOUND:                -0.824
REMARK  Name = 
REMARK  10 active torsions:
REMARK  status: ('A' for Active; 'I' for Inactive)
REMARK    1  A    between atoms: N_1  and  C_2
REMARK    2  A    between atoms: C_2  and  C_3
REMARK    3  A    between atoms: C_3  and  N_4
REMARK    4  A    between atoms: C_3  and  C_20
REMARK    5  A    between atoms: N_4  and  C_5
REMARK    6  A    between atoms: C_5  and  C_6
REMARK    7  A    between atoms: C_9  and  C_10
REMARK    8  A    between atoms: C_10  and  O_11
REMARK    9  A    between atoms: O_11  and  C_12
REMARK   10  A    between atoms: C_12  and  C_13
REMARK                            x       y       z     vdW  Elec       q    Type
REMARK                         _______ _______ _______ _____ _____    ______ ____
ROOT
ATOM      1  N   UNL     1      47.238   7.864  14.237  0.00  0.00    +0.000 NA
ATOM      2  H   UNL     1      46.465   7.414  14.728  0.00  0.00    +0.000 HD
ENDROOT
BRANCH   1   3
ATOM      3  C   UNL     1      48.380   6.924  14.223  0.00  0.00    +0.000 C 
BRANCH   3   4
ATOM      4  C   UNL     1      48.693   6.500  15.660  0.00  0.00    +0.000 A 
ATOM      5  C   UNL     1      49.555   7.146  16.535  0.00  0.00    +0.000 A 
ATOM      6  S   UNL     1      49.816   6.285  17.992  0.00  0.00    +0.000 S 
ATOM      7  C   UNL     1      48.774   5.028  17.511  0.00  0.00    +0.000 A 
ATOM      8  N   UNL     1      48.587   3.923  18.285  0.00  0.00    +0.000 NA
ATOM      9  C   UNL     1      47.786   3.047  17.774  0.00  0.00    +0.000 A 
ATOM     10  N   UNL     1      47.133   3.184  16.576  0.00  0.00    +0.000 N 
ATOM     11  C   UNL     1      47.268   4.292  15.775  0.00  0.00    +0.000 A 
ATOM     12  O   UNL     1      46.625   4.407  14.730  0.00  0.00    +0.000 OA
ATOM     13  C   UNL     1      48.197   5.286  16.285  0.00  0.00    +0.000 A 
ATOM     14  H   UNL     1      46.504   2.470  16.244  0.00  0.00    +0.000 HD
ENDBRANCH   3   4
BRANCH   3  15
ATOM     15  C   UNL     1      49.671   7.508  13.545  0.00  0.00    +0.000 C 
BRANCH  15  16
ATOM     16  N   UNL     1      49.950   6.971  12.206  0.00  0.00    +0.000 NA
ATOM     17  H   UNL     1      50.378   6.053  12.292  0.00  0.00    +0.000 HD
ATOM     18  H   UNL     1      50.635   7.578  11.744  0.00  0.00    +0.000 HD
ENDBRANCH  15  16
ENDBRANCH   3  15
ENDBRANCH   1   3
BRANCH   1  19
ATOM     19  C   UNL     1      46.762   8.229  12.898  0.00  0.00    +0.000 C 
BRANCH  19  20
ATOM     20  C   UNL     1      45.916   7.138  12.280  0.00  0.00    +0.000 A 
ATOM     21  C   UNL     1      46.339   6.503  11.103  0.00  0.00    +0.000 A 
ATOM     22  C   UNL     1      45.627   5.422  10.578  0.00  0.00    +0.000 A 
ATOM     23  C   UNL     1      44.480   4.944  11.223  0.00  0.00    +0.000 A 
ATOM     24  C   UNL     1      44.046   5.587  12.391  0.00  0.00    +0.000 A 
ATOM     25  C   UNL     1      44.756   6.673  12.914  0.00  0.00    +0.000 A 
BRANCH  23  26
ATOM     26  C   UNL     1      43.725   3.765  10.668  0.00  0.00    +0.000 C 
BRANCH  26  27
ATOM     27  O   UNL     1      44.261   3.437   9.389  0.00  0.00    +0.000 OA
BRANCH  27  28
ATOM     28  C   UNL     1      45.011   2.224   9.436  0.00  0.00    +0.000 C 
BRANCH  28  29
ATOM     29  C   UNL     1      45.950   2.244   8.283  0.00  0.00    +0.000 A 
ATOM     30  C   UNL     1      46.353   3.277   7.458  0.00  0.00    +0.000 A 
ATOM     31  C   UNL     1      47.287   2.748   6.533  0.00  0.00    +0.000 A 
ATOM     32  C   UNL     1      47.424   1.406   6.809  0.00  0.00    +0.000 A 
ATOM     33  N   UNL     1      46.601   1.108   7.861  0.00  0.00    +0.000 N 
ATOM     34  H   UNL     1      46.476   0.200   8.295  0.00  0.00    +0.000 HD
ENDBRANCH  28  29
ENDBRANCH  27  28
ENDBRANCH  26  27
ENDBRANCH  23  26
ENDBRANCH  19  20
ENDBRANCH   1  19
TORSDOF 10
ENDMDL
MODEL 3
REMARK VINA RESULT:    -7.254      2.937      4.192
REMARK INTER + INTRA:         -12.106
REMARK INTER:                 -10.436
REMARK INTRA:                  -1.670
REMARK UNBOUND:                -0.824
REMARK  Name = 
REMARK  10 active torsions:
REMARK  status: ('A' for Active; 'I' for Inactive)
REMARK    1  A    between atoms: N_1  and  C_2
REMARK    2  A    between atoms: C_2  and  C_3
REMARK    3  A    between atoms: C_3  and  N_4
REMARK    4  A    between atoms: C_3  and  C_20
REMARK    5  A    between atoms: N_4  and  C_5
REMARK    6  A    between atoms: C_5  and  C_6
REMARK    7  A    between atoms: C_9  and  C_10
REMARK    8  A    between atoms: C_10  and  O_11
REMARK    9  A    between atoms: O_11  and  C_12
REMARK   10  A    between atoms: C_12  and  C_13
REMARK                            x       y       z     vdW  Elec       q    Type
REMARK                         _______ _______ _______ _____ _____    ______ ____
ROOT
ATOM      1  N   UNL     1      49.402   6.636  13.799  0.00  0.00    +0.000 NA
ATOM      2  H   UNL     1      50.010   6.154  13.136  0.00  0.00    +0.000 HD
ENDROOT
BRANCH   1   3
ATOM      3  C   UNL     1      50.251   7.488  14.661  0.00  0.00    +0.000 C 
BRANCH   3   4
ATOM      4  C   UNL     1      49.374   8.136  15.737  0.00  0.00    +0.000 A 
ATOM      5  C   UNL     1      49.140   9.495  15.892  0.00  0.00    +0.000 A 
ATOM      6  S   UNL     1      48.271   9.876  17.318  0.00  0.00    +0.000 S 
ATOM      7  C   UNL     1      48.165   8.238  17.768  0.00  0.00    +0.000 A 
ATOM      8  N   UNL     1      47.585   7.858  18.940  0.00  0.00    +0.000 NA
ATOM      9  C   UNL     1      47.602   6.582  19.152  0.00  0.00    +0.000 A 
ATOM     10  N   UNL     1      48.119   5.651  18.289  0.00  0.00    +0.000 N 
ATOM     11  C   UNL     1      48.687   5.984  17.084  0.00  0.00    +0.000 A 
ATOM     12  O   UNL     1      49.094   5.117  16.308  0.00  0.00    +0.000 OA
ATOM     13  C   UNL     1      48.735   7.412  16.822  0.00  0.00    +0.000 A 
ATOM     14  H   UNL     1      48.081   4.667  18.506  0.00  0.00    +0.000 HD
ENDBRANCH   3   4
BRANCH   3  15
ATOM     15  C   UNL     1      51.039   8.596  13.875  0.00  0.00    +0.000 C 
BRANCH  15  16
ATOM     16  N   UNL     1      52.326   8.150  13.324  0.00  0.00    +0.000 NA
ATOM     17  H   UNL     1      52.489   8.610  12.431  0.00  0.00    +0.000 HD
ATOM     18  H   UNL     1      52.272   7.144  13.135  0.00  0.00    +0.000 HD
ENDBRANCH  15  16
ENDBRANCH   3  15
ENDBRANCH   1   3
BRANCH   1  19
ATOM     19  C   UNL     1      48.409   7.389  13.026  0.00  0.00    +0.000 C 
BRANCH  19  20
ATOM     20  C   UNL     1      47.099   6.641  12.903  0.00  0.00    +0.000 A 
ATOM     21  C   UNL     1      46.907   5.443  13.609  0.00  0.00    +0.000 A 
ATOM     22  C   UNL     1      45.670   4.795  13.593  0.00  0.00    +0.000 A 
ATOM     23  C   UNL     1      44.592   5.336  12.881  0.00  0.00    +0.000 A 
ATOM     24  C   UNL     1      44.787   6.524  12.163  0.00  0.00    +0.000 A 
ATOM     25  C   UNL     1      46.028   7.170  12.173  0.00  0.00    +0.000 A 
BRANCH  23  26
ATOM     26  C   UNL     1      43.252   4.648  12.883  0.00  0.00    +0.000 C 
BRANCH  26  27
ATOM     27  O   UNL     1      42.939   4.247  11.551  0.00  0.00    +0.000 OA
BRANCH  27  28
ATOM     28  C   UNL     1      43.442   2.942  11.271  0.00  0.00    +0.000 C 
BRANCH  28  29
ATOM     29  C   UNL     1      44.267   3.045  10.038  0.00  0.00    +0.000 A 
ATOM     30  C   UNL     1      44.552   4.125   9.224  0.00  0.00    +0.000 A 
ATOM     31  C   UNL     1      45.414   3.671   8.196  0.00  0.00    +0.000 A 
ATOM     32  C   UNL     1      45.625   2.327   8.400  0.00  0.00    +0.000 A 
ATOM     33  N   UNL     1      44.916   1.954   9.510  0.00  0.00    +0.000 N 
ATOM     34  H   UNL     1      44.866   1.026   9.914  0.00  0.00    +0.000 HD
ENDBRANCH  28  29
ENDBRANCH  27  28
ENDBRANCH  26  27
ENDBRANCH  23  26
ENDBRANCH  19  20
ENDBRANCH   1  19
TORSDOF 10
ENDMDL
MODEL 4
REMARK VINA RESULT:    -7.152      2.051      2.770
REMARK INTER + INTRA:         -11.948
REMARK INTER:                 -10.772
REMARK INTRA:                  -1.177
REMARK UNBOUND:                -0.824
REMARK  Name = 
REMARK  10 active torsions:
REMARK  status: ('A' for Active; 'I' for Inactive)
REMARK    1  A    between atoms: N_1  and  C_2
REMARK    2  A    between atoms: C_2  and  C_3
REMARK    3  A    between atoms: C_3  and  N_4
REMARK    4  A    between atoms: C_3  and  C_20
REMARK    5  A    between atoms: N_4  and  C_5
REMARK    6  A    between atoms: C_5  and  C_6
REMARK    7  A    between atoms: C_9  and  C_10
REMARK    8  A    between atoms: C_10  and  O_11
REMARK    9  A    between atoms: O_11  and  C_12
REMARK   10  A    between atoms: C_12  and  C_13
REMARK                            x       y       z     vdW  Elec       q    Type
REMARK                         _______ _______ _______ _____ _____    ______ ____
ROOT
ATOM      1  N   UNL     1      47.937   5.323  15.245  0.00  0.00    +0.000 NA
ATOM      2  H   UNL     1      47.344   6.097  14.945  0.00  0.00    +0.000 HD
ENDROOT
BRANCH   1   3
ATOM      3  C   UNL     1      48.174   5.465  16.698  0.00  0.00    +0.000 C 
BRANCH   3   4
ATOM      4  C   UNL     1      49.632   5.108  17.001  0.00  0.00    +0.000 A 
ATOM      5  C   UNL     1      50.071   4.020  17.742  0.00  0.00    +0.000 A 
ATOM      6  S   UNL     1      51.756   4.040  18.047  0.00  0.00    +0.000 S 
ATOM      7  C   UNL     1      51.959   5.494  17.185  0.00  0.00    +0.000 A 
ATOM      8  N   UNL     1      53.172   6.109  17.102  0.00  0.00    +0.000 NA
ATOM      9  C   UNL     1      53.160   7.216  16.435  0.00  0.00    +0.000 A 
ATOM     10  N   UNL     1      52.058   7.750  15.820  0.00  0.00    +0.000 N 
ATOM     11  C   UNL     1      50.822   7.152  15.851  0.00  0.00    +0.000 A 
ATOM     12  O   UNL     1      49.864   7.632  15.242  0.00  0.00    +0.000 OA
ATOM     13  C   UNL     1      50.772   5.927  16.632  0.00  0.00    +0.000 A 
ATOM     14  H   UNL     1      52.123   8.609  15.295  0.00  0.00    +0.000 HD
ENDBRANCH   3   4
BRANCH   3  15
ATOM     15  C   UNL     1      47.215   4.591  17.583  0.00  0.00    +0.000 C 
BRANCH  15  16
ATOM     16  N   UNL     1      46.439   5.353  18.572  0.00  0.00    +0.000 NA
ATOM     17  H   UNL     1      47.047   6.025  19.034  0.00  0.00    +0.000 HD
ATOM     18  H   UNL     1      46.103   4.709  19.294  0.00  0.00    +0.000 HD
ENDBRANCH  15  16
ENDBRANCH   3  15
ENDBRANCH   1   3
BRANCH   1  19
ATOM     19  C   UNL     1      47.257   4.075  14.881  0.00  0.00    +0.000 C 
BRANCH  19  20
ATOM     20  C   UNL     1      46.318   4.262  13.709  0.00  0.00    +0.000 A 
ATOM     21  C   UNL     1      45.981   5.554  13.279  0.00  0.00    +0.000 A 
ATOM     22  C   UNL     1      45.203   5.747  12.135  0.00  0.00    +0.000 A 
ATOM     23  C   UNL     1      44.754   4.652  11.386  0.00  0.00    +0.000 A 
ATOM     24  C   UNL     1      45.077   3.360  11.823  0.00  0.00    +0.000 A 
ATOM     25  C   UNL     1      45.850   3.166  12.972  0.00  0.00    +0.000 A 
BRANCH  23  26
ATOM     26  C   UNL     1      43.935   4.862  10.140  0.00  0.00    +0.000 C 
BRANCH  26  27
ATOM     27  O   UNL     1      44.248   3.833   9.205  0.00  0.00    +0.000 OA
BRANCH  27  28
ATOM     28  C   UNL     1      45.352   4.201   8.380  0.00  0.00    +0.000 C 
BRANCH  28  29
ATOM     29  C   UNL     1      46.059   2.946   8.010  0.00  0.00    +0.000 A 
ATOM     30  C   UNL     1      45.889   1.645   8.444  0.00  0.00    +0.000 A 
ATOM     31  C   UNL     1      46.814   0.834   7.742  0.00  0.00    +0.000 A 
ATOM     32  C   UNL     1      47.532   1.659   6.906  0.00  0.00    +0.000 A 
ATOM     33  N   UNL     1      47.077   2.937   7.084  0.00  0.00    +0.000 N 
ATOM     34  H   UNL     1      47.410   3.771   6.614  0.00  0.00    +0.000 HD
ENDBRANCH  28  29
ENDBRANCH  27  28
ENDBRANCH  26  27
ENDBRANCH  23  26
ENDBRANCH  19  20
ENDBRANCH   1  19
TORSDOF 10
ENDMDL
MODEL 5
REMARK VINA RESULT:    -6.691      3.697      8.615
REMARK INTER + INTRA:         -11.231
REMARK INTER:                  -9.945
REMARK INTRA:                  -1.286
REMARK UNBOUND:                -0.824
REMARK  Name = 
REMARK  10 active torsions:
REMARK  status: ('A' for Active; 'I' for Inactive)
REMARK    1  A    between atoms: N_1  and  C_2
REMARK    2  A    between atoms: C_2  and  C_3
REMARK    3  A    between atoms: C_3  and  N_4
REMARK    4  A    between atoms: C_3  and  C_20
REMARK    5  A    between atoms: N_4  and  C_5
REMARK    6  A    between atoms: C_5  and  C_6
REMARK    7  A    between atoms: C_9  and  C_10
REMARK    8  A    between atoms: C_10  and  O_11
REMARK    9  A    between atoms: O_11  and  C_12
REMARK   10  A    between atoms: C_12  and  C_13
REMARK                            x       y       z     vdW  Elec       q    Type
REMARK                         _______ _______ _______ _____ _____    ______ ____
ROOT
ATOM      1  N   UNL     1      47.646   7.073  11.694  0.00  0.00    +0.000 NA
ATOM      2  H   UNL     1      48.175   6.313  12.121  0.00  0.00    +0.000 HD
ENDROOT
BRANCH   1   3
ATOM      3  C   UNL     1      46.208   6.819  11.929  0.00  0.00    +0.000 C 
BRANCH   3   4
ATOM      4  C   UNL     1      45.744   5.692  11.001  0.00  0.00    +0.000 A 
ATOM      5  C   UNL     1      45.890   5.656   9.622  0.00  0.00    +0.000 A 
ATOM      6  S   UNL     1      45.080   4.339   8.887  0.00  0.00    +0.000 S 
ATOM      7  C   UNL     1      44.519   3.763  10.388  0.00  0.00    +0.000 A 
ATOM      8  N   UNL     1      43.702   2.676  10.473  0.00  0.00    +0.000 NA
ATOM      9  C   UNL     1      43.343   2.377  11.679  0.00  0.00    +0.000 A 
ATOM     10  N   UNL     1      43.746   3.043  12.806  0.00  0.00    +0.000 N 
ATOM     11  C   UNL     1      44.592   4.125  12.772  0.00  0.00    +0.000 A 
ATOM     12  O   UNL     1      44.977   4.668  13.809  0.00  0.00    +0.000 OA
ATOM     13  C   UNL     1      44.986   4.531  11.434  0.00  0.00    +0.000 A 
ATOM     14  H   UNL     1      43.444   2.744  13.721  0.00  0.00    +0.000 HD
ENDBRANCH   3   4
BRANCH   3  15
ATOM     15  C   UNL     1      45.300   8.085  11.728  0.00  0.00    +0.000 C 
BRANCH  15  16
ATOM     16  N   UNL     1      43.937   7.788  11.266  0.00  0.00    +0.000 NA
ATOM     17  H   UNL     1      43.629   8.518  10.629  0.00  0.00    +0.000 HD
ATOM     18  H   UNL     1      43.305   7.809  12.073  0.00  0.00    +0.000 HD
ENDBRANCH  15  16
ENDBRANCH   3  15
ENDBRANCH   1   3
BRANCH   1  19
ATOM     19  C   UNL     1      48.122   8.331  12.279  0.00  0.00    +0.000 C 
BRANCH  19  20
ATOM     20  C   UNL     1      48.451   8.183  13.749  0.00  0.00    +0.000 A 
ATOM     21  C   UNL     1      48.038   9.165  14.663  0.00  0.00    +0.000 A 
ATOM     22  C   UNL     1      48.238   8.994  16.034  0.00  0.00    +0.000 A 
ATOM     23  C   UNL     1      48.846   7.833  16.526  0.00  0.00    +0.000 A 
ATOM     24  C   UNL     1      49.274   6.858  15.614  0.00  0.00    +0.000 A 
ATOM     25  C   UNL     1      49.080   7.032  14.239  0.00  0.00    +0.000 A 
BRANCH  23  26
ATOM     26  C   UNL     1      49.041   7.640  18.007  0.00  0.00    +0.000 C 
BRANCH  26  27
ATOM     27  O   UNL     1      47.869   7.041  18.551  0.00  0.00    +0.000 OA
BRANCH  27  28
ATOM     28  C   UNL     1      48.194   5.935  19.391  0.00  0.00    +0.000 C 
BRANCH  28  29
ATOM     29  C   UNL     1      48.259   4.729  18.522  0.00  0.00    +0.000 A 
ATOM     30  C   UNL     1      49.333   3.961  18.114  0.00  0.00    +0.000 A 
ATOM     31  C   UNL     1      48.826   2.909  17.312  0.00  0.00    +0.000 A 
ATOM     32  C   UNL     1      47.461   3.066  17.241  0.00  0.00    +0.000 A 
ATOM     33  N   UNL     1      47.128   4.178  17.967  0.00  0.00    +0.000 N 
ATOM     34  H   UNL     1      46.198   4.557  18.103  0.00  0.00    +0.000 HD
ENDBRANCH  28  29
ENDBRANCH  27  28
ENDBRANCH  26  27
ENDBRANCH  23  26
ENDBRANCH  19  20
ENDBRANCH   1  19
TORSDOF 10
ENDMDL
MODEL 6
REMARK VINA RESULT:    -6.668      1.999      2.660
REMARK INTER + INTRA:         -11.195
REMARK INTER:                 -10.633
REMARK INTRA:                  -0.563
REMARK UNBOUND:                -0.824
REMARK  Name = 
REMARK  10 active torsions:
REMARK  status: ('A' for Active; 'I' for Inactive)
REMARK    1  A    between atoms: N_1  and  C_2
REMARK    2  A    between atoms: C_2  and  C_3
REMARK    3  A    between atoms: C_3  and  N_4
REMARK    4  A    between atoms: C_3  and  C_20
REMARK    5  A    between atoms: N_4  and  C_5
REMARK    6  A    between atoms: C_5  and  C_6
REMARK    7  A    between atoms: C_9  and  C_10
REMARK    8  A    between atoms: C_10  and  O_11
REMARK    9  A    between atoms: O_11  and  C_12
REMARK   10  A    between atoms: C_12  and  C_13
REMARK                            x       y       z     vdW  Elec       q    Type
REMARK                         _______ _______ _______ _____ _____    ______ ____
ROOT
ATOM      1  N   UNL     1      49.040   6.775  14.249  0.00  0.00    +0.000 NA
ATOM      2  H   UNL     1      49.654   5.991  14.029  0.00  0.00    +0.000 HD
ENDROOT
BRANCH   1   3
ATOM      3  C   UNL     1      49.844   7.806  14.942  0.00  0.00    +0.000 C 
BRANCH   3   4
ATOM      4  C   UNL     1      50.938   7.115  15.761  0.00  0.00    +0.000 A 
ATOM      5  C   UNL     1      52.303   7.352  15.667  0.00  0.00    +0.000 A 
ATOM      6  S   UNL     1      53.246   6.261  16.590  0.00  0.00    +0.000 S 
ATOM      7  C   UNL     1      51.864   5.445  17.159  0.00  0.00    +0.000 A 
ATOM      8  N   UNL     1      51.963   4.350  17.962  0.00  0.00    +0.000 NA
ATOM      9  C   UNL     1      50.827   3.828  18.290  0.00  0.00    +0.000 A 
ATOM     10  N   UNL     1      49.602   4.315  17.915  0.00  0.00    +0.000 N 
ATOM     11  C   UNL     1      49.451   5.433  17.130  0.00  0.00    +0.000 A 
ATOM     12  O   UNL     1      48.334   5.875  16.855  0.00  0.00    +0.000 OA
ATOM     13  C   UNL     1      50.703   6.028  16.695  0.00  0.00    +0.000 A 
ATOM     14  H   UNL     1      48.751   3.871  18.224  0.00  0.00    +0.000 HD
ENDBRANCH   3   4
BRANCH   3  15
ATOM     15  C   UNL     1      48.999   8.751  15.868  0.00  0.00    +0.000 C 
BRANCH  15  16
ATOM     16  N   UNL     1      47.575   8.835  15.513  0.00  0.00    +0.000 NA
ATOM     17  H   UNL     1      47.337   9.800  15.299  0.00  0.00    +0.000 HD
ATOM     18  H   UNL     1      47.016   8.563  16.327  0.00  0.00    +0.000 HD
ENDBRANCH  15  16
ENDBRANCH   3  15
ENDBRANCH   1   3
BRANCH   1  19
ATOM     19  C   UNL     1      48.448   7.242  12.991  0.00  0.00    +0.000 C 
BRANCH  19  20
ATOM     20  C   UNL     1      47.296   6.366  12.547  0.00  0.00    +0.000 A 
ATOM     21  C   UNL     1      46.696   6.576  11.296  0.00  0.00    +0.000 A 
ATOM     22  C   UNL     1      45.706   5.712  10.824  0.00  0.00    +0.000 A 
ATOM     23  C   UNL     1      45.299   4.611  11.587  0.00  0.00    +0.000 A 
ATOM     24  C   UNL     1      45.886   4.408  12.844  0.00  0.00    +0.000 A 
ATOM     25  C   UNL     1      46.874   5.277  13.319  0.00  0.00    +0.000 A 
BRANCH  23  26
ATOM     26  C   UNL     1      44.246   3.668  11.067  0.00  0.00    +0.000 C 
BRANCH  26  27
ATOM     27  O   UNL     1      44.877   2.670  10.268  0.00  0.00    +0.000 OA
BRANCH  27  28
ATOM     28  C   UNL     1      44.509   2.796   8.896  0.00  0.00    +0.000 C 
BRANCH  28  29
ATOM     29  C   UNL     1      45.729   2.524   8.089  0.00  0.00    +0.000 A 
ATOM     30  C   UNL     1      46.483   3.348   7.275  0.00  0.00    +0.000 A 
ATOM     31  C   UNL     1      47.559   2.581   6.767  0.00  0.00    +0.000 A 
ATOM     32  C   UNL     1      47.431   1.307   7.272  0.00  0.00    +0.000 A 
ATOM     33  N   UNL     1      46.313   1.279   8.061  0.00  0.00    +0.000 N 
ATOM     34  H   UNL     1      45.950   0.481   8.570  0.00  0.00    +0.000 HD
ENDBRANCH  28  29
ENDBRANCH  27  28
ENDBRANCH  26  27
ENDBRANCH  23  26
ENDBRANCH  19  20
ENDBRANCH   1  19
TORSDOF 10
ENDMDL
MODEL 7
REMARK VINA RESULT:    -6.321      3.969      5.007
REMARK INTER + INTRA:         -10.656
REMARK INTER:                  -9.723
REMARK INTRA:                  -0.932
REMARK UNBOUND:                -0.824
REMARK  Name = 
REMARK  10 active torsions:
REMARK  status: ('A' for Active; 'I' for Inactive)
REMARK    1  A    between atoms: N_1  and  C_2
REMARK    2  A    between atoms: C_2  and  C_3
REMARK    3  A    between atoms: C_3  and  N_4
REMARK    4  A    between atoms: C_3  and  C_20
REMARK    5  A    between atoms: N_4  and  C_5
REMARK    6  A    between atoms: C_5  and  C_6
REMARK    7  A    between atoms: C_9  and  C_10
REMARK    8  A    between atoms: C_10  and  O_11
REMARK    9  A    between atoms: O_11  and  C_12
REMARK   10  A    between atoms: C_12  and  C_13
REMARK                            x       y       z     vdW  Elec       q    Type
REMARK                         _______ _______ _______ _____ _____    ______ ____
ROOT
ATOM      1  N   UNL     1      49.034   6.638  13.418  0.00  0.00    +0.000 NA
ATOM      2  H   UNL     1      48.779   6.710  12.433  0.00  0.00    +0.000 HD
ENDROOT
BRANCH   1   3
ATOM      3  C   UNL     1      49.403   7.989  13.895  0.00  0.00    +0.000 C 
BRANCH   3   4
ATOM      4  C   UNL     1      50.921   8.050  14.089  0.00  0.00    +0.000 A 
ATOM      5  C   UNL     1      51.609   7.737  15.253  0.00  0.00    +0.000 A 
ATOM      6  S   UNL     1      53.279   8.108  15.175  0.00  0.00    +0.000 S 
ATOM      7  C   UNL     1      53.143   8.683  13.578  0.00  0.00    +0.000 A 
ATOM      8  N   UNL     1      54.210   9.213  12.918  0.00  0.00    +0.000 NA
ATOM      9  C   UNL     1      53.941   9.628  11.724  0.00  0.00    +0.000 A 
ATOM     10  N   UNL     1      52.716   9.537  11.117  0.00  0.00    +0.000 N 
ATOM     11  C   UNL     1      51.618   8.984  11.732  0.00  0.00    +0.000 A 
ATOM     12  O   UNL     1      50.544   8.868  11.138  0.00  0.00    +0.000 OA
ATOM     13  C   UNL     1      51.857   8.546  13.097  0.00  0.00    +0.000 A 
ATOM     14  H   UNL     1      52.579   9.861  10.172  0.00  0.00    +0.000 HD
ENDBRANCH   3   4
BRANCH   3  15
ATOM     15  C   UNL     1      48.676   8.412  15.222  0.00  0.00    +0.000 C 
BRANCH  15  16
ATOM     16  N   UNL     1      48.229   9.811  15.249  0.00  0.00    +0.000 NA
ATOM     17  H   UNL     1      47.287   9.873  14.868  0.00  0.00    +0.000 HD
ATOM     18  H   UNL     1      48.836  10.363  14.635  0.00  0.00    +0.000 HD
ENDBRANCH  15  16
ENDBRANCH   3  15
ENDBRANCH   1   3
BRANCH   1  19
ATOM     19  C   UNL     1      47.891   6.057  14.131  0.00  0.00    +0.000 C 
BRANCH  19  20
ATOM     20  C   UNL     1      46.769   5.677  13.190  0.00  0.00    +0.000 A 
ATOM     21  C   UNL     1      46.493   6.475  12.069  0.00  0.00    +0.000 A 
ATOM     22  C   UNL     1      45.534   6.084  11.131  0.00  0.00    +0.000 A 
ATOM     23  C   UNL     1      44.835   4.880  11.288  0.00  0.00    +0.000 A 
ATOM     24  C   UNL     1      45.098   4.090  12.415  0.00  0.00    +0.000 A 
ATOM     25  C   UNL     1      46.054   4.485  13.357  0.00  0.00    +0.000 A 
BRANCH  23  26
ATOM     26  C   UNL     1      43.817   4.449  10.265  0.00  0.00    +0.000 C 
BRANCH  26  27
ATOM     27  O   UNL     1      44.497   4.065   9.073  0.00  0.00    +0.000 OA
BRANCH  27  28
ATOM     28  C   UNL     1      44.750   2.661   9.051  0.00  0.00    +0.000 C 
BRANCH  28  29
ATOM     29  C   UNL     1      45.883   2.435   8.115  0.00  0.00    +0.000 A 
ATOM     30  C   UNL     1      46.541   3.299   7.260  0.00  0.00    +0.000 A 
ATOM     31  C   UNL     1      47.568   2.565   6.616  0.00  0.00    +0.000 A 
ATOM     32  C   UNL     1      47.506   1.272   7.085  0.00  0.00    +0.000 A 
ATOM     33  N   UNL     1      46.475   1.200   7.981  0.00  0.00    +0.000 N 
ATOM     34  H   UNL     1      46.174   0.379   8.495  0.00  0.00    +0.000 HD
ENDBRANCH  28  29
ENDBRANCH  27  28
ENDBRANCH  26  27
ENDBRANCH  23  26
ENDBRANCH  19  20
ENDBRANCH   1  19
TORSDOF 10
ENDMDL
MODEL 8
REMARK VINA RESULT:    -6.294      2.895      3.770
REMARK INTER + INTRA:         -10.614
REMARK INTER:                  -9.101
REMARK INTRA:                  -1.513
REMARK UNBOUND:                -0.824
REMARK  Name = 
REMARK  10 active torsions:
REMARK  status: ('A' for Active; 'I' for Inactive)
REMARK    1  A    between atoms: N_1  and  C_2
REMARK    2  A    between atoms: C_2  and  C_3
REMARK    3  A    between atoms: C_3  and  N_4
REMARK    4  A    between atoms: C_3  and  C_20
REMARK    5  A    between atoms: N_4  and  C_5
REMARK    6  A    between atoms: C_5  and  C_6
REMARK    7  A    between atoms: C_9  and  C_10
REMARK    8  A    between atoms: C_10  and  O_11
REMARK    9  A    between atoms: O_11  and  C_12
REMARK   10  A    between atoms: C_12  and  C_13
REMARK                            x       y       z     vdW  Elec       q    Type
REMARK                         _______ _______ _______ _____ _____    ______ ____
ROOT
ATOM      1  N   UNL     1      50.029   7.087  14.253  0.00  0.00    +0.000 NA
ATOM      2  H   UNL     1      50.979   6.985  13.895  0.00  0.00    +0.000 HD
ENDROOT
BRANCH   1   3
ATOM      3  C   UNL     1      50.111   7.299  15.715  0.00  0.00    +0.000 C 
BRANCH   3   4
ATOM      4  C   UNL     1      49.341   6.181  16.423  0.00  0.00    +0.000 A 
ATOM      5  C   UNL     1      48.252   5.488  15.913  0.00  0.00    +0.000 A 
ATOM      6  S   UNL     1      47.516   4.444  17.053  0.00  0.00    +0.000 S 
ATOM      7  C   UNL     1      48.637   4.869  18.262  0.00  0.00    +0.000 A 
ATOM      8  N   UNL     1      48.544   4.371  19.527  0.00  0.00    +0.000 NA
ATOM      9  C   UNL     1      49.454   4.806  20.336  0.00  0.00    +0.000 A 
ATOM     10  N   UNL     1      50.462   5.668  19.993  0.00  0.00    +0.000 N 
ATOM     11  C   UNL     1      50.614   6.173  18.724  0.00  0.00    +0.000 A 
ATOM     12  O   UNL     1      51.564   6.904  18.436  0.00  0.00    +0.000 OA
ATOM     13  C   UNL     1      49.586   5.751  17.788  0.00  0.00    +0.000 A 
ATOM     14  H   UNL     1      51.154   5.952  20.669  0.00  0.00    +0.000 HD
ENDBRANCH   3   4
BRANCH   3  15
ATOM     15  C   UNL     1      49.573   8.698  16.182  0.00  0.00    +0.000 C 
BRANCH  15  16
ATOM     16  N   UNL     1      50.495   9.445  17.049  0.00  0.00    +0.000 NA
ATOM     17  H   UNL     1      51.000   8.794  17.646  0.00  0.00    +0.000 HD
ATOM     18  H   UNL     1      49.947  10.052  17.667  0.00  0.00    +0.000 HD
ENDBRANCH  15  16
ENDBRANCH   3  15
ENDBRANCH   1   3
BRANCH   1  19
ATOM     19  C   UNL     1      49.400   8.200  13.534  0.00  0.00    +0.000 C 
BRANCH  19  20
ATOM     20  C   UNL     1      48.042   7.823  12.982  0.00  0.00    +0.000 A 
ATOM     21  C   UNL     1      47.909   6.700  12.151  0.00  0.00    +0.000 A 
ATOM     22  C   UNL     1      46.651   6.274  11.720  0.00  0.00    +0.000 A 
ATOM     23  C   UNL     1      45.494   6.955  12.118  0.00  0.00    +0.000 A 
ATOM     24  C   UNL     1      45.626   8.087  12.934  0.00  0.00    +0.000 A 
ATOM     25  C   UNL     1      46.887   8.518  13.361  0.00  0.00    +0.000 A 
BRANCH  23  26
ATOM     26  C   UNL     1      44.136   6.483  11.670  0.00  0.00    +0.000 C 
BRANCH  26  27
ATOM     27  O   UNL     1      44.004   5.099  11.984  0.00  0.00    +0.000 OA
BRANCH  27  28
ATOM     28  C   UNL     1      43.139   4.438  11.062  0.00  0.00    +0.000 C 
BRANCH  28  29
ATOM     29  C   UNL     1      44.002   3.776  10.048  0.00  0.00    +0.000 A 
ATOM     30  C   UNL     1      44.523   4.241   8.855  0.00  0.00    +0.000 A 
ATOM     31  C   UNL     1      45.304   3.201   8.294  0.00  0.00    +0.000 A 
ATOM     32  C   UNL     1      45.233   2.125   9.150  0.00  0.00    +0.000 A 
ATOM     33  N   UNL     1      44.433   2.478  10.202  0.00  0.00    +0.000 N 
ATOM     34  H   UNL     1      44.184   1.899  10.996  0.00  0.00    +0.000 HD
ENDBRANCH  28  29
ENDBRANCH  27  28
ENDBRANCH  26  27
ENDBRANCH  23  26
ENDBRANCH  19  20
ENDBRANCH   1  19
TORSDOF 10
ENDMDL
MODEL 9
REMARK VINA RESULT:    -6.103      3.856      8.678
REMARK INTER + INTRA:         -10.316
REMARK INTER:                  -8.768
REMARK INTRA:                  -1.547
REMARK UNBOUND:                -0.824
REMARK  Name = 
REMARK  10 active torsions:
REMARK  status: ('A' for Active; 'I' for Inactive)
REMARK    1  A    between atoms: N_1  and  C_2
REMARK    2  A    between atoms: C_2  and  C_3
REMARK    3  A    between atoms: C_3  and  N_4
REMARK    4  A    between atoms: C_3  and  C_20
REMARK    5  A    between atoms: N_4  and  C_5
REMARK    6  A    between atoms: C_5  and  C_6
REMARK    7  A    between atoms: C_9  and  C_10
REMARK    8  A    between atoms: C_10  and  O_11
REMARK    9  A    between atoms: O_11  and  C_12
REMARK   10  A    between atoms: C_12  and  C_13
REMARK                            x       y       z     vdW  Elec       q    Type
REMARK                         _______ _______ _______ _____ _____    ______ ____
ROOT
ATOM      1  N   UNL     1      47.361   9.003  13.764  0.00  0.00    +0.000 NA
ATOM      2  H   UNL     1      46.956   9.838  13.341  0.00  0.00    +0.000 HD
ENDROOT
BRANCH   1   3
ATOM      3  C   UNL     1      47.612   8.020  12.688  0.00  0.00    +0.000 C 
BRANCH   3   4
ATOM      4  C   UNL     1      46.766   6.770  12.949  0.00  0.00    +0.000 A 
ATOM      5  C   UNL     1      47.191   5.615  13.593  0.00  0.00    +0.000 A 
ATOM      6  S   UNL     1      46.044   4.345  13.534  0.00  0.00    +0.000 S 
ATOM      7  C   UNL     1      44.935   5.298  12.662  0.00  0.00    +0.000 A 
ATOM      8  N   UNL     1      43.747   4.793  12.231  0.00  0.00    +0.000 NA
ATOM      9  C   UNL     1      43.025   5.632  11.562  0.00  0.00    +0.000 A 
ATOM     10  N   UNL     1      43.368   6.935  11.310  0.00  0.00    +0.000 N 
ATOM     11  C   UNL     1      44.542   7.497  11.750  0.00  0.00    +0.000 A 
ATOM     12  O   UNL     1      44.794   8.687  11.551  0.00  0.00    +0.000 OA
ATOM     13  C   UNL     1      45.411   6.578  12.466  0.00  0.00    +0.000 A 
ATOM     14  H   UNL     1      42.747   7.544  10.799  0.00  0.00    +0.000 HD
ENDBRANCH   3   4
BRANCH   3  15
ATOM     15  C   UNL     1      49.123   7.620  12.535  0.00  0.00    +0.000 C 
BRANCH  15  16
ATOM     16  N   UNL     1      49.768   8.138  11.320  0.00  0.00    +0.000 NA
ATOM     17  H   UNL     1      49.415   7.634  10.509  0.00  0.00    +0.000 HD
ATOM     18  H   UNL     1      50.773   7.948  11.375  0.00  0.00    +0.000 HD
ENDBRANCH  15  16
ENDBRANCH   3  15
ENDBRANCH   1   3
BRANCH   1  19
ATOM     19  C   UNL     1      48.575   9.411  14.479  0.00  0.00    +0.000 C 
BRANCH  19  20
ATOM     20  C   UNL     1      48.661   8.785  15.854  0.00  0.00    +0.000 A 
ATOM     21  C   UNL     1      47.935   9.333  16.922  0.00  0.00    +0.000 A 
ATOM     22  C   UNL     1      47.916   8.708  18.171  0.00  0.00    +0.000 A 
ATOM     23  C   UNL     1      48.615   7.512  18.378  0.00  0.00    +0.000 A 
ATOM     24  C   UNL     1      49.354   6.971  17.318  0.00  0.00    +0.000 A 
ATOM     25  C   UNL     1      49.378   7.601  16.069  0.00  0.00    +0.000 A 
BRANCH  23  26
ATOM     26  C   UNL     1      48.577   6.827  19.719  0.00  0.00    +0.000 C 
BRANCH  26  27
ATOM     27  O   UNL     1      49.374   5.648  19.656  0.00  0.00    +0.000 OA
BRANCH  27  28
ATOM     28  C   UNL     1      48.581   4.475  19.832  0.00  0.00    +0.000 C 
BRANCH  28  29
ATOM     29  C   UNL     1      48.694   3.678  18.581  0.00  0.00    +0.000 A 
ATOM     30  C   UNL     1      47.781   3.436  17.572  0.00  0.00    +0.000 A 
ATOM     31  C   UNL     1      48.421   2.631  16.599  0.00  0.00    +0.000 A 
ATOM     32  C   UNL     1      49.702   2.392  17.041  0.00  0.00    +0.000 A 
ATOM     33  N   UNL     1      49.854   3.019  18.247  0.00  0.00    +0.000 N 
ATOM     34  H   UNL     1      50.686   3.026  18.827  0.00  0.00    +0.000 HD
ENDBRANCH  28  29
ENDBRANCH  27  28
ENDBRANCH  26  27
ENDBRANCH  23  26
ENDBRANCH  19  20
ENDBRANCH   1  19
TORSDOF 10
ENDMDL
