MODEL 1
REMARK VINA RESULT:    -7.909      0.000      0.000
REMARK INTER + INTRA:         -12.441
REMARK INTER:                 -11.145
REMARK INTRA:                  -1.296
REMARK UNBOUND:                -1.296
REMARK  Name = 
REMARK  8 active torsions:
REMARK  status: ('A' for Active; 'I' for Inactive)
REMARK    1  A    between atoms: C_1  and  O_2
REMARK    2  A    between atoms: O_2  and  C_3
REMARK    3  A    between atoms: C_10  and  C_11
REMARK    4  A    between atoms: N_13  and  C_14
REMARK    5  A    between atoms: C_14  and  C_15
REMARK    6  A    between atoms: C_18  and  N_19
REMARK    7  A    between atoms: N_19  and  C_20
REMARK    8  A    between atoms: C_20  and  C_21
REMARK                            x       y       z     vdW  Elec       q    Type
REMARK                         _______ _______ _______ _____ _____    ______ ____
ROOT
ATOM      1  C   UNL     1      46.658   7.658  12.898  0.00  0.00    +0.000 C 
ENDROOT
BRANCH   1   2
ATOM      2  C   UNL     1      45.923   6.689  12.013  0.00  0.00    +0.000 A 
ATOM      3  C   UNL     1      46.299   6.525  10.678  0.00  0.00    +0.000 A 
ATOM      4  C   UNL     1      45.718   5.523   9.892  0.00  0.00    +0.000 A 
ATOM      5  C   UNL     1      44.721   4.681  10.397  0.00  0.00    +0.000 A 
ATOM      6  C   UNL     1      44.305   4.897  11.718  0.00  0.00    +0.000 A 
ATOM      7  C   UNL     1      44.889   5.892  12.516  0.00  0.00    +0.000 A 
BRANCH   5   8
ATOM      8  N   UNL     1      44.227   3.561   9.714  0.00  0.00    +0.000 N 
ATOM      9  H   UNL     1      43.244   3.400   9.928  0.00  0.00    +0.000 HD
BRANCH   8  10
ATOM     10  C   UNL     1      44.609   3.345   8.325  0.00  0.00    +0.000 C 
BRANCH  10  11
ATOM     11  C   UNL     1      45.973   2.652   8.187  0.00  0.00    +0.000 C 
ATOM     12  C   UNL     1      46.712   3.259   6.979  0.00  0.00    +0.000 C 
ATOM     13  C   UNL     1      47.991   2.503   6.654  0.00  0.00    +0.000 C 
ATOM     14  O   UNL     1      47.716   1.118   6.460  0.00  0.00    +0.000 OA
ATOM     15  C   UNL     1      47.194   0.512   7.640  0.00  0.00    +0.000 C 
ATOM     16  C   UNL     1      45.855   1.131   8.015  0.00  0.00    +0.000 C 
ENDBRANCH  10  11
ENDBRANCH   8  10
ENDBRANCH   5   8
ENDBRANCH   1   2
BRANCH   1  19
ATOM     17  C   UNL     1      48.420   6.790  14.340  0.00  0.00    +0.000 C 
ATOM     18  O   UNL     1      49.252   7.014  13.463  0.00  0.00    +0.000 OA
ATOM     19  N   UNL     1      47.095   7.070  14.139  0.00  0.00    +0.000 N 
ATOM     20  H   UNL     1      46.411   6.914  14.867  0.00  0.00    +0.000 HD
BRANCH  17  28
ATOM     21  C   UNL     1      47.253   4.155  16.231  0.00  0.00    +0.000 A 
ATOM     22  N   UNL     1      46.981   3.235  17.178  0.00  0.00    +0.000 NA
ATOM     23  C   UNL     1      47.736   3.223  18.280  0.00  0.00    +0.000 A 
ATOM     24  N   UNL     1      48.758   4.027  18.559  0.00  0.00    +0.000 NA
ATOM     25  C   UNL     1      48.987   4.936  17.597  0.00  0.00    +0.000 A 
ATOM     26  S   UNL     1      50.262   6.042  17.782  0.00  0.00    +0.000 S 
ATOM     27  C   UNL     1      49.900   6.778  16.296  0.00  0.00    +0.000 A 
ATOM     28  C   UNL     1      48.820   6.210  15.630  0.00  0.00    +0.000 A 
ATOM     29  C   UNL     1      48.284   5.094  16.405  0.00  0.00    +0.000 A 
BRANCH  21  31
ATOM     30  C   UNL     1      47.050   3.399  14.031  0.00  0.00    +0.000 C 
ATOM     31  O   UNL     1      46.477   4.163  15.091  0.00  0.00    +0.000 OA
ENDBRANCH  21  31
ENDBRANCH  17  28
ENDBRANCH   1  19
TORSDOF 7
ENDMDL
MODEL 2
REMARK VINA RESULT:    -7.687      1.035      1.627
REMARK INTER + INTRA:         -12.128
REMARK INTER:                 -11.029
REMARK INTRA:                  -1.099
REMARK UNBOUND:                -1.296
REMARK  Name = 
REMARK  8 active torsions:
REMARK  status: ('A' for Active; 'I' for Inactive)
REMARK    1  A    between atoms: C_1  and  O_2
REMARK    2  A    between atoms: O_2  and  C_3
REMARK    3  A    between atoms: C_10  and  C_11
REMARK    4  A    between atoms: N_13  and  C_14
REMARK    5  A    between atoms: C_14  and  C_15
REMARK    6  A    between atoms: C_18  and  N_19
REMARK    7  A    between atoms: N_19  and  C_20
REMARK    8  A    between atoms: C_20  and  C_21
REMARK                            x       y       z     vdW  Elec       q    Type
REMARK                         _______ _______ _______ _____ _____    ______ ____
ROOT
ATOM      1  C   UNL     1      47.435   8.443  13.687  0.00  0.00    +0.000 C 
ENDROOT
BRANCH   1   2
ATOM      2  C   UNL     1      46.595   7.758  12.644  0.00  0.00    +0.000 A 
ATOM      3  C   UNL     1      47.127   6.717  11.880  0.00  0.00    +0.000 A 
ATOM      4  C   UNL     1      46.310   5.979  11.014  0.00  0.00    +0.000 A 
ATOM      5  C   UNL     1      44.952   6.279  10.855  0.00  0.00    +0.000 A 
ATOM      6  C   UNL     1      44.444   7.367  11.578  0.00  0.00    +0.000 A 
ATOM      7  C   UNL     1      45.253   8.104  12.456  0.00  0.00    +0.000 A 
BRANCH   5   8
ATOM      8  N   UNL     1      44.055   5.476  10.136  0.00  0.00    +0.000 N 
ATOM      9  H   UNL     1      43.898   5.843   9.200  0.00  0.00    +0.000 HD
BRANCH   8  10
ATOM     10  C   UNL     1      44.160   4.026  10.231  0.00  0.00    +0.000 C 
BRANCH  10  11
ATOM     11  C   UNL     1      44.653   3.381   8.927  0.00  0.00    +0.000 C 
ATOM     12  C   UNL     1      45.279   2.014   9.260  0.00  0.00    +0.000 C 
ATOM     13  C   UNL     1      45.963   1.390   8.053  0.00  0.00    +0.000 C 
ATOM     14  O   UNL     1      46.924   2.288   7.504  0.00  0.00    +0.000 OA
ATOM     15  C   UNL     1      46.317   3.488   7.031  0.00  0.00    +0.000 C 
ATOM     16  C   UNL     1      45.673   4.253   8.180  0.00  0.00    +0.000 C 
ENDBRANCH  10  11
ENDBRANCH   8  10
ENDBRANCH   5   8
ENDBRANCH   1   2
BRANCH   1  19
ATOM     17  C   UNL     1      48.883   6.938  14.942  0.00  0.00    +0.000 C 
ATOM     18  O   UNL     1      49.731   7.009  14.054  0.00  0.00    +0.000 OA
ATOM     19  N   UNL     1      47.698   7.615  14.835  0.00  0.00    +0.000 N 
ATOM     20  H   UNL     1      47.009   7.582  15.575  0.00  0.00    +0.000 HD
BRANCH  17  28
ATOM     21  C   UNL     1      47.296   4.195  16.296  0.00  0.00    +0.000 A 
ATOM     22  N   UNL     1      46.851   3.177  17.060  0.00  0.00    +0.000 NA
ATOM     23  C   UNL     1      47.508   2.905  18.192  0.00  0.00    +0.000 A 
ATOM     24  N   UNL     1      48.581   3.531  18.663  0.00  0.00    +0.000 NA
ATOM     25  C   UNL     1      48.983   4.547  17.881  0.00  0.00    +0.000 A 
ATOM     26  S   UNL     1      50.346   5.455  18.327  0.00  0.00    +0.000 S 
ATOM     27  C   UNL     1      50.187   6.450  16.961  0.00  0.00    +0.000 A 
ATOM     28  C   UNL     1      49.113   6.121  16.142  0.00  0.00    +0.000 A 
ATOM     29  C   UNL     1      48.401   4.969  16.688  0.00  0.00    +0.000 A 
BRANCH  21  31
ATOM     30  C   UNL     1      47.071   3.672  14.031  0.00  0.00    +0.000 C 
ATOM     31  O   UNL     1      46.621   4.470  15.125  0.00  0.00    +0.000 OA
ENDBRANCH  21  31
ENDBRANCH  17  28
ENDBRANCH   1  19
TORSDOF 7
ENDMDL
MODEL 3
REMARK VINA RESULT:    -7.613      1.524      1.836
REMARK INTER + INTRA:         -12.023
REMARK INTER:                 -11.008
REMARK INTRA:                  -1.015
REMARK UNBOUND:                -1.296
REMARK  Name = 
REMARK  8 active torsions:
REMARK  status: ('A' for Active; 'I' for Inactive)
REMARK    1  A    between atoms: C_1  and  O_2
REMARK    2  A    between atoms: O_2  and  C_3
REMARK    3  A    between atoms: C_10  and  C_11
REMARK    4  A    between atoms: N_13  and  C_14
REMARK    5  A    between atoms: C_14  and  C_15
REMARK    6  A    between atoms: C_18  and  N_19
REMARK    7  A    between atoms: N_19  and  C_20
REMARK    8  A    between atoms: C_20  and  C_21
REMARK                            x       y       z     vdW  Elec       q    Type
REMARK                         _______ _______ _______ _____ _____    ______ ____
ROOT
ATOM      1  C   UNL     1      47.431   7.132  13.124  0.00  0.00    +0.000 C 
ENDROOT
BRANCH   1   2
ATOM      2  C   UNL     1      46.547   6.008  12.657  0.00  0.00    +0.000 A 
ATOM      3  C   UNL     1      45.743   6.164  11.525  0.00  0.00    +0.000 A 
ATOM      4  C   UNL     1      45.033   5.078  11.000  0.00  0.00    +0.000 A 
ATOM      5  C   UNL     1      45.070   3.817  11.606  0.00  0.00    +0.000 A 
ATOM      6  C   UNL     1      45.828   3.688  12.778  0.00  0.00    +0.000 A 
ATOM      7  C   UNL     1      46.552   4.769  13.304  0.00  0.00    +0.000 A 
BRANCH   5   8
ATOM      8  N   UNL     1      44.518   2.661  11.035  0.00  0.00    +0.000 N 
ATOM      9  H   UNL     1      43.751   2.300  11.598  0.00  0.00    +0.000 HD
BRANCH   8  10
ATOM     10  C   UNL     1      44.320   2.601   9.593  0.00  0.00    +0.000 C 
BRANCH  10  11
ATOM     11  C   UNL     1      45.644   2.558   8.814  0.00  0.00    +0.000 C 
ATOM     12  C   UNL     1      45.570   3.578   7.663  0.00  0.00    +0.000 C 
ATOM     13  C   UNL     1      46.762   3.469   6.726  0.00  0.00    +0.000 C 
ATOM     14  O   UNL     1      46.894   2.136   6.239  0.00  0.00    +0.000 OA
ATOM     15  C   UNL     1      47.140   1.209   7.294  0.00  0.00    +0.000 C 
ATOM     16  C   UNL     1      45.961   1.164   8.255  0.00  0.00    +0.000 C 
ENDBRANCH  10  11
ENDBRANCH   8  10
ENDBRANCH   5   8
ENDBRANCH   1   2
BRANCH   1  19
ATOM     17  C   UNL     1      48.732   6.953  15.176  0.00  0.00    +0.000 C 
ATOM     18  O   UNL     1      49.724   6.635  14.523  0.00  0.00    +0.000 OA
ATOM     19  N   UNL     1      47.537   7.209  14.558  0.00  0.00    +0.000 N 
ATOM     20  H   UNL     1      46.726   7.498  15.088  0.00  0.00    +0.000 HD
BRANCH  17  28
ATOM     21  C   UNL     1      49.001   4.654  17.730  0.00  0.00    +0.000 A 
ATOM     22  N   UNL     1      49.049   3.990  18.903  0.00  0.00    +0.000 NA
ATOM     23  C   UNL     1      49.019   4.704  20.032  0.00  0.00    +0.000 A 
ATOM     24  N   UNL     1      48.953   6.027  20.140  0.00  0.00    +0.000 NA
ATOM     25  C   UNL     1      48.894   6.649  18.950  0.00  0.00    +0.000 A 
ATOM     26  S   UNL     1      48.813   8.344  18.899  0.00  0.00    +0.000 S 
ATOM     27  C   UNL     1      48.753   8.335  17.202  0.00  0.00    +0.000 A 
ATOM     28  C   UNL     1      48.795   7.064  16.640  0.00  0.00    +0.000 A 
ATOM     29  C   UNL     1      48.895   6.055  17.691  0.00  0.00    +0.000 A 
BRANCH  21  31
ATOM     30  C   UNL     1      48.037   2.902  16.525  0.00  0.00    +0.000 C 
ATOM     31  O   UNL     1      49.039   3.916  16.565  0.00  0.00    +0.000 OA
ENDBRANCH  21  31
ENDBRANCH  17  28
ENDBRANCH   1  19
TORSDOF 7
ENDMDL
MODEL 4
REMARK VINA RESULT:    -7.555      1.816      3.226
REMARK INTER + INTRA:         -11.943
REMARK INTER:                 -10.734
REMARK INTRA:                  -1.209
REMARK UNBOUND:                -1.296
REMARK  Name = 
REMARK  8 active torsions:
REMARK  status: ('A' for Active; 'I' for Inactive)
REMARK    1  A    between atoms: C_1  and  O_2
REMARK    2  A    between atoms: O_2  and  C_3
REMARK    3  A    between atoms: C_10  and  C_11
REMARK    4  A    between atoms: N_13  and  C_14
REMARK    5  A    between atoms: C_14  and  C_15
REMARK    6  A    between atoms: C_18  and  N_19
REMARK    7  A    between atoms: N_19  and  C_20
REMARK    8  A    between atoms: C_20  and  C_21
REMARK                            x       y       z     vdW  Elec       q    Type
REMARK                         _______ _______ _______ _____ _____    ______ ____
ROOT
ATOM      1  C   UNL     1      46.378   4.198  14.664  0.00  0.00    +0.000 C 
ENDROOT
BRANCH   1   2
ATOM      2  C   UNL     1      45.925   4.503  13.262  0.00  0.00    +0.000 A 
ATOM      3  C   UNL     1      46.230   5.733  12.673  0.00  0.00    +0.000 A 
ATOM      4  C   UNL     1      45.942   5.966  11.323  0.00  0.00    +0.000 A 
ATOM      5  C   UNL     1      45.309   5.001  10.531  0.00  0.00    +0.000 A 
ATOM      6  C   UNL     1      44.949   3.797  11.150  0.00  0.00    +0.000 A 
ATOM      7  C   UNL     1      45.244   3.550  12.499  0.00  0.00    +0.000 A 
BRANCH   5   8
ATOM      8  N   UNL     1      45.148   5.114   9.143  0.00  0.00    +0.000 N 
ATOM      9  H   UNL     1      45.847   5.734   8.739  0.00  0.00    +0.000 HD
BRANCH   8  10
ATOM     10  C   UNL     1      44.837   3.926   8.360  0.00  0.00    +0.000 C 
BRANCH  10  11
ATOM     11  C   UNL     1      46.090   3.118   7.986  0.00  0.00    +0.000 C 
ATOM     12  C   UNL     1      46.391   3.343   6.493  0.00  0.00    +0.000 C 
ATOM     13  C   UNL     1      47.503   2.434   5.992  0.00  0.00    +0.000 C 
ATOM     14  O   UNL     1      47.193   1.070   6.266  0.00  0.00    +0.000 OA
ATOM     15  C   UNL     1      47.088   0.822   7.666  0.00  0.00    +0.000 C 
ATOM     16  C   UNL     1      45.936   1.617   8.267  0.00  0.00    +0.000 C 
ENDBRANCH  10  11
ENDBRANCH   8  10
ENDBRANCH   5   8
ENDBRANCH   1   2
BRANCH   1  19
ATOM     17  C   UNL     1      48.155   4.910  16.172  0.00  0.00    +0.000 C 
ATOM     18  O   UNL     1      48.276   3.756  16.579  0.00  0.00    +0.000 OA
ATOM     19  N   UNL     1      47.220   5.225  15.222  0.00  0.00    +0.000 N 
ATOM     20  H   UNL     1      47.136   6.167  14.864  0.00  0.00    +0.000 HD
BRANCH  17  28
ATOM     21  C   UNL     1      50.016   7.408  14.697  0.00  0.00    +0.000 A 
ATOM     22  N   UNL     1      50.849   8.424  14.395  0.00  0.00    +0.000 NA
ATOM     23  C   UNL     1      51.437   9.075  15.403  0.00  0.00    +0.000 A 
ATOM     24  N   UNL     1      51.290   8.839  16.703  0.00  0.00    +0.000 NA
ATOM     25  C   UNL     1      50.463   7.811  16.959  0.00  0.00    +0.000 A 
ATOM     26  S   UNL     1      50.152   7.372  18.569  0.00  0.00    +0.000 S 
ATOM     27  C   UNL     1      49.134   6.107  18.076  0.00  0.00    +0.000 A 
ATOM     28  C   UNL     1      49.004   5.989  16.696  0.00  0.00    +0.000 A 
ATOM     29  C   UNL     1      49.791   7.022  16.029  0.00  0.00    +0.000 A 
BRANCH  21  31
ATOM     30  C   UNL     1      49.470   7.461  12.426  0.00  0.00    +0.000 C 
ATOM     31  O   UNL     1      49.403   6.740  13.656  0.00  0.00    +0.000 OA
ENDBRANCH  21  31
ENDBRANCH  17  28
ENDBRANCH   1  19
TORSDOF 7
ENDMDL
MODEL 5
REMARK VINA RESULT:    -7.362      1.939      2.629
REMARK INTER + INTRA:         -11.670
REMARK INTER:                 -10.791
REMARK INTRA:                  -0.879
REMARK UNBOUND:                -1.296
REMARK  Name = 
REMARK  8 active torsions:
REMARK  status: ('A' for Active; 'I' for Inactive)
REMARK    1  A    between atoms: C_1  and  O_2
REMARK    2  A    between atoms: O_2  and  C_3
REMARK    3  A    between atoms: C_10  and  C_11
REMARK    4  A    between atoms: N_13  and  C_14
REMARK    5  A    between atoms: C_14  and  C_15
REMARK    6  A    between atoms: C_18  and  N_19
REMARK    7  A    between atoms: N_19  and  C_20
REMARK    8  A    between atoms: C_20  and  C_21
REMARK                            x       y       z     vdW  Elec       q    Type
REMARK                         _______ _______ _______ _____ _____    ______ ____
ROOT
ATOM      1  C   UNL     1      47.406   6.512  13.531  0.00  0.00    +0.000 C 
ENDROOT
BRANCH   1   2
ATOM      2  C   UNL     1      46.460   5.863  12.559  0.00  0.00    +0.000 A 
ATOM      3  C   UNL     1      46.362   6.332  11.247  0.00  0.00    +0.000 A 
ATOM      4  C   UNL     1      45.596   5.643  10.299  0.00  0.00    +0.000 A 
ATOM      5  C   UNL     1      44.875   4.491  10.636  0.00  0.00    +0.000 A 
ATOM      6  C   UNL     1      44.929   4.067  11.971  0.00  0.00    +0.000 A 
ATOM      7  C   UNL     1      45.702   4.745  12.924  0.00  0.00    +0.000 A 
BRANCH   5   8
ATOM      8  N   UNL     1      44.232   3.672   9.698  0.00  0.00    +0.000 N 
ATOM      9  H   UNL     1      43.221   3.699   9.814  0.00  0.00    +0.000 HD
BRANCH   8  10
ATOM     10  C   UNL     1      44.704   3.655   8.320  0.00  0.00    +0.000 C 
BRANCH  10  11
ATOM     11  C   UNL     1      46.008   2.860   8.151  0.00  0.00    +0.000 C 
ATOM     12  C   UNL     1      46.687   3.302   6.841  0.00  0.00    +0.000 C 
ATOM     13  C   UNL     1      47.886   2.433   6.497  0.00  0.00    +0.000 C 
ATOM     14  O   UNL     1      47.511   1.059   6.456  0.00  0.00    +0.000 OA
ATOM     15  C   UNL     1      47.046   0.599   7.723  0.00  0.00    +0.000 C 
ATOM     16  C   UNL     1      45.781   1.341   8.133  0.00  0.00    +0.000 C 
ENDBRANCH  10  11
ENDBRANCH   8  10
ENDBRANCH   5   8
ENDBRANCH   1   2
BRANCH   1  19
ATOM     17  C   UNL     1      48.533   5.925  15.610  0.00  0.00    +0.000 C 
ATOM     18  O   UNL     1      49.552   6.493  15.222  0.00  0.00    +0.000 OA
ATOM     19  N   UNL     1      47.414   5.876  14.823  0.00  0.00    +0.000 N 
ATOM     20  H   UNL     1      46.564   5.435  15.150  0.00  0.00    +0.000 HD
BRANCH  17  28
ATOM     21  C   UNL     1      48.469   7.112  18.846  0.00  0.00    +0.000 A 
ATOM     22  N   UNL     1      48.487   7.290  20.182  0.00  0.00    +0.000 NA
ATOM     23  C   UNL     1      48.485   6.204  20.962  0.00  0.00    +0.000 A 
ATOM     24  N   UNL     1      48.457   4.936  20.566  0.00  0.00    +0.000 NA
ATOM     25  C   UNL     1      48.453   4.802  19.229  0.00  0.00    +0.000 A 
ATOM     26  S   UNL     1      48.412   3.249  18.547  0.00  0.00    +0.000 S 
ATOM     27  C   UNL     1      48.445   3.889  16.974  0.00  0.00    +0.000 A 
ATOM     28  C   UNL     1      48.486   5.278  16.929  0.00  0.00    +0.000 A 
ATOM     29  C   UNL     1      48.474   5.824  18.284  0.00  0.00    +0.000 A 
BRANCH  21  31
ATOM     30  C   UNL     1      47.744   9.320  18.619  0.00  0.00    +0.000 C 
ATOM     31  O   UNL     1      48.466   8.233  18.042  0.00  0.00    +0.000 OA
ENDBRANCH  21  31
ENDBRANCH  17  28
ENDBRANCH   1  19
TORSDOF 7
ENDMDL
MODEL 6
REMARK VINA RESULT:    -7.343      1.520      1.994
REMARK INTER + INTRA:         -11.643
REMARK INTER:                 -10.468
REMARK INTRA:                  -1.175
REMARK UNBOUND:                -1.296
REMARK  Name = 
REMARK  8 active torsions:
REMARK  status: ('A' for Active; 'I' for Inactive)
REMARK    1  A    between atoms: C_1  and  O_2
REMARK    2  A    between atoms: O_2  and  C_3
REMARK    3  A    between atoms: C_10  and  C_11
REMARK    4  A    between atoms: N_13  and  C_14
REMARK    5  A    between atoms: C_14  and  C_15
REMARK    6  A    between atoms: C_18  and  N_19
REMARK    7  A    between atoms: N_19  and  C_20
REMARK    8  A    between atoms: C_20  and  C_21
REMARK                            x       y       z     vdW  Elec       q    Type
REMARK                         _______ _______ _______ _____ _____    ______ ____
ROOT
ATOM      1  C   UNL     1      46.070   7.661  12.904  0.00  0.00    +0.000 C 
ENDROOT
BRANCH   1   2
ATOM      2  C   UNL     1      45.525   6.327  12.474  0.00  0.00    +0.000 A 
ATOM      3  C   UNL     1      44.665   6.235  11.377  0.00  0.00    +0.000 A 
ATOM      4  C   UNL     1      44.273   4.985  10.882  0.00  0.00    +0.000 A 
ATOM      5  C   UNL     1      44.691   3.793  11.486  0.00  0.00    +0.000 A 
ATOM      6  C   UNL     1      45.500   3.900  12.625  0.00  0.00    +0.000 A 
ATOM      7  C   UNL     1      45.907   5.147  13.121  0.00  0.00    +0.000 A 
BRANCH   5   8
ATOM      8  N   UNL     1      44.469   2.522  10.938  0.00  0.00    +0.000 N 
ATOM      9  H   UNL     1      43.797   1.993  11.491  0.00  0.00    +0.000 HD
BRANCH   8  10
ATOM     10  C   UNL     1      44.345   2.378   9.494  0.00  0.00    +0.000 C 
BRANCH  10  11
ATOM     11  C   UNL     1      45.699   2.465   8.772  0.00  0.00    +0.000 C 
ATOM     12  C   UNL     1      45.614   3.567   7.699  0.00  0.00    +0.000 C 
ATOM     13  C   UNL     1      46.846   3.593   6.809  0.00  0.00    +0.000 C 
ATOM     14  O   UNL     1      47.070   2.311   6.228  0.00  0.00    +0.000 OA
ATOM     15  C   UNL     1      47.326   1.318   7.219  0.00  0.00    +0.000 C 
ATOM     16  C   UNL     1      46.114   1.136   8.123  0.00  0.00    +0.000 C 
ENDBRANCH  10  11
ENDBRANCH   8  10
ENDBRANCH   5   8
ENDBRANCH   1   2
BRANCH   1  19
ATOM     17  C   UNL     1      48.449   7.480  13.397  0.00  0.00    +0.000 C 
ATOM     18  O   UNL     1      48.702   7.486  12.193  0.00  0.00    +0.000 OA
ATOM     19  N   UNL     1      47.157   7.551  13.843  0.00  0.00    +0.000 N 
ATOM     20  H   UNL     1      46.945   7.575  14.832  0.00  0.00    +0.000 HD
BRANCH  17  28
ATOM     21  C   UNL     1      48.874   5.645  16.284  0.00  0.00    +0.000 A 
ATOM     22  N   UNL     1      49.276   5.106  17.452  0.00  0.00    +0.000 NA
ATOM     23  C   UNL     1      50.455   5.490  17.950  0.00  0.00    +0.000 A 
ATOM     24  N   UNL     1      51.307   6.357  17.412  0.00  0.00    +0.000 NA
ATOM     25  C   UNL     1      50.863   6.880  16.256  0.00  0.00    +0.000 A 
ATOM     26  S   UNL     1      51.828   8.003  15.425  0.00  0.00    +0.000 S 
ATOM     27  C   UNL     1      50.659   8.172  14.205  0.00  0.00    +0.000 A 
ATOM     28  C   UNL     1      49.525   7.389  14.394  0.00  0.00    +0.000 A 
ATOM     29  C   UNL     1      49.657   6.603  15.618  0.00  0.00    +0.000 A 
BRANCH  21  31
ATOM     30  C   UNL     1      47.213   4.004  16.314  0.00  0.00    +0.000 C 
ATOM     31  O   UNL     1      47.659   5.244  15.768  0.00  0.00    +0.000 OA
ENDBRANCH  21  31
ENDBRANCH  17  28
ENDBRANCH   1  19
TORSDOF 7
ENDMDL
MODEL 7
REMARK VINA RESULT:    -7.255      2.322      3.232
REMARK INTER + INTRA:         -11.519
REMARK INTER:                 -10.447
REMARK INTRA:                  -1.072
REMARK UNBOUND:                -1.296
REMARK  Name = 
REMARK  8 active torsions:
REMARK  status: ('A' for Active; 'I' for Inactive)
REMARK    1  A    between atoms: C_1  and  O_2
REMARK    2  A    between atoms: O_2  and  C_3
REMARK    3  A    between atoms: C_10  and  C_11
REMARK    4  A    between atoms: N_13  and  C_14
REMARK    5  A    between atoms: C_14  and  C_15
REMARK    6  A    between atoms: C_18  and  N_19
REMARK    7  A    between atoms: N_19  and  C_20
REMARK    8  A    between atoms: C_20  and  C_21
REMARK                            x       y       z     vdW  Elec       q    Type
REMARK                         _______ _______ _______ _____ _____    ______ ____
ROOT
ATOM      1  C   UNL     1      46.836   4.389  14.712  0.00  0.00    +0.000 C 
ENDROOT
BRANCH   1   2
ATOM      2  C   UNL     1      46.289   4.642  13.334  0.00  0.00    +0.000 A 
ATOM      3  C   UNL     1      46.632   5.805  12.640  0.00  0.00    +0.000 A 
ATOM      4  C   UNL     1      46.247   5.976  11.304  0.00  0.00    +0.000 A 
ATOM      5  C   UNL     1      45.479   5.017  10.634  0.00  0.00    +0.000 A 
ATOM      6  C   UNL     1      45.086   3.885  11.360  0.00  0.00    +0.000 A 
ATOM      7  C   UNL     1      45.477   3.700  12.695  0.00  0.00    +0.000 A 
BRANCH   5   8
ATOM      8  N   UNL     1      45.209   5.057   9.259  0.00  0.00    +0.000 N 
ATOM      9  H   UNL     1      46.021   5.373   8.731  0.00  0.00    +0.000 HD
BRANCH   8  10
ATOM     10  C   UNL     1      44.447   3.976   8.648  0.00  0.00    +0.000 C 
BRANCH  10  11
ATOM     11  C   UNL     1      45.301   3.102   7.716  0.00  0.00    +0.000 C 
ATOM     12  C   UNL     1      45.693   1.818   8.470  0.00  0.00    +0.000 C 
ATOM     13  C   UNL     1      46.696   0.981   7.690  0.00  0.00    +0.000 C 
ATOM     14  O   UNL     1      47.839   1.762   7.352  0.00  0.00    +0.000 OA
ATOM     15  C   UNL     1      47.501   2.857   6.504  0.00  0.00    +0.000 C 
ATOM     16  C   UNL     1      46.564   3.820   7.218  0.00  0.00    +0.000 C 
ENDBRANCH  10  11
ENDBRANCH   8  10
ENDBRANCH   5   8
ENDBRANCH   1   2
BRANCH   1  19
ATOM     17  C   UNL     1      48.452   5.465  16.185  0.00  0.00    +0.000 C 
ATOM     18  O   UNL     1      48.932   4.368  16.464  0.00  0.00    +0.000 OA
ATOM     19  N   UNL     1      47.391   5.568  15.325  0.00  0.00    +0.000 N 
ATOM     20  H   UNL     1      47.011   6.470  15.070  0.00  0.00    +0.000 HD
BRANCH  17  28
ATOM     21  C   UNL     1      48.473   6.787  19.368  0.00  0.00    +0.000 A 
ATOM     22  N   UNL     1      48.585   7.546  20.476  0.00  0.00    +0.000 NA
ATOM     23  C   UNL     1      49.206   8.725  20.370  0.00  0.00    +0.000 A 
ATOM     24  N   UNL     1      49.748   9.248  19.275  0.00  0.00    +0.000 NA
ATOM     25  C   UNL     1      49.603   8.466  18.192  0.00  0.00    +0.000 A 
ATOM     26  S   UNL     1      50.242   8.976  16.704  0.00  0.00    +0.000 S 
ATOM     27  C   UNL     1      49.674   7.576  15.929  0.00  0.00    +0.000 A 
ATOM     28  C   UNL     1      48.996   6.699  16.769  0.00  0.00    +0.000 A 
ATOM     29  C   UNL     1      48.969   7.228  18.130  0.00  0.00    +0.000 A 
BRANCH  21  31
ATOM     30  C   UNL     1      48.701   4.540  19.964  0.00  0.00    +0.000 C 
ATOM     31  O   UNL     1      47.837   5.567  19.480  0.00  0.00    +0.000 OA
ENDBRANCH  21  31
ENDBRANCH  17  28
ENDBRANCH   1  19
TORSDOF 7
ENDMDL
MODEL 8
REMARK VINA RESULT:    -7.060      2.492      3.864
REMARK INTER + INTRA:         -11.244
REMARK INTER:                 -10.156
REMARK INTRA:                  -1.088
REMARK UNBOUND:                -1.296
REMARK  Name = 
REMARK  8 active torsions:
REMARK  status: ('A' for Active; 'I' for Inactive)
REMARK    1  A    between atoms: C_1  and  O_2
REMARK    2  A    between atoms: O_2  and  C_3
REMARK    3  A    between atoms: C_10  and  C_11
REMARK    4  A    between atoms: N_13  and  C_14
REMARK    5  A    between atoms: C_14  and  C_15
REMARK    6  A    between atoms: C_18  and  N_19
REMARK    7  A    between atoms: N_19  and  C_20
REMARK    8  A    between atoms: C_20  and  C_21
REMARK                            x       y       z     vdW  Elec       q    Type
REMARK                         _______ _______ _______ _____ _____    ______ ____
ROOT
ATOM      1  C   UNL     1      46.677   4.949  14.062  0.00  0.00    +0.000 C 
ENDROOT
BRANCH   1   2
ATOM      2  C   UNL     1      45.861   4.617  12.843  0.00  0.00    +0.000 A 
ATOM      3  C   UNL     1      45.494   5.621  11.943  0.00  0.00    +0.000 A 
ATOM      4  C   UNL     1      44.864   5.298  10.735  0.00  0.00    +0.000 A 
ATOM      5  C   UNL     1      44.546   3.976  10.404  0.00  0.00    +0.000 A 
ATOM      6  C   UNL     1      44.860   2.985  11.344  0.00  0.00    +0.000 A 
ATOM      7  C   UNL     1      45.501   3.298  12.552  0.00  0.00    +0.000 A 
BRANCH   5   8
ATOM      8  N   UNL     1      44.071   3.579   9.146  0.00  0.00    +0.000 N 
ATOM      9  H   UNL     1      43.066   3.723   9.068  0.00  0.00    +0.000 HD
BRANCH   8  10
ATOM     10  C   UNL     1      44.845   3.904   7.955  0.00  0.00    +0.000 C 
BRANCH  10  11
ATOM     11  C   UNL     1      46.099   3.027   7.807  0.00  0.00    +0.000 C 
ATOM     12  C   UNL     1      46.648   3.194   6.378  0.00  0.00    +0.000 C 
ATOM     13  C   UNL     1      47.777   2.219   6.083  0.00  0.00    +0.000 C 
ATOM     14  O   UNL     1      47.358   0.880   6.332  0.00  0.00    +0.000 OA
ATOM     15  C   UNL     1      47.015   0.678   7.701  0.00  0.00    +0.000 C 
ATOM     16  C   UNL     1      45.824   1.543   8.090  0.00  0.00    +0.000 C 
ENDBRANCH  10  11
ENDBRANCH   8  10
ENDBRANCH   5   8
ENDBRANCH   1   2
BRANCH   1  19
ATOM     17  C   UNL     1      48.154   6.811  13.524  0.00  0.00    +0.000 C 
ATOM     18  O   UNL     1      48.894   6.049  12.905  0.00  0.00    +0.000 OA
ATOM     19  N   UNL     1      47.027   6.344  14.145  0.00  0.00    +0.000 N 
ATOM     20  H   UNL     1      46.400   6.971  14.631  0.00  0.00    +0.000 HD
BRANCH  17  28
ATOM     21  C   UNL     1      48.736   8.950  16.163  0.00  0.00    +0.000 A 
ATOM     22  N   UNL     1      48.945   9.998  16.986  0.00  0.00    +0.000 NA
ATOM     23  C   UNL     1      49.127  11.202  16.437  0.00  0.00    +0.000 A 
ATOM     24  N   UNL     1      49.136  11.498  15.141  0.00  0.00    +0.000 NA
ATOM     25  C   UNL     1      48.911  10.430  14.357  0.00  0.00    +0.000 A 
ATOM     26  S   UNL     1      48.895  10.622  12.671  0.00  0.00    +0.000 S 
ATOM     27  C   UNL     1      48.561   8.973  12.440  0.00  0.00    +0.000 A 
ATOM     28  C   UNL     1      48.458   8.246  13.621  0.00  0.00    +0.000 A 
ATOM     29  C   UNL     1      48.684   9.119  14.769  0.00  0.00    +0.000 A 
BRANCH  21  31
ATOM     30  C   UNL     1      49.778   6.993  16.896  0.00  0.00    +0.000 C 
ATOM     31  O   UNL     1      48.553   7.706  16.731  0.00  0.00    +0.000 OA
ENDBRANCH  21  31
ENDBRANCH  17  28
ENDBRANCH   1  19
TORSDOF 7
ENDMDL
MODEL 9
REMARK VINA RESULT:    -6.791      3.147      4.928
REMARK INTER + INTRA:         -10.866
REMARK INTER:                 -10.038
REMARK INTRA:                  -0.828
REMARK UNBOUND:                -1.296
REMARK  Name = 
REMARK  8 active torsions:
REMARK  status: ('A' for Active; 'I' for Inactive)
REMARK    1  A    between atoms: C_1  and  O_2
REMARK    2  A    between atoms: O_2  and  C_3
REMARK    3  A    between atoms: C_10  and  C_11
REMARK    4  A    between atoms: N_13  and  C_14
REMARK    5  A    between atoms: C_14  and  C_15
REMARK    6  A    between atoms: C_18  and  N_19
REMARK    7  A    between atoms: N_19  and  C_20
REMARK    8  A    between atoms: C_20  and  C_21
REMARK                            x       y       z     vdW  Elec       q    Type
REMARK                         _______ _______ _______ _____ _____    ______ ____
ROOT
ATOM      1  C   UNL     1      46.748   5.572  13.891  0.00  0.00    +0.000 C 
ENDROOT
BRANCH   1   2
ATOM      2  C   UNL     1      45.904   5.042  12.765  0.00  0.00    +0.000 A 
ATOM      3  C   UNL     1      45.413   5.906  11.782  0.00  0.00    +0.000 A 
ATOM      4  C   UNL     1      44.753   5.402  10.655  0.00  0.00    +0.000 A 
ATOM      5  C   UNL     1      44.528   4.030  10.491  0.00  0.00    +0.000 A 
ATOM      6  C   UNL     1      44.967   3.179  11.514  0.00  0.00    +0.000 A 
ATOM      7  C   UNL     1      45.639   3.675  12.641  0.00  0.00    +0.000 A 
BRANCH   5   8
ATOM      8  N   UNL     1      44.026   3.458   9.313  0.00  0.00    +0.000 N 
ATOM      9  H   UNL     1      43.008   3.488   9.292  0.00  0.00    +0.000 HD
BRANCH   8  10
ATOM     10  C   UNL     1      44.688   3.736   8.045  0.00  0.00    +0.000 C 
BRANCH  10  11
ATOM     11  C   UNL     1      46.008   2.966   7.886  0.00  0.00    +0.000 C 
ATOM     12  C   UNL     1      46.565   3.233   6.475  0.00  0.00    +0.000 C 
ATOM     13  C   UNL     1      47.772   2.362   6.163  0.00  0.00    +0.000 C 
ATOM     14  O   UNL     1      47.454   0.985   6.351  0.00  0.00    +0.000 OA
ATOM     15  C   UNL     1      47.107   0.701   7.704  0.00  0.00    +0.000 C 
ATOM     16  C   UNL     1      45.847   1.455   8.105  0.00  0.00    +0.000 C 
ENDBRANCH  10  11
ENDBRANCH   8  10
ENDBRANCH   5   8
ENDBRANCH   1   2
BRANCH   1  19
ATOM     17  C   UNL     1      48.417   7.194  13.168  0.00  0.00    +0.000 C 
ATOM     18  O   UNL     1      49.191   6.279  12.892  0.00  0.00    +0.000 OA
ATOM     19  N   UNL     1      47.176   6.932  13.685  0.00  0.00    +0.000 N 
ATOM     20  H   UNL     1      46.526   7.678  13.888  0.00  0.00    +0.000 HD
BRANCH  17  28
ATOM     21  C   UNL     1      50.786   8.749  11.206  0.00  0.00    +0.000 A 
ATOM     22  N   UNL     1      51.637   9.598  10.596  0.00  0.00    +0.000 NA
ATOM     23  C   UNL     1      51.527  10.902  10.867  0.00  0.00    +0.000 A 
ATOM     24  N   UNL     1      50.650  11.478  11.683  0.00  0.00    +0.000 NA
ATOM     25  C   UNL     1      49.830  10.597  12.280  0.00  0.00    +0.000 A 
ATOM     26  S   UNL     1      48.640  11.158  13.352  0.00  0.00    +0.000 S 
ATOM     27  C   UNL     1      48.102   9.577  13.655  0.00  0.00    +0.000 A 
ATOM     28  C   UNL     1      48.800   8.597  12.958  0.00  0.00    +0.000 A 
ATOM     29  C   UNL     1      49.827   9.213  12.122  0.00  0.00    +0.000 A 
BRANCH  21  31
ATOM     30  C   UNL     1      52.039   7.103  10.121  0.00  0.00    +0.000 C 
ATOM     31  O   UNL     1      50.896   7.403  10.920  0.00  0.00    +0.000 OA
ENDBRANCH  21  31
ENDBRANCH  17  28
ENDBRANCH   1  19
TORSDOF 7
ENDMDL
