MODEL 1
REMARK VINA RESULT:    -5.852      0.000      0.000
REMARK INTER + INTRA:          -7.970
REMARK INTER:                  -7.562
REMARK INTRA:                  -0.408
REMARK UNBOUND:                -0.408
REMARK  Name = 
REMARK  8 active torsions:
REMARK  status: ('A' for Active; 'I' for Inactive)
REMARK    1  A    between atoms: C_1  and  C_2
REMARK    2  A    between atoms: C_2  and  C_3
REMARK    3  A    between atoms: C_2  and  O_4
REMARK    4  A    between atoms: C_2  and  C_5
REMARK    5  A    between atoms: C_8  and  C_9
REMARK    6  A    between atoms: C_10  and  C_11
REMARK    7  A    between atoms: C_14  and  C_15
REMARK    8  A    between atoms: C_15  and  N_16
REMARK                            x       y       z     vdW  Elec       q    Type
REMARK                         _______ _______ _______ _____ _____    ______ ____
ROOT
ATOM      1  C   UNL     1      46.758   4.689  14.626  0.00  0.00    +0.000 C 
ATOM      2  C   UNL     1      47.258   4.743  15.712  0.00  0.00    +0.000 C 
ENDROOT
BRANCH   1   6
ATOM      3  C   UNL     1      45.283   4.213  10.753  0.00  0.00    +0.000 A 
ATOM      4  C   UNL     1      45.803   5.457  11.121  0.00  0.00    +0.000 A 
ATOM      5  C   UNL     1      46.290   5.642  12.412  0.00  0.00    +0.000 A 
ATOM      6  C   UNL     1      46.250   4.578  13.302  0.00  0.00    +0.000 A 
ATOM      7  C   UNL     1      45.710   3.376  12.871  0.00  0.00    +0.000 A 
ATOM      8  N   UNL     1      45.230   3.171  11.626  0.00  0.00    +0.000 NA
BRANCH   3  10
ATOM      9  C   UNL     1      44.456   2.461   9.166  0.00  0.00    +0.000 C 
ATOM     10  C   UNL     1      44.753   3.953   9.347  0.00  0.00    +0.000 C 
ATOM     11  C   UNL     1      45.781   4.420   8.312  0.00  0.00    +0.000 C 
BRANCH  10  12
ATOM     12  O   UNL     1      43.535   4.678   9.118  0.00  0.00    +0.000 OA
ATOM     13  H   UNL     1      43.209   4.428   8.238  0.00  0.00    +0.000 HD
ENDBRANCH  10  12
ENDBRANCH   3  10
ENDBRANCH   1   6
BRANCH   2  14
ATOM     14  C   UNL     1      47.900   4.749  16.985  0.00  0.00    +0.000 A 
ATOM     15  C   UNL     1      48.314   5.958  17.544  0.00  0.00    +0.000 A 
ATOM     16  C   UNL     1      48.902   5.973  18.809  0.00  0.00    +0.000 A 
ATOM     17  C   UNL     1      49.081   4.780  19.526  0.00  0.00    +0.000 A 
ATOM     18  C   UNL     1      48.674   3.569  18.943  0.00  0.00    +0.000 A 
ATOM     19  C   UNL     1      48.083   3.555  17.680  0.00  0.00    +0.000 A 
BRANCH  17  20
ATOM     20  C   UNL     1      49.717   4.789  20.893  0.00  0.00    +0.000 C 
BRANCH  20  21
ATOM     21  N   UNL     1      51.144   4.489  20.829  0.00  0.00    +0.000 NA
ATOM     22  H   UNL     1      51.272   3.481  20.900  0.00  0.00    +0.000 HD
ATOM     23  H   UNL     1      51.606   4.897  21.639  0.00  0.00    +0.000 HD
ENDBRANCH  20  21
ENDBRANCH  17  20
ENDBRANCH   2  14
TORSDOF 6
ENDMDL
MODEL 2
REMARK VINA RESULT:    -5.693      3.315      9.131
REMARK INTER + INTRA:          -7.764
REMARK INTER:                  -7.358
REMARK INTRA:                  -0.406
REMARK UNBOUND:                -0.408
REMARK  Name = 
REMARK  8 active torsions:
REMARK  status: ('A' for Active; 'I' for Inactive)
REMARK    1  A    between atoms: C_1  and  C_2
REMARK    2  A    between atoms: C_2  and  C_3
REMARK    3  A    between atoms: C_2  and  O_4
REMARK    4  A    between atoms: C_2  and  C_5
REMARK    5  A    between atoms: C_8  and  C_9
REMARK    6  A    between atoms: C_10  and  C_11
REMARK    7  A    between atoms: C_14  and  C_15
REMARK    8  A    between atoms: C_15  and  N_16
REMARK                            x       y       z     vdW  Elec       q    Type
REMARK                         _______ _______ _______ _____ _____    ______ ____
ROOT
ATOM      1  C   UNL     1      47.064   4.572  15.130  0.00  0.00    +0.000 C 
ATOM      2  C   UNL     1      46.526   4.511  14.063  0.00  0.00    +0.000 C 
ENDROOT
BRANCH   1   6
ATOM      3  C   UNL     1      49.304   4.870  18.637  0.00  0.00    +0.000 A 
ATOM      4  C   UNL     1      48.467   3.763  18.472  0.00  0.00    +0.000 A 
ATOM      5  C   UNL     1      47.702   3.649  17.314  0.00  0.00    +0.000 A 
ATOM      6  C   UNL     1      47.795   4.641  16.348  0.00  0.00    +0.000 A 
ATOM      7  C   UNL     1      48.639   5.716  16.585  0.00  0.00    +0.000 A 
ATOM      8  N   UNL     1      49.390   5.851  17.698  0.00  0.00    +0.000 NA
BRANCH   3  10
ATOM      9  C   UNL     1      49.349   4.766  21.139  0.00  0.00    +0.000 C 
ATOM     10  C   UNL     1      50.177   5.034  19.877  0.00  0.00    +0.000 C 
ATOM     11  C   UNL     1      50.763   6.448  19.915  0.00  0.00    +0.000 C 
BRANCH  10  12
ATOM     12  O   UNL     1      51.270   4.103  19.859  0.00  0.00    +0.000 OA
ATOM     13  H   UNL     1      51.332   3.711  20.746  0.00  0.00    +0.000 HD
ENDBRANCH  10  12
ENDBRANCH   3  10
ENDBRANCH   1   6
BRANCH   2  14
ATOM     14  C   UNL     1      45.950   4.465  12.759  0.00  0.00    +0.000 A 
ATOM     15  C   UNL     1      46.042   5.578  11.924  0.00  0.00    +0.000 A 
ATOM     16  C   UNL     1      45.520   5.521  10.632  0.00  0.00    +0.000 A 
ATOM     17  C   UNL     1      44.902   4.351  10.163  0.00  0.00    +0.000 A 
ATOM     18  C   UNL     1      44.802   3.245  11.023  0.00  0.00    +0.000 A 
ATOM     19  C   UNL     1      45.327   3.301  12.313  0.00  0.00    +0.000 A 
BRANCH  17  20
ATOM     20  C   UNL     1      44.334   4.284   8.769  0.00  0.00    +0.000 C 
BRANCH  20  21
ATOM     21  N   UNL     1      45.373   4.047   7.771  0.00  0.00    +0.000 NA
ATOM     22  H   UNL     1      45.354   4.804   7.090  0.00  0.00    +0.000 HD
ATOM     23  H   UNL     1      45.156   3.193   7.262  0.00  0.00    +0.000 HD
ENDBRANCH  20  21
ENDBRANCH  17  20
ENDBRANCH   2  14
TORSDOF 6
ENDMDL
MODEL 3
REMARK VINA RESULT:    -4.839      3.676      4.271
REMARK INTER + INTRA:          -6.661
REMARK INTER:                  -6.249
REMARK INTRA:                  -0.412
REMARK UNBOUND:                -0.408
REMARK  Name = 
REMARK  8 active torsions:
REMARK  status: ('A' for Active; 'I' for Inactive)
REMARK    1  A    between atoms: C_1  and  C_2
REMARK    2  A    between atoms: C_2  and  C_3
REMARK    3  A    between atoms: C_2  and  O_4
REMARK    4  A    between atoms: C_2  and  C_5
REMARK    5  A    between atoms: C_8  and  C_9
REMARK    6  A    between atoms: C_10  and  C_11
REMARK    7  A    between atoms: C_14  and  C_15
REMARK    8  A    between atoms: C_15  and  N_16
REMARK                            x       y       z     vdW  Elec       q    Type
REMARK                         _______ _______ _______ _____ _____    ______ ____
ROOT
ATOM      1  C   UNL     1      48.258   6.721  13.691  0.00  0.00    +0.000 C 
ATOM      2  C   UNL     1      49.282   7.099  14.182  0.00  0.00    +0.000 C 
ENDROOT
BRANCH   1   6
ATOM      3  C   UNL     1      44.804   5.347  11.799  0.00  0.00    +0.000 A 
ATOM      4  C   UNL     1      45.621   6.253  11.118  0.00  0.00    +0.000 A 
ATOM      5  C   UNL     1      46.773   6.734  11.736  0.00  0.00    +0.000 A 
ATOM      6  C   UNL     1      47.082   6.294  13.014  0.00  0.00    +0.000 A 
ATOM      7  C   UNL     1      46.219   5.402  13.633  0.00  0.00    +0.000 A 
ATOM      8  N   UNL     1      45.096   4.922  13.058  0.00  0.00    +0.000 NA
BRANCH   3  10
ATOM      9  C   UNL     1      42.304   5.482  11.726  0.00  0.00    +0.000 C 
ATOM     10  C   UNL     1      43.541   4.776  11.162  0.00  0.00    +0.000 C 
ATOM     11  C   UNL     1      43.462   3.269  11.427  0.00  0.00    +0.000 C 
BRANCH  10  12
ATOM     12  O   UNL     1      43.553   4.974   9.739  0.00  0.00    +0.000 OA
ATOM     13  H   UNL     1      43.772   5.906   9.578  0.00  0.00    +0.000 HD
ENDBRANCH  10  12
ENDBRANCH   3  10
ENDBRANCH   1   6
BRANCH   2  14
ATOM     14  C   UNL     1      50.537   7.535  14.699  0.00  0.00    +0.000 A 
ATOM     15  C   UNL     1      51.260   8.515  14.020  0.00  0.00    +0.000 A 
ATOM     16  C   UNL     1      52.467   8.978  14.547  0.00  0.00    +0.000 A 
ATOM     17  C   UNL     1      52.961   8.464  15.756  0.00  0.00    +0.000 A 
ATOM     18  C   UNL     1      52.229   7.465  16.419  0.00  0.00    +0.000 A 
ATOM     19  C   UNL     1      51.021   7.006  15.895  0.00  0.00    +0.000 A 
BRANCH  17  20
ATOM     20  C   UNL     1      54.264   8.958  16.330  0.00  0.00    +0.000 C 
BRANCH  20  21
ATOM     21  N   UNL     1      54.487   8.457  17.682  0.00  0.00    +0.000 NA
ATOM     22  H   UNL     1      54.052   9.096  18.346  0.00  0.00    +0.000 HD
ATOM     23  H   UNL     1      55.485   8.468  17.881  0.00  0.00    +0.000 HD
ENDBRANCH  20  21
ENDBRANCH  17  20
ENDBRANCH   2  14
TORSDOF 6
ENDMDL
MODEL 4
REMARK VINA RESULT:    -4.768      2.487      2.680
REMARK INTER + INTRA:          -6.570
REMARK INTER:                  -6.170
REMARK INTRA:                  -0.399
REMARK UNBOUND:                -0.408
REMARK  Name = 
REMARK  8 active torsions:
REMARK  status: ('A' for Active; 'I' for Inactive)
REMARK    1  A    between atoms: C_1  and  C_2
REMARK    2  A    between atoms: C_2  and  C_3
REMARK    3  A    between atoms: C_2  and  O_4
REMARK    4  A    between atoms: C_2  and  C_5
REMARK    5  A    between atoms: C_8  and  C_9
REMARK    6  A    between atoms: C_10  and  C_11
REMARK    7  A    between atoms: C_14  and  C_15
REMARK    8  A    between atoms: C_15  and  N_16
REMARK                            x       y       z     vdW  Elec       q    Type
REMARK                         _______ _______ _______ _____ _____    ______ ____
ROOT
ATOM      1  C   UNL     1      47.941   6.315  14.316  0.00  0.00    +0.000 C 
ATOM      2  C   UNL     1      48.687   6.655  15.187  0.00  0.00    +0.000 C 
ENDROOT
BRANCH   1   6
ATOM      3  C   UNL     1      45.237   4.792  11.528  0.00  0.00    +0.000 A 
ATOM      4  C   UNL     1      45.848   6.021  11.262  0.00  0.00    +0.000 A 
ATOM      5  C   UNL     1      46.745   6.554  12.184  0.00  0.00    +0.000 A 
ATOM      6  C   UNL     1      47.013   5.844  13.346  0.00  0.00    +0.000 A 
ATOM      7  C   UNL     1      46.362   4.636  13.547  0.00  0.00    +0.000 A 
ATOM      8  N   UNL     1      45.488   4.099  12.671  0.00  0.00    +0.000 NA
BRANCH   3  10
ATOM      9  C   UNL     1      43.380   3.132  11.265  0.00  0.00    +0.000 C 
ATOM     10  C   UNL     1      44.261   4.156  10.543  0.00  0.00    +0.000 C 
ATOM     11  C   UNL     1      45.037   3.484   9.406  0.00  0.00    +0.000 C 
BRANCH  10  12
ATOM     12  O   UNL     1      43.401   5.150   9.964  0.00  0.00    +0.000 OA
ATOM     13  H   UNL     1      43.245   5.829  10.641  0.00  0.00    +0.000 HD
ENDBRANCH  10  12
ENDBRANCH   3  10
ENDBRANCH   1   6
BRANCH   2  14
ATOM     14  C   UNL     1      49.525   7.030  16.278  0.00  0.00    +0.000 A 
ATOM     15  C   UNL     1      49.221   8.170  17.022  0.00  0.00    +0.000 A 
ATOM     16  C   UNL     1      50.013   8.515  18.118  0.00  0.00    +0.000 A 
ATOM     17  C   UNL     1      51.115   7.724  18.479  0.00  0.00    +0.000 A 
ATOM     18  C   UNL     1      51.417   6.589  17.710  0.00  0.00    +0.000 A 
ATOM     19  C   UNL     1      50.624   6.242  16.617  0.00  0.00    +0.000 A 
BRANCH  17  20
ATOM     20  C   UNL     1      51.975   8.093  19.661  0.00  0.00    +0.000 C 
BRANCH  20  21
ATOM     21  N   UNL     1      53.069   8.980  19.280  0.00  0.00    +0.000 NA
ATOM     22  H   UNL     1      52.951   9.248  18.304  0.00  0.00    +0.000 HD
ATOM     23  H   UNL     1      53.947   8.468  19.335  0.00  0.00    +0.000 HD
ENDBRANCH  20  21
ENDBRANCH  17  20
ENDBRANCH   2  14
TORSDOF 6
ENDMDL
MODEL 5
REMARK VINA RESULT:    -4.569      6.105      8.817
REMARK INTER + INTRA:          -6.312
REMARK INTER:                  -5.894
REMARK INTRA:                  -0.418
REMARK UNBOUND:                -0.408
REMARK  Name = 
REMARK  8 active torsions:
REMARK  status: ('A' for Active; 'I' for Inactive)
REMARK    1  A    between atoms: C_1  and  C_2
REMARK    2  A    between atoms: C_2  and  C_3
REMARK    3  A    between atoms: C_2  and  O_4
REMARK    4  A    between atoms: C_2  and  C_5
REMARK    5  A    between atoms: C_8  and  C_9
REMARK    6  A    between atoms: C_10  and  C_11
REMARK    7  A    between atoms: C_14  and  C_15
REMARK    8  A    between atoms: C_15  and  N_16
REMARK                            x       y       z     vdW  Elec       q    Type
REMARK                         _______ _______ _______ _____ _____    ______ ____
ROOT
ATOM      1  C   UNL     1      48.987   7.661  11.617  0.00  0.00    +0.000 C 
ATOM      2  C   UNL     1      47.966   7.058  11.784  0.00  0.00    +0.000 C 
ENDROOT
BRANCH   1   6
ATOM      3  C   UNL     1      52.492   9.751  10.755  0.00  0.00    +0.000 A 
ATOM      4  C   UNL     1      52.476   8.367  10.561  0.00  0.00    +0.000 A 
ATOM      5  C   UNL     1      51.320   7.648  10.853  0.00  0.00    +0.000 A 
ATOM      6  C   UNL     1      50.208   8.329  11.327  0.00  0.00    +0.000 A 
ATOM      7  C   UNL     1      50.301   9.701  11.506  0.00  0.00    +0.000 A 
ATOM      8  N   UNL     1      51.409  10.422  11.232  0.00  0.00    +0.000 NA
BRANCH   3  10
ATOM      9  C   UNL     1      54.897   9.674  10.060  0.00  0.00    +0.000 C 
ATOM     10  C   UNL     1      53.726  10.588  10.434  0.00  0.00    +0.000 C 
ATOM     11  C   UNL     1      54.093  11.455  11.642  0.00  0.00    +0.000 C 
BRANCH  10  12
ATOM     12  O   UNL     1      53.475  11.463   9.323  0.00  0.00    +0.000 OA
ATOM     13  H   UNL     1      54.320  11.877   9.083  0.00  0.00    +0.000 HD
ENDBRANCH  10  12
ENDBRANCH   3  10
ENDBRANCH   1   6
BRANCH   2  14
ATOM     14  C   UNL     1      46.746   6.331  11.906  0.00  0.00    +0.000 A 
ATOM     15  C   UNL     1      46.294   5.947  13.168  0.00  0.00    +0.000 A 
ATOM     16  C   UNL     1      45.078   5.275  13.295  0.00  0.00    +0.000 A 
ATOM     17  C   UNL     1      44.303   4.982  12.162  0.00  0.00    +0.000 A 
ATOM     18  C   UNL     1      44.780   5.360  10.897  0.00  0.00    +0.000 A 
ATOM     19  C   UNL     1      45.994   6.035  10.770  0.00  0.00    +0.000 A 
BRANCH  17  20
ATOM     20  C   UNL     1      42.989   4.254  12.293  0.00  0.00    +0.000 C 
BRANCH  20  21
ATOM     21  N   UNL     1      42.949   3.054  11.464  0.00  0.00    +0.000 NA
ATOM     22  H   UNL     1      43.536   3.199  10.645  0.00  0.00    +0.000 HD
ATOM     23  H   UNL     1      42.001   2.919  11.120  0.00  0.00    +0.000 HD
ENDBRANCH  20  21
ENDBRANCH  17  20
ENDBRANCH   2  14
TORSDOF 6
ENDMDL
MODEL 6
REMARK VINA RESULT:    -4.520      3.800      9.259
REMARK INTER + INTRA:          -6.249
REMARK INTER:                  -5.830
REMARK INTRA:                  -0.419
REMARK UNBOUND:                -0.408
REMARK  Name = 
REMARK  8 active torsions:
REMARK  status: ('A' for Active; 'I' for Inactive)
REMARK    1  A    between atoms: C_1  and  C_2
REMARK    2  A    between atoms: C_2  and  C_3
REMARK    3  A    between atoms: C_2  and  O_4
REMARK    4  A    between atoms: C_2  and  C_5
REMARK    5  A    between atoms: C_8  and  C_9
REMARK    6  A    between atoms: C_10  and  C_11
REMARK    7  A    between atoms: C_14  and  C_15
REMARK    8  A    between atoms: C_15  and  N_16
REMARK                            x       y       z     vdW  Elec       q    Type
REMARK                         _______ _______ _______ _____ _____    ______ ____
ROOT
ATOM      1  C   UNL     1      48.215   6.206  14.911  0.00  0.00    +0.000 C 
ATOM      2  C   UNL     1      47.484   5.933  14.005  0.00  0.00    +0.000 C 
ENDROOT
BRANCH   1   6
ATOM      3  C   UNL     1      50.649   6.863  18.235  0.00  0.00    +0.000 A 
ATOM      4  C   UNL     1      51.150   7.178  16.969  0.00  0.00    +0.000 A 
ATOM      5  C   UNL     1      50.359   6.956  15.845  0.00  0.00    +0.000 A 
ATOM      6  C   UNL     1      49.086   6.430  16.013  0.00  0.00    +0.000 A 
ATOM      7  C   UNL     1      48.660   6.131  17.299  0.00  0.00    +0.000 A 
ATOM      8  N   UNL     1      49.406   6.335  18.404  0.00  0.00    +0.000 NA
BRANCH   3  10
ATOM      9  C   UNL     1      50.714   8.051  20.439  0.00  0.00    +0.000 C 
ATOM     10  C   UNL     1      51.467   7.103  19.500  0.00  0.00    +0.000 C 
ATOM     11  C   UNL     1      52.831   7.692  19.130  0.00  0.00    +0.000 C 
BRANCH  10  12
ATOM     12  O   UNL     1      51.694   5.871  20.203  0.00  0.00    +0.000 OA
ATOM     13  H   UNL     1      52.553   5.946  20.649  0.00  0.00    +0.000 HD
ENDBRANCH  10  12
ENDBRANCH   3  10
ENDBRANCH   1   6
BRANCH   2  14
ATOM     14  C   UNL     1      46.639   5.535  12.927  0.00  0.00    +0.000 A 
ATOM     15  C   UNL     1      46.577   6.316  11.774  0.00  0.00    +0.000 A 
ATOM     16  C   UNL     1      45.786   5.906  10.699  0.00  0.00    +0.000 A 
ATOM     17  C   UNL     1      45.052   4.712  10.769  0.00  0.00    +0.000 A 
ATOM     18  C   UNL     1      45.112   3.945  11.944  0.00  0.00    +0.000 A 
ATOM     19  C   UNL     1      45.905   4.353  13.016  0.00  0.00    +0.000 A 
BRANCH  17  20
ATOM     20  C   UNL     1      44.195   4.264   9.613  0.00  0.00    +0.000 C 
BRANCH  20  21
ATOM     21  N   UNL     1      44.872   4.448   8.333  0.00  0.00    +0.000 NA
ATOM     22  H   UNL     1      45.235   3.548   8.021  0.00  0.00    +0.000 HD
ATOM     23  H   UNL     1      45.677   5.055   8.467  0.00  0.00    +0.000 HD
ENDBRANCH  20  21
ENDBRANCH  17  20
ENDBRANCH   2  14
TORSDOF 6
ENDMDL
MODEL 7
REMARK VINA RESULT:    -4.437      9.911     10.865
REMARK INTER + INTRA:          -6.142
REMARK INTER:                  -5.714
REMARK INTRA:                  -0.428
REMARK UNBOUND:                -0.408
REMARK  Name = 
REMARK  8 active torsions:
REMARK  status: ('A' for Active; 'I' for Inactive)
REMARK    1  A    between atoms: C_1  and  C_2
REMARK    2  A    between atoms: C_2  and  C_3
REMARK    3  A    between atoms: C_2  and  O_4
REMARK    4  A    between atoms: C_2  and  C_5
REMARK    5  A    between atoms: C_8  and  C_9
REMARK    6  A    between atoms: C_10  and  C_11
REMARK    7  A    between atoms: C_14  and  C_15
REMARK    8  A    between atoms: C_15  and  N_16
REMARK                            x       y       z     vdW  Elec       q    Type
REMARK                         _______ _______ _______ _____ _____    ______ ____
ROOT
ATOM      1  C   UNL     1      41.719  -3.516  17.307  0.00  0.00    +0.000 C 
ATOM      2  C   UNL     1      42.633  -4.266  17.487  0.00  0.00    +0.000 C 
ENDROOT
BRANCH   1   6
ATOM      3  C   UNL     1      38.793  -0.662  16.470  0.00  0.00    +0.000 A 
ATOM      4  C   UNL     1      39.039  -0.994  17.805  0.00  0.00    +0.000 A 
ATOM      5  C   UNL     1      40.003  -1.952  18.107  0.00  0.00    +0.000 A 
ATOM      6  C   UNL     1      40.701  -2.551  17.068  0.00  0.00    +0.000 A 
ATOM      7  C   UNL     1      40.395  -2.181  15.768  0.00  0.00    +0.000 A 
ATOM      8  N   UNL     1      39.466  -1.257  15.448  0.00  0.00    +0.000 NA
BRANCH   3  10
ATOM      9  C   UNL     1      38.168   1.756  16.656  0.00  0.00    +0.000 C 
ATOM     10  C   UNL     1      37.761   0.393  16.086  0.00  0.00    +0.000 C 
ATOM     11  C   UNL     1      36.382  -0.015  16.614  0.00  0.00    +0.000 C 
BRANCH  10  12
ATOM     12  O   UNL     1      37.668   0.520  14.658  0.00  0.00    +0.000 OA
ATOM     13  H   UNL     1      38.398   0.008  14.274  0.00  0.00    +0.000 HD
ENDBRANCH  10  12
ENDBRANCH   3  10
ENDBRANCH   1   6
BRANCH   2  14
ATOM     14  C   UNL     1      43.767  -5.114  17.656  0.00  0.00    +0.000 A 
ATOM     15  C   UNL     1      43.800  -6.357  17.023  0.00  0.00    +0.000 A 
ATOM     16  C   UNL     1      44.926  -7.170  17.149  0.00  0.00    +0.000 A 
ATOM     17  C   UNL     1      46.029  -6.748  17.908  0.00  0.00    +0.000 A 
ATOM     18  C   UNL     1      45.974  -5.502  18.552  0.00  0.00    +0.000 A 
ATOM     19  C   UNL     1      44.850  -4.688  18.424  0.00  0.00    +0.000 A 
BRANCH  17  20
ATOM     20  C   UNL     1      47.249  -7.623  18.049  0.00  0.00    +0.000 C 
BRANCH  20  21
ATOM     21  N   UNL     1      48.390  -6.882  18.576  0.00  0.00    +0.000 NA
ATOM     22  H   UNL     1      48.153  -5.892  18.610  0.00  0.00    +0.000 HD
ATOM     23  H   UNL     1      49.171  -6.970  17.930  0.00  0.00    +0.000 HD
ENDBRANCH  20  21
ENDBRANCH  17  20
ENDBRANCH   2  14
TORSDOF 6
ENDMDL
MODEL 8
REMARK VINA RESULT:    -4.282      5.166      9.113
REMARK INTER + INTRA:          -5.942
REMARK INTER:                  -5.521
REMARK INTRA:                  -0.421
REMARK UNBOUND:                -0.408
REMARK  Name = 
REMARK  8 active torsions:
REMARK  status: ('A' for Active; 'I' for Inactive)
REMARK    1  A    between atoms: C_1  and  C_2
REMARK    2  A    between atoms: C_2  and  C_3
REMARK    3  A    between atoms: C_2  and  O_4
REMARK    4  A    between atoms: C_2  and  C_5
REMARK    5  A    between atoms: C_8  and  C_9
REMARK    6  A    between atoms: C_10  and  C_11
REMARK    7  A    between atoms: C_14  and  C_15
REMARK    8  A    between atoms: C_15  and  N_16
REMARK                            x       y       z     vdW  Elec       q    Type
REMARK                         _______ _______ _______ _____ _____    ______ ____
ROOT
ATOM      1  C   UNL     1      49.055   7.051  13.522  0.00  0.00    +0.000 C 
ATOM      2  C   UNL     1      48.042   6.577  13.097  0.00  0.00    +0.000 C 
ENDROOT
BRANCH   1   6
ATOM      3  C   UNL     1      52.478   8.834  15.104  0.00  0.00    +0.000 A 
ATOM      4  C   UNL     1      51.789   7.902  15.886  0.00  0.00    +0.000 A 
ATOM      5  C   UNL     1      50.638   7.303  15.382  0.00  0.00    +0.000 A 
ATOM      6  C   UNL     1      50.206   7.646  14.109  0.00  0.00    +0.000 A 
ATOM      7  C   UNL     1      50.934   8.587  13.396  0.00  0.00    +0.000 A 
ATOM      8  N   UNL     1      52.051   9.183  13.860  0.00  0.00    +0.000 NA
BRANCH   3  10
ATOM      9  C   UNL     1      54.854   8.457  15.803  0.00  0.00    +0.000 C 
ATOM     10  C   UNL     1      53.755   9.505  15.601  0.00  0.00    +0.000 C 
ATOM     11  C   UNL     1      53.474  10.242  16.914  0.00  0.00    +0.000 C 
BRANCH  10  12
ATOM     12  O   UNL     1      54.230  10.468  14.647  0.00  0.00    +0.000 OA
ATOM     13  H   UNL     1      54.381   9.997  13.811  0.00  0.00    +0.000 HD
ENDBRANCH  10  12
ENDBRANCH   3  10
ENDBRANCH   1   6
BRANCH   2  14
ATOM     14  C   UNL     1      46.806   6.010  12.665  0.00  0.00    +0.000 A 
ATOM     15  C   UNL     1      46.047   5.251  13.554  0.00  0.00    +0.000 A 
ATOM     16  C   UNL     1      44.816   4.733  13.149  0.00  0.00    +0.000 A 
ATOM     17  C   UNL     1      44.335   4.970  11.852  0.00  0.00    +0.000 A 
ATOM     18  C   UNL     1      45.119   5.723  10.964  0.00  0.00    +0.000 A 
ATOM     19  C   UNL     1      46.347   6.244  11.369  0.00  0.00    +0.000 A 
BRANCH  17  20
ATOM     20  C   UNL     1      43.007   4.412  11.407  0.00  0.00    +0.000 C 
BRANCH  20  21
ATOM     21  N   UNL     1      43.006   2.953  11.402  0.00  0.00    +0.000 NA
ATOM     22  H   UNL     1      43.784   2.621  11.970  0.00  0.00    +0.000 HD
ATOM     23  H   UNL     1      43.178   2.624  10.455  0.00  0.00    +0.000 HD
ENDBRANCH  20  21
ENDBRANCH  17  20
ENDBRANCH   2  14
TORSDOF 6
ENDMDL
MODEL 9
REMARK VINA RESULT:    -4.006     10.726     12.486
REMARK INTER + INTRA:          -5.584
REMARK INTER:                  -5.160
REMARK INTRA:                  -0.424
REMARK UNBOUND:                -0.408
REMARK  Name = 
REMARK  8 active torsions:
REMARK  status: ('A' for Active; 'I' for Inactive)
REMARK    1  A    between atoms: C_1  and  C_2
REMARK    2  A    between atoms: C_2  and  C_3
REMARK    3  A    between atoms: C_2  and  O_4
REMARK    4  A    between atoms: C_2  and  C_5
REMARK    5  A    between atoms: C_8  and  C_9
REMARK    6  A    between atoms: C_10  and  C_11
REMARK    7  A    between atoms: C_14  and  C_15
REMARK    8  A    between atoms: C_15  and  N_16
REMARK                            x       y       z     vdW  Elec       q    Type
REMARK                         _______ _______ _______ _____ _____    ______ ____
ROOT
ATOM      1  C   UNL     1      41.152  -3.607  16.429  0.00  0.00    +0.000 C 
ATOM      2  C   UNL     1      40.315  -2.779  16.214  0.00  0.00    +0.000 C 
ENDROOT
BRANCH   1   6
ATOM      3  C   UNL     1      44.189  -6.371  17.161  0.00  0.00    +0.000 A 
ATOM      4  C   UNL     1      44.062  -5.277  18.021  0.00  0.00    +0.000 A 
ATOM      5  C   UNL     1      43.063  -4.336  17.789  0.00  0.00    +0.000 A 
ATOM      6  C   UNL     1      42.213  -4.514  16.707  0.00  0.00    +0.000 A 
ATOM      7  C   UNL     1      42.406  -5.617  15.890  0.00  0.00    +0.000 A 
ATOM      8  N   UNL     1      43.366  -6.543  16.091  0.00  0.00    +0.000 NA
BRANCH   3  10
ATOM      9  C   UNL     1      44.682  -8.589  18.217  0.00  0.00    +0.000 C 
ATOM     10  C   UNL     1      45.255  -7.440  17.381  0.00  0.00    +0.000 C 
ATOM     11  C   UNL     1      46.469  -6.824  18.083  0.00  0.00    +0.000 C 
BRANCH  10  12
ATOM     12  O   UNL     1      45.699  -7.984  16.127  0.00  0.00    +0.000 OA
ATOM     13  H   UNL     1      45.112  -7.635  15.436  0.00  0.00    +0.000 HD
ENDBRANCH  10  12
ENDBRANCH   3  10
ENDBRANCH   1   6
BRANCH   2  14
ATOM     14  C   UNL     1      39.359  -1.743  16.001  0.00  0.00    +0.000 A 
ATOM     15  C   UNL     1      39.271  -0.689  16.910  0.00  0.00    +0.000 A 
ATOM     16  C   UNL     1      38.368   0.351  16.682  0.00  0.00    +0.000 A 
ATOM     17  C   UNL     1      37.546   0.344  15.543  0.00  0.00    +0.000 A 
ATOM     18  C   UNL     1      37.636  -0.733  14.647  0.00  0.00    +0.000 A 
ATOM     19  C   UNL     1      38.541  -1.769  14.873  0.00  0.00    +0.000 A 
BRANCH  17  20
ATOM     20  C   UNL     1      36.568   1.463  15.292  0.00  0.00    +0.000 C 
BRANCH  20  21
ATOM     21  N   UNL     1      37.128   2.764  15.646  0.00  0.00    +0.000 NA
ATOM     22  H   UNL     1      36.508   3.218  16.314  0.00  0.00    +0.000 HD
ATOM     23  H   UNL     1      37.144   3.355  14.818  0.00  0.00    +0.000 HD
ENDBRANCH  20  21
ENDBRANCH  17  20
ENDBRANCH   2  14
TORSDOF 6
ENDMDL
