MODEL 1
REMARK VINA RESULT:    -8.537      0.000      0.000
REMARK INTER + INTRA:         -12.055
REMARK INTER:                 -11.282
REMARK INTRA:                  -0.773
REMARK UNBOUND:                -0.773
REMARK  Name = 
REMARK  6 active torsions:
REMARK  status: ('A' for Active; 'I' for Inactive)
REMARK    1  A    between atoms: C_2  and  C_4
REMARK    2  A    between atoms: C_7  and  O_8
REMARK    3  A    between atoms: O_8  and  C_9
REMARK    4  A    between atoms: C_9  and  C_10
REMARK    5  A    between atoms: C_14  and  N_15
REMARK    6  A    between atoms: C_18  and  O_19
REMARK                            x       y       z     vdW  Elec       q    Type
REMARK                         _______ _______ _______ _____ _____    ______ ____
ROOT
ATOM      1  C   UNL     1      44.601   4.507  12.016  0.00  0.00    +0.000 A 
ATOM      2  C   UNL     1      45.351   3.513  12.626  0.00  0.00    +0.000 A 
ATOM      3  N   UNL     1      46.426   3.753  13.402  0.00  0.00    +0.000 NA
ATOM      4  C   UNL     1      46.767   5.056  13.572  0.00  0.00    +0.000 A 
ATOM      5  C   UNL     1      46.108   6.156  13.014  0.00  0.00    +0.000 A 
ATOM      6  C   UNL     1      44.991   5.838  12.229  0.00  0.00    +0.000 A 
ENDROOT
BRANCH   5   7
ATOM      7  N   UNL     1      46.498   7.470  13.219  0.00  0.00    +0.000 N 
ATOM      8  C   UNL     1      47.912   7.833  13.307  0.00  0.00    +0.000 C 
ATOM      9  C   UNL     1      48.319   8.683  12.109  0.00  0.00    +0.000 C 
ATOM     10  C   UNL     1      47.378   9.870  11.907  0.00  0.00    +0.000 C 
ATOM     11  C   UNL     1      45.914   9.437  11.869  0.00  0.00    +0.000 C 
ATOM     12  C   UNL     1      45.537   8.566  13.066  0.00  0.00    +0.000 C 
BRANCH  10  13
ATOM     13  O   UNL     1      47.583  10.854  12.920  0.00  0.00    +0.000 OA
ATOM     14  H   UNL     1      47.398  11.733  12.552  0.00  0.00    +0.000 HD
ENDBRANCH  10  13
ENDBRANCH   5   7
BRANCH   1  15
ATOM     15  C   UNL     1      43.441   4.161  11.123  0.00  0.00    +0.000 C 
BRANCH  15  16
ATOM     16  O   UNL     1      43.620   4.693   9.803  0.00  0.00    +0.000 OA
BRANCH  16  20
ATOM     17  C   UNL     1      46.403   2.508   7.671  0.00  0.00    +0.000 A 
ATOM     18  C   UNL     1      45.496   1.839   8.495  0.00  0.00    +0.000 A 
ATOM     19  C   UNL     1      44.555   2.576   9.222  0.00  0.00    +0.000 A 
ATOM     20  C   UNL     1      44.557   3.963   9.094  0.00  0.00    +0.000 A 
ATOM     21  N   UNL     1      45.432   4.625   8.311  0.00  0.00    +0.000 NA
ATOM     22  C   UNL     1      46.340   3.893   7.629  0.00  0.00    +0.000 A 
BRANCH  17  24
ATOM     23  N   UNL     1      48.504   2.574   6.460  0.00  0.00    +0.000 N 
ATOM     24  C   UNL     1      47.435   1.829   6.860  0.00  0.00    +0.000 C 
ATOM     25  O   UNL     1      47.355   0.634   6.597  0.00  0.00    +0.000 OA
ATOM     26  H   UNL     1      49.252   2.072   5.998  0.00  0.00    +0.000 HD
ATOM     27  H   UNL     1      48.726   3.472   6.866  0.00  0.00    +0.000 HD
ENDBRANCH  17  24
ENDBRANCH  16  20
ENDBRANCH  15  16
ENDBRANCH   1  15
TORSDOF 6
ENDMDL
MODEL 2
REMARK VINA RESULT:    -8.243      2.204      3.307
REMARK INTER + INTRA:         -11.665
REMARK INTER:                 -10.804
REMARK INTRA:                  -0.862
REMARK UNBOUND:                -0.773
REMARK  Name = 
REMARK  6 active torsions:
REMARK  status: ('A' for Active; 'I' for Inactive)
REMARK    1  A    between atoms: C_2  and  C_4
REMARK    2  A    between atoms: C_7  and  O_8
REMARK    3  A    between atoms: O_8  and  C_9
REMARK    4  A    between atoms: C_9  and  C_10
REMARK    5  A    between atoms: C_14  and  N_15
REMARK    6  A    between atoms: C_18  and  O_19
REMARK                            x       y       z     vdW  Elec       q    Type
REMARK                         _______ _______ _______ _____ _____    ______ ____
ROOT
ATOM      1  C   UNL     1      44.555   5.329  11.861  0.00  0.00    +0.000 A 
ATOM      2  C   UNL     1      44.440   6.706  11.736  0.00  0.00    +0.000 A 
ATOM      3  N   UNL     1      45.242   7.586  12.367  0.00  0.00    +0.000 NA
ATOM      4  C   UNL     1      46.206   7.059  13.163  0.00  0.00    +0.000 A 
ATOM      5  C   UNL     1      46.433   5.696  13.385  0.00  0.00    +0.000 A 
ATOM      6  C   UNL     1      45.573   4.835  12.690  0.00  0.00    +0.000 A 
ENDROOT
BRANCH   5   7
ATOM      7  N   UNL     1      47.433   5.208  14.211  0.00  0.00    +0.000 N 
ATOM      8  C   UNL     1      48.527   6.068  14.662  0.00  0.00    +0.000 C 
ATOM      9  C   UNL     1      48.433   6.305  16.164  0.00  0.00    +0.000 C 
ATOM     10  C   UNL     1      48.303   4.997  16.941  0.00  0.00    +0.000 C 
ATOM     11  C   UNL     1      47.177   4.120  16.398  0.00  0.00    +0.000 C 
ATOM     12  C   UNL     1      47.278   3.917  14.887  0.00  0.00    +0.000 C 
BRANCH  10  13
ATOM     13  O   UNL     1      49.539   4.283  16.936  0.00  0.00    +0.000 OA
ATOM     14  H   UNL     1      49.623   3.798  16.098  0.00  0.00    +0.000 HD
ENDBRANCH  10  13
ENDBRANCH   5   7
BRANCH   1  15
ATOM     15  C   UNL     1      43.591   4.409  11.164  0.00  0.00    +0.000 C 
BRANCH  15  16
ATOM     16  O   UNL     1      43.545   4.668   9.754  0.00  0.00    +0.000 OA
BRANCH  16  20
ATOM     17  C   UNL     1      46.346   2.410   7.724  0.00  0.00    +0.000 A 
ATOM     18  C   UNL     1      45.595   1.814   8.739  0.00  0.00    +0.000 A 
ATOM     19  C   UNL     1      44.649   2.578   9.432  0.00  0.00    +0.000 A 
ATOM     20  C   UNL     1      44.488   3.915   9.078  0.00  0.00    +0.000 A 
ATOM     21  N   UNL     1      45.212   4.508   8.107  0.00  0.00    +0.000 NA
ATOM     22  C   UNL     1      46.129   3.754   7.461  0.00  0.00    +0.000 A 
BRANCH  17  24
ATOM     23  N   UNL     1      48.499   2.385   6.606  0.00  0.00    +0.000 N 
ATOM     24  C   UNL     1      47.367   1.697   6.929  0.00  0.00    +0.000 C 
ATOM     25  O   UNL     1      47.224   0.521   6.613  0.00  0.00    +0.000 OA
ATOM     26  H   UNL     1      49.233   1.855   6.155  0.00  0.00    +0.000 HD
ATOM     27  H   UNL     1      48.759   3.251   7.058  0.00  0.00    +0.000 HD
ENDBRANCH  17  24
ENDBRANCH  16  20
ENDBRANCH  15  16
ENDBRANCH   1  15
TORSDOF 6
ENDMDL
MODEL 3
REMARK VINA RESULT:    -6.936      3.292      7.832
REMARK INTER + INTRA:          -9.938
REMARK INTER:                  -9.244
REMARK INTRA:                  -0.694
REMARK UNBOUND:                -0.773
REMARK  Name = 
REMARK  6 active torsions:
REMARK  status: ('A' for Active; 'I' for Inactive)
REMARK    1  A    between atoms: C_2  and  C_4
REMARK    2  A    between atoms: C_7  and  O_8
REMARK    3  A    between atoms: O_8  and  C_9
REMARK    4  A    between atoms: C_9  and  C_10
REMARK    5  A    between atoms: C_14  and  N_15
REMARK    6  A    between atoms: C_18  and  O_19
REMARK                            x       y       z     vdW  Elec       q    Type
REMARK                         _______ _______ _______ _____ _____    ______ ____
ROOT
ATOM      1  C   UNL     1      45.051   4.445  12.513  0.00  0.00    +0.000 A 
ATOM      2  C   UNL     1      44.073   3.681  13.130  0.00  0.00    +0.000 A 
ATOM      3  N   UNL     1      43.347   2.736  12.499  0.00  0.00    +0.000 NA
ATOM      4  C   UNL     1      43.616   2.552  11.182  0.00  0.00    +0.000 A 
ATOM      5  C   UNL     1      44.567   3.252  10.432  0.00  0.00    +0.000 A 
ATOM      6  C   UNL     1      45.295   4.210  11.151  0.00  0.00    +0.000 A 
ENDROOT
BRANCH   5   7
ATOM      7  N   UNL     1      44.802   3.026   9.085  0.00  0.00    +0.000 N 
ATOM      8  C   UNL     1      45.080   4.132   8.170  0.00  0.00    +0.000 C 
ATOM      9  C   UNL     1      46.516   4.059   7.667  0.00  0.00    +0.000 C 
ATOM     10  C   UNL     1      46.853   2.680   7.104  0.00  0.00    +0.000 C 
ATOM     11  C   UNL     1      46.500   1.562   8.083  0.00  0.00    +0.000 C 
ATOM     12  C   UNL     1      45.064   1.671   8.592  0.00  0.00    +0.000 C 
BRANCH  10  13
ATOM     13  O   UNL     1      46.201   2.473   5.852  0.00  0.00    +0.000 OA
ATOM     14  H   UNL     1      45.486   3.123   5.754  0.00  0.00    +0.000 HD
ENDBRANCH  10  13
ENDBRANCH   5   7
BRANCH   1  15
ATOM     15  C   UNL     1      45.786   5.516  13.271  0.00  0.00    +0.000 C 
BRANCH  15  16
ATOM     16  O   UNL     1      47.190   5.230  13.352  0.00  0.00    +0.000 OA
BRANCH  16  20
ATOM     17  C   UNL     1      48.364   4.550  17.254  0.00  0.00    +0.000 A 
ATOM     18  C   UNL     1      47.561   3.608  16.609  0.00  0.00    +0.000 A 
ATOM     19  C   UNL     1      47.157   3.838  15.289  0.00  0.00    +0.000 A 
ATOM     20  C   UNL     1      47.578   5.007  14.661  0.00  0.00    +0.000 A 
ATOM     21  N   UNL     1      48.345   5.932  15.272  0.00  0.00    +0.000 NA
ATOM     22  C   UNL     1      48.712   5.694  16.551  0.00  0.00    +0.000 A 
BRANCH  17  24
ATOM     23  N   UNL     1      48.402   3.332  19.351  0.00  0.00    +0.000 N 
ATOM     24  C   UNL     1      48.848   4.408  18.642  0.00  0.00    +0.000 C 
ATOM     25  O   UNL     1      49.655   5.198  19.122  0.00  0.00    +0.000 OA
ATOM     26  H   UNL     1      48.822   3.189  20.261  0.00  0.00    +0.000 HD
ATOM     27  H   UNL     1      47.952   2.540  18.915  0.00  0.00    +0.000 HD
ENDBRANCH  17  24
ENDBRANCH  16  20
ENDBRANCH  15  16
ENDBRANCH   1  15
TORSDOF 6
ENDMDL
MODEL 4
REMARK VINA RESULT:    -6.900      4.610      7.980
REMARK INTER + INTRA:          -9.891
REMARK INTER:                  -9.125
REMARK INTRA:                  -0.766
REMARK UNBOUND:                -0.773
REMARK  Name = 
REMARK  6 active torsions:
REMARK  status: ('A' for Active; 'I' for Inactive)
REMARK    1  A    between atoms: C_2  and  C_4
REMARK    2  A    between atoms: C_7  and  O_8
REMARK    3  A    between atoms: O_8  and  C_9
REMARK    4  A    between atoms: C_9  and  C_10
REMARK    5  A    between atoms: C_14  and  N_15
REMARK    6  A    between atoms: C_18  and  O_19
REMARK                            x       y       z     vdW  Elec       q    Type
REMARK                         _______ _______ _______ _____ _____    ______ ____
ROOT
ATOM      1  C   UNL     1      48.205   6.482  14.483  0.00  0.00    +0.000 A 
ATOM      2  C   UNL     1      48.626   7.250  13.409  0.00  0.00    +0.000 A 
ATOM      3  N   UNL     1      48.045   7.222  12.192  0.00  0.00    +0.000 NA
ATOM      4  C   UNL     1      46.991   6.380  12.048  0.00  0.00    +0.000 A 
ATOM      5  C   UNL     1      46.465   5.546  13.040  0.00  0.00    +0.000 A 
ATOM      6  C   UNL     1      47.105   5.633  14.283  0.00  0.00    +0.000 A 
ENDROOT
BRANCH   5   7
ATOM      7  N   UNL     1      45.385   4.701  12.840  0.00  0.00    +0.000 N 
ATOM      8  C   UNL     1      44.015   5.213  12.839  0.00  0.00    +0.000 C 
ATOM      9  C   UNL     1      43.405   5.102  11.447  0.00  0.00    +0.000 C 
ATOM     10  C   UNL     1      43.548   3.693  10.874  0.00  0.00    +0.000 C 
ATOM     11  C   UNL     1      44.989   3.193  10.942  0.00  0.00    +0.000 C 
ATOM     12  C   UNL     1      45.587   3.338  12.341  0.00  0.00    +0.000 C 
BRANCH  10  13
ATOM     13  O   UNL     1      42.672   2.786  11.541  0.00  0.00    +0.000 OA
ATOM     14  H   UNL     1      42.966   1.876  11.372  0.00  0.00    +0.000 HD
ENDBRANCH  10  13
ENDBRANCH   5   7
BRANCH   1  15
ATOM     15  C   UNL     1      48.933   6.530  15.798  0.00  0.00    +0.000 C 
BRANCH  15  16
ATOM     16  O   UNL     1      48.381   5.597  16.737  0.00  0.00    +0.000 OA
BRANCH  16  20
ATOM     17  C   UNL     1      50.993   2.469  17.416  0.00  0.00    +0.000 A 
ATOM     18  C   UNL     1      49.640   2.194  17.203  0.00  0.00    +0.000 A 
ATOM     19  C   UNL     1      48.753   3.252  16.977  0.00  0.00    +0.000 A 
ATOM     20  C   UNL     1      49.255   4.550  16.972  0.00  0.00    +0.000 A 
ATOM     21  N   UNL     1      50.556   4.833  17.186  0.00  0.00    +0.000 NA
ATOM     22  C   UNL     1      51.393   3.796  17.415  0.00  0.00    +0.000 A 
BRANCH  17  24
ATOM     23  N   UNL     1      51.578   0.218  18.106  0.00  0.00    +0.000 N 
ATOM     24  C   UNL     1      52.015   1.430  17.661  0.00  0.00    +0.000 C 
ATOM     25  O   UNL     1      53.202   1.635  17.430  0.00  0.00    +0.000 OA
ATOM     26  H   UNL     1      52.274  -0.514  18.167  0.00  0.00    +0.000 HD
ATOM     27  H   UNL     1      50.609  -0.063  18.062  0.00  0.00    +0.000 HD
ENDBRANCH  17  24
ENDBRANCH  16  20
ENDBRANCH  15  16
ENDBRANCH   1  15
TORSDOF 6
ENDMDL
MODEL 5
REMARK VINA RESULT:    -6.789      3.265      7.385
REMARK INTER + INTRA:          -9.744
REMARK INTER:                  -9.253
REMARK INTRA:                  -0.491
REMARK UNBOUND:                -0.773
REMARK  Name = 
REMARK  6 active torsions:
REMARK  status: ('A' for Active; 'I' for Inactive)
REMARK    1  A    between atoms: C_2  and  C_4
REMARK    2  A    between atoms: C_7  and  O_8
REMARK    3  A    between atoms: O_8  and  C_9
REMARK    4  A    between atoms: C_9  and  C_10
REMARK    5  A    between atoms: C_14  and  N_15
REMARK    6  A    between atoms: C_18  and  O_19
REMARK                            x       y       z     vdW  Elec       q    Type
REMARK                         _______ _______ _______ _____ _____    ______ ____
ROOT
ATOM      1  C   UNL     1      46.506   8.304  12.843  0.00  0.00    +0.000 A 
ATOM      2  C   UNL     1      46.030   9.453  12.231  0.00  0.00    +0.000 A 
ATOM      3  N   UNL     1      44.955   9.480  11.418  0.00  0.00    +0.000 NA
ATOM      4  C   UNL     1      44.329   8.295  11.207  0.00  0.00    +0.000 A 
ATOM      5  C   UNL     1      44.702   7.062  11.752  0.00  0.00    +0.000 A 
ATOM      6  C   UNL     1      45.819   7.105  12.598  0.00  0.00    +0.000 A 
ENDROOT
BRANCH   5   7
ATOM      7  N   UNL     1      44.029   5.877  11.503  0.00  0.00    +0.000 N 
ATOM      8  C   UNL     1      44.614   4.837  10.658  0.00  0.00    +0.000 C 
ATOM      9  C   UNL     1      44.949   3.603  11.487  0.00  0.00    +0.000 C 
ATOM     10  C   UNL     1      43.757   3.135  12.319  0.00  0.00    +0.000 C 
ATOM     11  C   UNL     1      43.158   4.271  13.146  0.00  0.00    +0.000 C 
ATOM     12  C   UNL     1      42.854   5.506  12.298  0.00  0.00    +0.000 C 
BRANCH  10  13
ATOM     13  O   UNL     1      42.761   2.544  11.486  0.00  0.00    +0.000 OA
ATOM     14  H   UNL     1      43.182   2.199  10.682  0.00  0.00    +0.000 HD
ENDBRANCH  10  13
ENDBRANCH   5   7
BRANCH   1  15
ATOM     15  C   UNL     1      47.741   8.342  13.700  0.00  0.00    +0.000 C 
BRANCH  15  16
ATOM     16  O   UNL     1      48.513   7.141  13.561  0.00  0.00    +0.000 OA
BRANCH  16  20
ATOM     17  C   UNL     1      47.782   4.556  16.699  0.00  0.00    +0.000 A 
ATOM     18  C   UNL     1      48.549   5.701  16.923  0.00  0.00    +0.000 A 
ATOM     19  C   UNL     1      48.802   6.576  15.860  0.00  0.00    +0.000 A 
ATOM     20  C   UNL     1      48.273   6.271  14.609  0.00  0.00    +0.000 A 
ATOM     21  N   UNL     1      47.539   5.164  14.374  0.00  0.00    +0.000 NA
ATOM     22  C   UNL     1      47.319   4.327  15.412  0.00  0.00    +0.000 A 
BRANCH  17  24
ATOM     23  N   UNL     1      48.056   3.720  18.960  0.00  0.00    +0.000 N 
ATOM     24  C   UNL     1      47.453   3.568  17.747  0.00  0.00    +0.000 C 
ATOM     25  O   UNL     1      46.634   2.675  17.549  0.00  0.00    +0.000 OA
ATOM     26  H   UNL     1      47.742   3.102  19.698  0.00  0.00    +0.000 HD
ATOM     27  H   UNL     1      48.525   4.572  19.233  0.00  0.00    +0.000 HD
ENDBRANCH  17  24
ENDBRANCH  16  20
ENDBRANCH  15  16
ENDBRANCH   1  15
TORSDOF 6
ENDMDL
MODEL 6
REMARK VINA RESULT:    -6.598      3.768      6.085
REMARK INTER + INTRA:          -9.492
REMARK INTER:                  -8.727
REMARK INTRA:                  -0.765
REMARK UNBOUND:                -0.773
REMARK  Name = 
REMARK  6 active torsions:
REMARK  status: ('A' for Active; 'I' for Inactive)
REMARK    1  A    between atoms: C_2  and  C_4
REMARK    2  A    between atoms: C_7  and  O_8
REMARK    3  A    between atoms: O_8  and  C_9
REMARK    4  A    between atoms: C_9  and  C_10
REMARK    5  A    between atoms: C_14  and  N_15
REMARK    6  A    between atoms: C_18  and  O_19
REMARK                            x       y       z     vdW  Elec       q    Type
REMARK                         _______ _______ _______ _____ _____    ______ ____
ROOT
ATOM      1  C   UNL     1      48.688   7.397  13.701  0.00  0.00    +0.000 A 
ATOM      2  C   UNL     1      49.942   7.988  13.718  0.00  0.00    +0.000 A 
ATOM      3  N   UNL     1      50.837   7.822  14.712  0.00  0.00    +0.000 NA
ATOM      4  C   UNL     1      50.453   7.025  15.741  0.00  0.00    +0.000 A 
ATOM      5  C   UNL     1      49.221   6.372  15.858  0.00  0.00    +0.000 A 
ATOM      6  C   UNL     1      48.342   6.576  14.786  0.00  0.00    +0.000 A 
ENDROOT
BRANCH   5   7
ATOM      7  N   UNL     1      48.877   5.567  16.933  0.00  0.00    +0.000 N 
ATOM      8  C   UNL     1      47.652   4.769  16.918  0.00  0.00    +0.000 C 
ATOM      9  C   UNL     1      47.985   3.283  16.871  0.00  0.00    +0.000 C 
ATOM     10  C   UNL     1      48.978   2.888  17.963  0.00  0.00    +0.000 C 
ATOM     11  C   UNL     1      50.215   3.783  17.961  0.00  0.00    +0.000 C 
ATOM     12  C   UNL     1      49.855   5.268  17.982  0.00  0.00    +0.000 C 
BRANCH  10  13
ATOM     13  O   UNL     1      48.350   2.905  19.245  0.00  0.00    +0.000 OA
ATOM     14  H   UNL     1      47.631   3.557  19.239  0.00  0.00    +0.000 HD
ENDBRANCH  10  13
ENDBRANCH   5   7
BRANCH   1  15
ATOM     15  C   UNL     1      47.723   7.668  12.580  0.00  0.00    +0.000 C 
BRANCH  15  16
ATOM     16  O   UNL     1      46.362   7.544  13.019  0.00  0.00    +0.000 OA
BRANCH  16  20
ATOM     17  C   UNL     1      44.607   4.162  11.422  0.00  0.00    +0.000 A 
ATOM     18  C   UNL     1      45.176   5.106  10.564  0.00  0.00    +0.000 A 
ATOM     19  C   UNL     1      45.767   6.254  11.102  0.00  0.00    +0.000 A 
ATOM     20  C   UNL     1      45.768   6.414  12.485  0.00  0.00    +0.000 A 
ATOM     21  N   UNL     1      45.214   5.518  13.327  0.00  0.00    +0.000 NA
ATOM     22  C   UNL     1      44.638   4.423  12.783  0.00  0.00    +0.000 A 
BRANCH  17  24
ATOM     23  N   UNL     1      44.569   2.233   9.951  0.00  0.00    +0.000 N 
ATOM     24  C   UNL     1      43.961   2.916  10.962  0.00  0.00    +0.000 C 
ATOM     25  O   UNL     1      42.944   2.488  11.500  0.00  0.00    +0.000 OA
ATOM     26  H   UNL     1      44.175   1.330   9.719  0.00  0.00    +0.000 HD
ATOM     27  H   UNL     1      45.521   2.414   9.666  0.00  0.00    +0.000 HD
ENDBRANCH  17  24
ENDBRANCH  16  20
ENDBRANCH  15  16
ENDBRANCH   1  15
TORSDOF 6
ENDMDL
MODEL 7
REMARK VINA RESULT:    -6.479      2.357      7.276
REMARK INTER + INTRA:          -9.334
REMARK INTER:                  -8.600
REMARK INTRA:                  -0.734
REMARK UNBOUND:                -0.773
REMARK  Name = 
REMARK  6 active torsions:
REMARK  status: ('A' for Active; 'I' for Inactive)
REMARK    1  A    between atoms: C_2  and  C_4
REMARK    2  A    between atoms: C_7  and  O_8
REMARK    3  A    between atoms: O_8  and  C_9
REMARK    4  A    between atoms: C_9  and  C_10
REMARK    5  A    between atoms: C_14  and  N_15
REMARK    6  A    between atoms: C_18  and  O_19
REMARK                            x       y       z     vdW  Elec       q    Type
REMARK                         _______ _______ _______ _____ _____    ______ ____
ROOT
ATOM      1  C   UNL     1      44.993   5.008  12.251  0.00  0.00    +0.000 A 
ATOM      2  C   UNL     1      44.172   4.187  13.008  0.00  0.00    +0.000 A 
ATOM      3  N   UNL     1      43.583   3.071  12.534  0.00  0.00    +0.000 NA
ATOM      4  C   UNL     1      43.829   2.766  11.235  0.00  0.00    +0.000 A 
ATOM      5  C   UNL     1      44.629   3.504  10.356  0.00  0.00    +0.000 A 
ATOM      6  C   UNL     1      45.222   4.644  10.915  0.00  0.00    +0.000 A 
ENDROOT
BRANCH   5   7
ATOM      7  N   UNL     1      44.847   3.148   9.034  0.00  0.00    +0.000 N 
ATOM      8  C   UNL     1      45.218   4.149   8.034  0.00  0.00    +0.000 C 
ATOM      9  C   UNL     1      46.645   3.917   7.552  0.00  0.00    +0.000 C 
ATOM     10  C   UNL     1      46.868   2.473   7.107  0.00  0.00    +0.000 C 
ATOM     11  C   UNL     1      46.421   1.473   8.170  0.00  0.00    +0.000 C 
ATOM     12  C   UNL     1      44.998   1.741   8.656  0.00  0.00    +0.000 C 
BRANCH  10  13
ATOM     13  O   UNL     1      46.203   2.219   5.870  0.00  0.00    +0.000 OA
ATOM     14  H   UNL     1      45.439   1.641   6.032  0.00  0.00    +0.000 HD
ENDBRANCH  10  13
ENDBRANCH   5   7
BRANCH   1  15
ATOM     15  C   UNL     1      45.578   6.264  12.835  0.00  0.00    +0.000 C 
BRANCH  15  16
ATOM     16  O   UNL     1      46.444   6.923  11.900  0.00  0.00    +0.000 OA
BRANCH  16  20
ATOM     17  C   UNL     1      50.059   7.895  13.647  0.00  0.00    +0.000 A 
ATOM     18  C   UNL     1      49.823   8.257  12.319  0.00  0.00    +0.000 A 
ATOM     19  C   UNL     1      48.602   7.925  11.724  0.00  0.00    +0.000 A 
ATOM     20  C   UNL     1      47.657   7.242  12.484  0.00  0.00    +0.000 A 
ATOM     21  N   UNL     1      47.872   6.876  13.764  0.00  0.00    +0.000 NA
ATOM     22  C   UNL     1      49.064   7.196  14.314  0.00  0.00    +0.000 A 
BRANCH  17  24
ATOM     23  N   UNL     1      52.482   7.878  13.756  0.00  0.00    +0.000 N 
ATOM     24  C   UNL     1      51.309   8.196  14.374  0.00  0.00    +0.000 C 
ATOM     25  O   UNL     1      51.295   8.753  15.467  0.00  0.00    +0.000 OA
ATOM     26  H   UNL     1      53.329   8.186  14.216  0.00  0.00    +0.000 HD
ATOM     27  H   UNL     1      52.538   7.662  12.771  0.00  0.00    +0.000 HD
ENDBRANCH  17  24
ENDBRANCH  16  20
ENDBRANCH  15  16
ENDBRANCH   1  15
TORSDOF 6
ENDMDL
MODEL 8
REMARK VINA RESULT:    -6.328      4.201      6.997
REMARK INTER + INTRA:          -9.135
REMARK INTER:                  -8.245
REMARK INTRA:                  -0.890
REMARK UNBOUND:                -0.773
REMARK  Name = 
REMARK  6 active torsions:
REMARK  status: ('A' for Active; 'I' for Inactive)
REMARK    1  A    between atoms: C_2  and  C_4
REMARK    2  A    between atoms: C_7  and  O_8
REMARK    3  A    between atoms: O_8  and  C_9
REMARK    4  A    between atoms: C_9  and  C_10
REMARK    5  A    between atoms: C_14  and  N_15
REMARK    6  A    between atoms: C_18  and  O_19
REMARK                            x       y       z     vdW  Elec       q    Type
REMARK                         _______ _______ _______ _____ _____    ______ ____
ROOT
ATOM      1  C   UNL     1      49.615   7.614  14.437  0.00  0.00    +0.000 A 
ATOM      2  C   UNL     1      50.937   8.033  14.439  0.00  0.00    +0.000 A 
ATOM      3  N   UNL     1      51.837   7.672  15.375  0.00  0.00    +0.000 NA
ATOM      4  C   UNL     1      51.388   6.853  16.359  0.00  0.00    +0.000 A 
ATOM      5  C   UNL     1      50.085   6.360  16.485  0.00  0.00    +0.000 A 
ATOM      6  C   UNL     1      49.203   6.761  15.473  0.00  0.00    +0.000 A 
ENDROOT
BRANCH   5   7
ATOM      7  N   UNL     1      49.676   5.524  17.512  0.00  0.00    +0.000 N 
ATOM      8  C   UNL     1      48.347   5.656  18.109  0.00  0.00    +0.000 C 
ATOM      9  C   UNL     1      47.493   4.437  17.782  0.00  0.00    +0.000 C 
ATOM     10  C   UNL     1      48.209   3.132  18.125  0.00  0.00    +0.000 C 
ATOM     11  C   UNL     1      49.607   3.069  17.515  0.00  0.00    +0.000 C 
ATOM     12  C   UNL     1      50.435   4.313  17.835  0.00  0.00    +0.000 C 
BRANCH  10  13
ATOM     13  O   UNL     1      48.272   2.948  19.539  0.00  0.00    +0.000 OA
ATOM     14  H   UNL     1      47.898   3.730  19.979  0.00  0.00    +0.000 HD
ENDBRANCH  10  13
ENDBRANCH   5   7
BRANCH   1  15
ATOM     15  C   UNL     1      48.655   8.096  13.385  0.00  0.00    +0.000 C 
BRANCH  15  16
ATOM     16  O   UNL     1      48.399   7.082  12.404  0.00  0.00    +0.000 OA
BRANCH  16  20
ATOM     17  C   UNL     1      44.469   5.822  12.585  0.00  0.00    +0.000 A 
ATOM     18  C   UNL     1      45.468   5.026  13.150  0.00  0.00    +0.000 A 
ATOM     19  C   UNL     1      46.800   5.448  13.086  0.00  0.00    +0.000 A 
ATOM     20  C   UNL     1      47.084   6.657  12.458  0.00  0.00    +0.000 A 
ATOM     21  N   UNL     1      46.133   7.433  11.898  0.00  0.00    +0.000 NA
ATOM     22  C   UNL     1      44.854   6.999  11.961  0.00  0.00    +0.000 A 
BRANCH  17  24
ATOM     23  N   UNL     1      42.219   6.155  11.744  0.00  0.00    +0.000 N 
ATOM     24  C   UNL     1      43.033   5.474  12.598  0.00  0.00    +0.000 C 
ATOM     25  O   UNL     1      42.600   4.576  13.313  0.00  0.00    +0.000 OA
ATOM     26  H   UNL     1      41.260   5.834  11.686  0.00  0.00    +0.000 HD
ATOM     27  H   UNL     1      42.573   6.706  10.974  0.00  0.00    +0.000 HD
ENDBRANCH  17  24
ENDBRANCH  16  20
ENDBRANCH  15  16
ENDBRANCH   1  15
TORSDOF 6
ENDMDL
MODEL 9
REMARK VINA RESULT:    -6.220      3.944      8.366
REMARK INTER + INTRA:          -8.993
REMARK INTER:                  -8.184
REMARK INTRA:                  -0.808
REMARK UNBOUND:                -0.773
REMARK  Name = 
REMARK  6 active torsions:
REMARK  status: ('A' for Active; 'I' for Inactive)
REMARK    1  A    between atoms: C_2  and  C_4
REMARK    2  A    between atoms: C_7  and  O_8
REMARK    3  A    between atoms: O_8  and  C_9
REMARK    4  A    between atoms: C_9  and  C_10
REMARK    5  A    between atoms: C_14  and  N_15
REMARK    6  A    between atoms: C_18  and  O_19
REMARK                            x       y       z     vdW  Elec       q    Type
REMARK                         _______ _______ _______ _____ _____    ______ ____
ROOT
ATOM      1  C   UNL     1      47.629   7.392  13.578  0.00  0.00    +0.000 A 
ATOM      2  C   UNL     1      47.020   8.563  13.156  0.00  0.00    +0.000 A 
ATOM      3  N   UNL     1      45.766   8.623  12.666  0.00  0.00    +0.000 NA
ATOM      4  C   UNL     1      45.091   7.448  12.594  0.00  0.00    +0.000 A 
ATOM      5  C   UNL     1      45.581   6.195  12.977  0.00  0.00    +0.000 A 
ATOM      6  C   UNL     1      46.886   6.205  13.490  0.00  0.00    +0.000 A 
ENDROOT
BRANCH   5   7
ATOM      7  N   UNL     1      44.850   5.022  12.881  0.00  0.00    +0.000 N 
ATOM      8  C   UNL     1      43.388   5.043  12.855  0.00  0.00    +0.000 C 
ATOM      9  C   UNL     1      42.873   4.596  11.493  0.00  0.00    +0.000 C 
ATOM     10  C   UNL     1      43.489   3.267  11.059  0.00  0.00    +0.000 C 
ATOM     11  C   UNL     1      45.013   3.287  11.150  0.00  0.00    +0.000 C 
ATOM     12  C   UNL     1      45.505   3.763  12.516  0.00  0.00    +0.000 C 
BRANCH  10  13
ATOM     13  O   UNL     1      42.956   2.190  11.829  0.00  0.00    +0.000 OA
ATOM     14  H   UNL     1      42.714   1.462  11.233  0.00  0.00    +0.000 HD
ENDBRANCH  10  13
ENDBRANCH   5   7
BRANCH   1  15
ATOM     15  C   UNL     1      49.051   7.395  14.070  0.00  0.00    +0.000 C 
BRANCH  15  16
ATOM     16  O   UNL     1      49.157   8.013  15.360  0.00  0.00    +0.000 OA
BRANCH  16  20
ATOM     17  C   UNL     1      48.855   5.204  18.375  0.00  0.00    +0.000 A 
ATOM     18  C   UNL     1      48.457   6.519  18.624  0.00  0.00    +0.000 A 
ATOM     19  C   UNL     1      48.562   7.474  17.606  0.00  0.00    +0.000 A 
ATOM     20  C   UNL     1      49.063   7.073  16.371  0.00  0.00    +0.000 A 
ATOM     21  N   UNL     1      49.462   5.810  16.116  0.00  0.00    +0.000 NA
ATOM     22  C   UNL     1      49.362   4.909  17.119  0.00  0.00    +0.000 A 
BRANCH  17  24
ATOM     23  N   UNL     1      49.193   4.410  20.642  0.00  0.00    +0.000 N 
ATOM     24  C   UNL     1      48.784   4.119  19.374  0.00  0.00    +0.000 C 
ATOM     25  O   UNL     1      48.332   3.015  19.088  0.00  0.00    +0.000 OA
ATOM     26  H   UNL     1      49.040   3.692  21.338  0.00  0.00    +0.000 HD
ATOM     27  H   UNL     1      49.324   5.357  20.968  0.00  0.00    +0.000 HD
ENDBRANCH  17  24
ENDBRANCH  16  20
ENDBRANCH  15  16
ENDBRANCH   1  15
TORSDOF 6
ENDMDL
