MODEL 1
REMARK VINA RESULT:    -8.061      0.000      0.000
REMARK INTER + INTRA:         -10.583
REMARK INTER:                  -9.947
REMARK INTRA:                  -0.637
REMARK UNBOUND:                -0.637
REMARK  Name = 
REMARK  4 active torsions:
REMARK  status: ('A' for Active; 'I' for Inactive)
REMARK    1  A    between atoms: C_2  and  C_4
REMARK    2  A    between atoms: N_8  and  C_9
REMARK    3  A    between atoms: C_9  and  C_10
REMARK    4  A    between atoms: C_10  and  C_13
REMARK                            x       y       z     vdW  Elec       q    Type
REMARK                         _______ _______ _______ _____ _____    ______ ____
ROOT
ATOM      1  C   UNL     1      46.379   2.757   7.302  0.00  0.00    +0.000 A 
ATOM      2  C   UNL     1      46.092   1.637   8.076  0.00  0.00    +0.000 A 
ATOM      3  C   UNL     1      45.180   1.755   9.127  0.00  0.00    +0.000 A 
ATOM      4  C   UNL     1      44.601   2.991   9.409  0.00  0.00    +0.000 A 
ATOM      5  N   UNL     1      43.747   3.073  10.510  0.00  0.00    +0.000 N 
ATOM      6  N   UNL     1      44.876   4.084   8.672  0.00  0.00    +0.000 NA
ATOM      7  C   UNL     1      45.747   3.947   7.637  0.00  0.00    +0.000 A 
ATOM      8  H   UNL     1      42.937   2.471  10.383  0.00  0.00    +0.000 HD
ENDROOT
BRANCH   1  10
ATOM      9  N   UNL     1      48.662   2.529   6.487  0.00  0.00    +0.000 N 
ATOM     10  C   UNL     1      47.346   2.749   6.185  0.00  0.00    +0.000 C 
ATOM     11  O   UNL     1      46.986   2.909   5.027  0.00  0.00    +0.000 OA
ATOM     12  H   UNL     1      49.298   2.452   5.703  0.00  0.00    +0.000 HD
ATOM     13  H   UNL     1      48.974   2.177   7.380  0.00  0.00    +0.000 HD
ENDBRANCH   1  10
BRANCH   5  14
ATOM     14  C   UNL     1      43.390   4.432  10.964  0.00  0.00    +0.000 C 
BRANCH  14  15
ATOM     15  C   UNL     1      43.777   4.663  12.447  0.00  0.00    +0.000 C 
ATOM     16  F   UNL     1      42.835   5.498  12.993  0.00  0.00    +0.000 F 
ATOM     17  F   UNL     1      43.629   3.485  13.132  0.00  0.00    +0.000 F 
BRANCH  15  18
ATOM     18  C   UNL     1      45.179   5.217  12.598  0.00  0.00    +0.000 A 
ATOM     19  C   UNL     1      45.692   6.141  11.674  0.00  0.00    +0.000 A 
ATOM     20  C   UNL     1      46.977   6.663  11.837  0.00  0.00    +0.000 A 
ATOM     21  C   UNL     1      47.766   6.265  12.915  0.00  0.00    +0.000 A 
ATOM     22  C   UNL     1      47.269   5.342  13.836  0.00  0.00    +0.000 A 
ATOM     23  C   UNL     1      45.985   4.819  13.677  0.00  0.00    +0.000 A 
ENDBRANCH  15  18
ENDBRANCH  14  15
ENDBRANCH   5  14
TORSDOF 4
ENDMDL
MODEL 2
REMARK VINA RESULT:    -7.415      3.195      6.292
REMARK INTER + INTRA:          -9.785
REMARK INTER:                  -9.348
REMARK INTRA:                  -0.438
REMARK UNBOUND:                -0.637
REMARK  Name = 
REMARK  4 active torsions:
REMARK  status: ('A' for Active; 'I' for Inactive)
REMARK    1  A    between atoms: C_2  and  C_4
REMARK    2  A    between atoms: N_8  and  C_9
REMARK    3  A    between atoms: C_9  and  C_10
REMARK    4  A    between atoms: C_10  and  C_13
REMARK                            x       y       z     vdW  Elec       q    Type
REMARK                         _______ _______ _______ _____ _____    ______ ____
ROOT
ATOM      1  C   UNL     1      46.345   7.393  12.301  0.00  0.00    +0.000 A 
ATOM      2  C   UNL     1      45.091   7.136  12.846  0.00  0.00    +0.000 A 
ATOM      3  C   UNL     1      44.281   6.164  12.256  0.00  0.00    +0.000 A 
ATOM      4  C   UNL     1      44.718   5.495  11.115  0.00  0.00    +0.000 A 
ATOM      5  N   UNL     1      43.846   4.580  10.522  0.00  0.00    +0.000 N 
ATOM      6  N   UNL     1      45.926   5.739  10.572  0.00  0.00    +0.000 NA
ATOM      7  C   UNL     1      46.713   6.671  11.173  0.00  0.00    +0.000 A 
ATOM      8  H   UNL     1      43.636   3.817  11.162  0.00  0.00    +0.000 HD
ENDROOT
BRANCH   1  10
ATOM      9  N   UNL     1      47.032   8.896  14.089  0.00  0.00    +0.000 N 
ATOM     10  C   UNL     1      47.269   8.417  12.830  0.00  0.00    +0.000 C 
ATOM     11  O   UNL     1      48.228   8.809  12.179  0.00  0.00    +0.000 OA
ATOM     12  H   UNL     1      47.718   9.541  14.463  0.00  0.00    +0.000 HD
ATOM     13  H   UNL     1      46.400   8.454  14.740  0.00  0.00    +0.000 HD
ENDBRANCH   1  10
BRANCH   5  14
ATOM     14  C   UNL     1      44.204   4.115   9.167  0.00  0.00    +0.000 C 
BRANCH  14  15
ATOM     15  C   UNL     1      44.859   2.711   9.196  0.00  0.00    +0.000 C 
ATOM     16  F   UNL     1      45.445   2.555  10.426  0.00  0.00    +0.000 F 
ATOM     17  F   UNL     1      43.871   1.761   9.164  0.00  0.00    +0.000 F 
BRANCH  15  18
ATOM     18  C   UNL     1      45.851   2.514   8.068  0.00  0.00    +0.000 A 
ATOM     19  C   UNL     1      46.566   1.313   7.938  0.00  0.00    +0.000 A 
ATOM     20  C   UNL     1      47.460   1.135   6.881  0.00  0.00    +0.000 A 
ATOM     21  C   UNL     1      47.656   2.150   5.947  0.00  0.00    +0.000 A 
ATOM     22  C   UNL     1      46.955   3.351   6.069  0.00  0.00    +0.000 A 
ATOM     23  C   UNL     1      46.061   3.533   7.124  0.00  0.00    +0.000 A 
ENDBRANCH  15  18
ENDBRANCH  14  15
ENDBRANCH   5  14
TORSDOF 4
ENDMDL
MODEL 3
REMARK VINA RESULT:    -7.306      3.686      6.786
REMARK INTER + INTRA:          -9.651
REMARK INTER:                  -9.224
REMARK INTRA:                  -0.426
REMARK UNBOUND:                -0.637
REMARK  Name = 
REMARK  4 active torsions:
REMARK  status: ('A' for Active; 'I' for Inactive)
REMARK    1  A    between atoms: C_2  and  C_4
REMARK    2  A    between atoms: N_8  and  C_9
REMARK    3  A    between atoms: C_9  and  C_10
REMARK    4  A    between atoms: C_10  and  C_13
REMARK                            x       y       z     vdW  Elec       q    Type
REMARK                         _______ _______ _______ _____ _____    ______ ____
ROOT
ATOM      1  C   UNL     1      46.989   4.418  14.690  0.00  0.00    +0.000 A 
ATOM      2  C   UNL     1      46.653   5.692  14.246  0.00  0.00    +0.000 A 
ATOM      3  C   UNL     1      45.935   5.828  13.056  0.00  0.00    +0.000 A 
ATOM      4  C   UNL     1      45.599   4.698  12.314  0.00  0.00    +0.000 A 
ATOM      5  N   UNL     1      44.940   4.889  11.098  0.00  0.00    +0.000 N 
ATOM      6  N   UNL     1      45.925   3.459  12.728  0.00  0.00    +0.000 NA
ATOM      7  C   UNL     1      46.603   3.342  13.902  0.00  0.00    +0.000 A 
ATOM      8  H   UNL     1      44.038   5.336  11.245  0.00  0.00    +0.000 HD
ENDROOT
BRANCH   1  10
ATOM      9  N   UNL     1      47.338   3.161  16.746  0.00  0.00    +0.000 N 
ATOM     10  C   UNL     1      47.768   4.163  15.920  0.00  0.00    +0.000 C 
ATOM     11  O   UNL     1      48.776   4.804  16.182  0.00  0.00    +0.000 OA
ATOM     12  H   UNL     1      47.926   2.951  17.543  0.00  0.00    +0.000 HD
ATOM     13  H   UNL     1      46.657   2.469  16.471  0.00  0.00    +0.000 HD
ENDBRANCH   1  10
BRANCH   5  14
ATOM     14  C   UNL     1      44.866   3.719  10.201  0.00  0.00    +0.000 C 
BRANCH  14  15
ATOM     15  C   UNL     1      45.122   4.110   8.723  0.00  0.00    +0.000 C 
ATOM     16  F   UNL     1      43.900   4.319   8.135  0.00  0.00    +0.000 F 
ATOM     17  F   UNL     1      45.732   5.337   8.689  0.00  0.00    +0.000 F 
BRANCH  15  18
ATOM     18  C   UNL     1      45.936   3.068   7.983  0.00  0.00    +0.000 A 
ATOM     19  C   UNL     1      45.972   1.735   8.423  0.00  0.00    +0.000 A 
ATOM     20  C   UNL     1      46.706   0.779   7.720  0.00  0.00    +0.000 A 
ATOM     21  C   UNL     1      47.417   1.140   6.577  0.00  0.00    +0.000 A 
ATOM     22  C   UNL     1      47.395   2.463   6.133  0.00  0.00    +0.000 A 
ATOM     23  C   UNL     1      46.661   3.422   6.834  0.00  0.00    +0.000 A 
ENDBRANCH  15  18
ENDBRANCH  14  15
ENDBRANCH   5  14
TORSDOF 4
ENDMDL
MODEL 4
REMARK VINA RESULT:    -7.046      3.798      6.818
REMARK INTER + INTRA:          -9.330
REMARK INTER:                  -8.963
REMARK INTRA:                  -0.367
REMARK UNBOUND:                -0.637
REMARK  Name = 
REMARK  4 active torsions:
REMARK  status: ('A' for Active; 'I' for Inactive)
REMARK    1  A    between atoms: C_2  and  C_4
REMARK    2  A    between atoms: N_8  and  C_9
REMARK    3  A    between atoms: C_9  and  C_10
REMARK    4  A    between atoms: C_10  and  C_13
REMARK                            x       y       z     vdW  Elec       q    Type
REMARK                         _______ _______ _______ _____ _____    ______ ____
ROOT
ATOM      1  C   UNL     1      47.835   5.766  15.076  0.00  0.00    +0.000 A 
ATOM      2  C   UNL     1      47.682   6.680  14.039  0.00  0.00    +0.000 A 
ATOM      3  C   UNL     1      46.852   6.355  12.965  0.00  0.00    +0.000 A 
ATOM      4  C   UNL     1      46.222   5.112  12.925  0.00  0.00    +0.000 A 
ATOM      5  N   UNL     1      45.456   4.807  11.799  0.00  0.00    +0.000 N 
ATOM      6  N   UNL     1      46.367   4.215  13.918  0.00  0.00    +0.000 NA
ATOM      7  C   UNL     1      47.160   4.558  14.970  0.00  0.00    +0.000 A 
ATOM      8  H   UNL     1      44.677   5.455  11.707  0.00  0.00    +0.000 HD
ENDROOT
BRANCH   1  10
ATOM      9  N   UNL     1      48.118   6.421  17.404  0.00  0.00    +0.000 N 
ATOM     10  C   UNL     1      48.709   5.998  16.245  0.00  0.00    +0.000 C 
ATOM     11  O   UNL     1      49.915   5.798  16.191  0.00  0.00    +0.000 OA
ATOM     12  H   UNL     1      48.721   6.502  18.214  0.00  0.00    +0.000 HD
ATOM     13  H   UNL     1      47.122   6.387  17.563  0.00  0.00    +0.000 HD
ENDBRANCH   1  10
BRANCH   5  14
ATOM     14  C   UNL     1      45.052   3.395  11.644  0.00  0.00    +0.000 C 
BRANCH  14  15
ATOM     15  C   UNL     1      44.291   3.158  10.314  0.00  0.00    +0.000 C 
ATOM     16  F   UNL     1      43.464   2.079  10.499  0.00  0.00    +0.000 F 
ATOM     17  F   UNL     1      43.440   4.210  10.097  0.00  0.00    +0.000 F 
BRANCH  15  18
ATOM     18  C   UNL     1      45.229   2.956   9.141  0.00  0.00    +0.000 A 
ATOM     19  C   UNL     1      45.692   1.675   8.801  0.00  0.00    +0.000 A 
ATOM     20  C   UNL     1      46.537   1.499   7.704  0.00  0.00    +0.000 A 
ATOM     21  C   UNL     1      46.935   2.594   6.940  0.00  0.00    +0.000 A 
ATOM     22  C   UNL     1      46.487   3.873   7.273  0.00  0.00    +0.000 A 
ATOM     23  C   UNL     1      45.642   4.054   8.368  0.00  0.00    +0.000 A 
ENDBRANCH  15  18
ENDBRANCH  14  15
ENDBRANCH   5  14
TORSDOF 4
ENDMDL
MODEL 5
REMARK VINA RESULT:    -6.723      3.302      5.799
REMARK INTER + INTRA:          -8.932
REMARK INTER:                  -8.231
REMARK INTRA:                  -0.701
REMARK UNBOUND:                -0.637
REMARK  Name = 
REMARK  4 active torsions:
REMARK  status: ('A' for Active; 'I' for Inactive)
REMARK    1  A    between atoms: C_2  and  C_4
REMARK    2  A    between atoms: N_8  and  C_9
REMARK    3  A    between atoms: C_9  and  C_10
REMARK    4  A    between atoms: C_10  and  C_13
REMARK                            x       y       z     vdW  Elec       q    Type
REMARK                         _______ _______ _______ _____ _____    ______ ____
ROOT
ATOM      1  C   UNL     1      47.570   8.129  12.095  0.00  0.00    +0.000 A 
ATOM      2  C   UNL     1      46.299   8.643  12.330  0.00  0.00    +0.000 A 
ATOM      3  C   UNL     1      45.249   7.760  12.589  0.00  0.00    +0.000 A 
ATOM      4  C   UNL     1      45.476   6.385  12.572  0.00  0.00    +0.000 A 
ATOM      5  N   UNL     1      44.381   5.543  12.771  0.00  0.00    +0.000 N 
ATOM      6  N   UNL     1      46.699   5.875  12.339  0.00  0.00    +0.000 NA
ATOM      7  C   UNL     1      47.717   6.749  12.112  0.00  0.00    +0.000 A 
ATOM      8  H   UNL     1      43.976   5.690  13.692  0.00  0.00    +0.000 HD
ENDROOT
BRANCH   1  10
ATOM      9  N   UNL     1      49.983   8.409  11.928  0.00  0.00    +0.000 N 
ATOM     10  C   UNL     1      48.744   8.971  11.785  0.00  0.00    +0.000 C 
ATOM     11  O   UNL     1      48.619  10.122  11.390  0.00  0.00    +0.000 OA
ATOM     12  H   UNL     1      50.771   8.976  11.640  0.00  0.00    +0.000 HD
ATOM     13  H   UNL     1      50.133   7.416  12.034  0.00  0.00    +0.000 HD
ENDBRANCH   1  10
BRANCH   5  14
ATOM     14  C   UNL     1      44.586   4.115  12.453  0.00  0.00    +0.000 C 
BRANCH  14  15
ATOM     15  C   UNL     1      43.759   3.677  11.217  0.00  0.00    +0.000 C 
ATOM     16  F   UNL     1      43.072   2.541  11.563  0.00  0.00    +0.000 F 
ATOM     17  F   UNL     1      42.782   4.610  10.985  0.00  0.00    +0.000 F 
BRANCH  15  18
ATOM     18  C   UNL     1      44.623   3.465   9.991  0.00  0.00    +0.000 A 
ATOM     19  C   UNL     1      44.903   2.172   9.521  0.00  0.00    +0.000 A 
ATOM     20  C   UNL     1      45.681   1.990   8.377  0.00  0.00    +0.000 A 
ATOM     21  C   UNL     1      46.193   3.090   7.692  0.00  0.00    +0.000 A 
ATOM     22  C   UNL     1      45.927   4.380   8.153  0.00  0.00    +0.000 A 
ATOM     23  C   UNL     1      45.149   4.567   9.297  0.00  0.00    +0.000 A 
ENDBRANCH  15  18
ENDBRANCH  14  15
ENDBRANCH   5  14
TORSDOF 4
ENDMDL
MODEL 6
REMARK VINA RESULT:    -6.608      4.472      6.227
REMARK INTER + INTRA:          -8.790
REMARK INTER:                  -8.410
REMARK INTRA:                  -0.380
REMARK UNBOUND:                -0.637
REMARK  Name = 
REMARK  4 active torsions:
REMARK  status: ('A' for Active; 'I' for Inactive)
REMARK    1  A    between atoms: C_2  and  C_4
REMARK    2  A    between atoms: N_8  and  C_9
REMARK    3  A    between atoms: C_9  and  C_10
REMARK    4  A    between atoms: C_10  and  C_13
REMARK                            x       y       z     vdW  Elec       q    Type
REMARK                         _______ _______ _______ _____ _____    ______ ____
ROOT
ATOM      1  C   UNL     1      44.990   4.312  11.573  0.00  0.00    +0.000 A 
ATOM      2  C   UNL     1      45.280   5.645  11.840  0.00  0.00    +0.000 A 
ATOM      3  C   UNL     1      46.049   5.961  12.962  0.00  0.00    +0.000 A 
ATOM      4  C   UNL     1      46.481   4.948  13.816  0.00  0.00    +0.000 A 
ATOM      5  N   UNL     1      47.190   5.319  14.960  0.00  0.00    +0.000 N 
ATOM      6  N   UNL     1      46.202   3.653  13.573  0.00  0.00    +0.000 NA
ATOM      7  C   UNL     1      45.472   3.360  12.463  0.00  0.00    +0.000 A 
ATOM      8  H   UNL     1      48.059   5.785  14.709  0.00  0.00    +0.000 HD
ENDROOT
BRANCH   1  10
ATOM      9  N   UNL     1      44.178   4.644   9.303  0.00  0.00    +0.000 N 
ATOM     10  C   UNL     1      44.165   3.870  10.430  0.00  0.00    +0.000 C 
ATOM     11  O   UNL     1      43.511   2.837  10.476  0.00  0.00    +0.000 OA
ATOM     12  H   UNL     1      43.666   4.287   8.505  0.00  0.00    +0.000 HD
ATOM     13  H   UNL     1      44.859   5.370   9.136  0.00  0.00    +0.000 HD
ENDBRANCH   1  10
BRANCH   5  14
ATOM     14  C   UNL     1      47.372   4.273  15.986  0.00  0.00    +0.000 C 
BRANCH  14  15
ATOM     15  C   UNL     1      48.216   4.783  17.183  0.00  0.00    +0.000 C 
ATOM     16  F   UNL     1      48.467   6.115  16.971  0.00  0.00    +0.000 F 
ATOM     17  F   UNL     1      47.443   4.754  18.314  0.00  0.00    +0.000 F 
BRANCH  15  18
ATOM     18  C   UNL     1      49.493   3.989  17.367  0.00  0.00    +0.000 A 
ATOM     19  C   UNL     1      49.532   2.612  17.092  0.00  0.00    +0.000 A 
ATOM     20  C   UNL     1      50.721   1.896  17.242  0.00  0.00    +0.000 A 
ATOM     21  C   UNL     1      51.879   2.539  17.674  0.00  0.00    +0.000 A 
ATOM     22  C   UNL     1      51.851   3.905  17.957  0.00  0.00    +0.000 A 
ATOM     23  C   UNL     1      50.665   4.625  17.807  0.00  0.00    +0.000 A 
ENDBRANCH  15  18
ENDBRANCH  14  15
ENDBRANCH   5  14
TORSDOF 4
ENDMDL
MODEL 7
REMARK VINA RESULT:    -6.339      4.881      7.745
REMARK INTER + INTRA:          -8.458
REMARK INTER:                  -8.073
REMARK INTRA:                  -0.385
REMARK UNBOUND:                -0.637
REMARK  Name = 
REMARK  4 active torsions:
REMARK  status: ('A' for Active; 'I' for Inactive)
REMARK    1  A    between atoms: C_2  and  C_4
REMARK    2  A    between atoms: N_8  and  C_9
REMARK    3  A    between atoms: C_9  and  C_10
REMARK    4  A    between atoms: C_10  and  C_13
REMARK                            x       y       z     vdW  Elec       q    Type
REMARK                         _______ _______ _______ _____ _____    ______ ____
ROOT
ATOM      1  C   UNL     1      48.411   4.557  17.573  0.00  0.00    +0.000 A 
ATOM      2  C   UNL     1      48.824   5.640  16.804  0.00  0.00    +0.000 A 
ATOM      3  C   UNL     1      48.211   5.869  15.571  0.00  0.00    +0.000 A 
ATOM      4  C   UNL     1      47.226   4.997  15.111  0.00  0.00    +0.000 A 
ATOM      5  N   UNL     1      46.690   5.230  13.844  0.00  0.00    +0.000 N 
ATOM      6  N   UNL     1      46.822   3.941  15.842  0.00  0.00    +0.000 NA
ATOM      7  C   UNL     1      47.412   3.745  17.052  0.00  0.00    +0.000 A 
ATOM      8  H   UNL     1      46.221   6.133  13.812  0.00  0.00    +0.000 HD
ENDROOT
BRANCH   1  10
ATOM      9  N   UNL     1      48.450   3.174  19.576  0.00  0.00    +0.000 N 
ATOM     10  C   UNL     1      49.010   4.208  18.878  0.00  0.00    +0.000 C 
ATOM     11  O   UNL     1      49.987   4.803  19.312  0.00  0.00    +0.000 OA
ATOM     12  H   UNL     1      48.920   2.901  20.431  0.00  0.00    +0.000 HD
ATOM     13  H   UNL     1      47.798   2.519  19.170  0.00  0.00    +0.000 HD
ENDBRANCH   1  10
BRANCH   5  14
ATOM     14  C   UNL     1      45.882   4.139  13.263  0.00  0.00    +0.000 C 
BRANCH  14  15
ATOM     15  C   UNL     1      44.763   4.683  12.337  0.00  0.00    +0.000 C 
ATOM     16  F   UNL     1      43.561   4.289  12.868  0.00  0.00    +0.000 F 
ATOM     17  F   UNL     1      44.744   6.051  12.422  0.00  0.00    +0.000 F 
BRANCH  15  18
ATOM     18  C   UNL     1      44.927   4.222  10.903  0.00  0.00    +0.000 A 
ATOM     19  C   UNL     1      44.500   2.946  10.503  0.00  0.00    +0.000 A 
ATOM     20  C   UNL     1      44.634   2.541   9.174  0.00  0.00    +0.000 A 
ATOM     21  C   UNL     1      45.200   3.397   8.232  0.00  0.00    +0.000 A 
ATOM     22  C   UNL     1      45.636   4.665   8.619  0.00  0.00    +0.000 A 
ATOM     23  C   UNL     1      45.503   5.074   9.947  0.00  0.00    +0.000 A 
ENDBRANCH  15  18
ENDBRANCH  14  15
ENDBRANCH   5  14
TORSDOF 4
ENDMDL
MODEL 8
REMARK VINA RESULT:    -6.303      4.468      6.466
REMARK INTER + INTRA:          -8.414
REMARK INTER:                  -7.898
REMARK INTRA:                  -0.516
REMARK UNBOUND:                -0.637
REMARK  Name = 
REMARK  4 active torsions:
REMARK  status: ('A' for Active; 'I' for Inactive)
REMARK    1  A    between atoms: C_2  and  C_4
REMARK    2  A    between atoms: N_8  and  C_9
REMARK    3  A    between atoms: C_9  and  C_10
REMARK    4  A    between atoms: C_10  and  C_13
REMARK                            x       y       z     vdW  Elec       q    Type
REMARK                         _______ _______ _______ _____ _____    ______ ____
ROOT
ATOM      1  C   UNL     1      45.793   5.317  11.854  0.00  0.00    +0.000 A 
ATOM      2  C   UNL     1      46.798   6.226  12.168  0.00  0.00    +0.000 A 
ATOM      3  C   UNL     1      47.436   6.130  13.406  0.00  0.00    +0.000 A 
ATOM      4  C   UNL     1      47.037   5.157  14.320  0.00  0.00    +0.000 A 
ATOM      5  N   UNL     1      47.659   5.144  15.570  0.00  0.00    +0.000 N 
ATOM      6  N   UNL     1      46.061   4.276  14.032  0.00  0.00    +0.000 NA
ATOM      7  C   UNL     1      45.466   4.367  12.812  0.00  0.00    +0.000 A 
ATOM      8  H   UNL     1      48.656   4.964  15.473  0.00  0.00    +0.000 HD
ENDROOT
BRANCH   1  10
ATOM      9  N   UNL     1      43.704   5.648  10.648  0.00  0.00    +0.000 N 
ATOM     10  C   UNL     1      45.036   5.345  10.585  0.00  0.00    +0.000 C 
ATOM     11  O   UNL     1      45.581   5.129   9.511  0.00  0.00    +0.000 OA
ATOM     12  H   UNL     1      43.219   5.736   9.763  0.00  0.00    +0.000 HD
ATOM     13  H   UNL     1      43.263   6.045  11.465  0.00  0.00    +0.000 HD
ENDBRANCH   1  10
BRANCH   5  14
ATOM     14  C   UNL     1      47.021   4.314  16.611  0.00  0.00    +0.000 C 
BRANCH  14  15
ATOM     15  C   UNL     1      47.922   3.124  17.030  0.00  0.00    +0.000 C 
ATOM     16  F   UNL     1      47.155   2.271  17.782  0.00  0.00    +0.000 F 
ATOM     17  F   UNL     1      48.247   2.400  15.913  0.00  0.00    +0.000 F 
BRANCH  15  18
ATOM     18  C   UNL     1      49.163   3.575  17.775  0.00  0.00    +0.000 A 
ATOM     19  C   UNL     1      50.436   3.122  17.395  0.00  0.00    +0.000 A 
ATOM     20  C   UNL     1      51.573   3.563  18.074  0.00  0.00    +0.000 A 
ATOM     21  C   UNL     1      51.455   4.452  19.141  0.00  0.00    +0.000 A 
ATOM     22  C   UNL     1      50.194   4.903  19.532  0.00  0.00    +0.000 A 
ATOM     23  C   UNL     1      49.054   4.465  18.856  0.00  0.00    +0.000 A 
ENDBRANCH  15  18
ENDBRANCH  14  15
ENDBRANCH   5  14
TORSDOF 4
ENDMDL
MODEL 9
REMARK VINA RESULT:    -5.994      2.770      3.483
REMARK INTER + INTRA:          -8.033
REMARK INTER:                  -7.648
REMARK INTRA:                  -0.385
REMARK UNBOUND:                -0.637
REMARK  Name = 
REMARK  4 active torsions:
REMARK  status: ('A' for Active; 'I' for Inactive)
REMARK    1  A    between atoms: C_2  and  C_4
REMARK    2  A    between atoms: N_8  and  C_9
REMARK    3  A    between atoms: C_9  and  C_10
REMARK    4  A    between atoms: C_10  and  C_13
REMARK                            x       y       z     vdW  Elec       q    Type
REMARK                         _______ _______ _______ _____ _____    ______ ____
ROOT
ATOM      1  C   UNL     1      46.140   2.058   7.995  0.00  0.00    +0.000 A 
ATOM      2  C   UNL     1      45.145   1.769   8.923  0.00  0.00    +0.000 A 
ATOM      3  C   UNL     1      44.557   2.816   9.635  0.00  0.00    +0.000 A 
ATOM      4  C   UNL     1      44.995   4.124   9.436  0.00  0.00    +0.000 A 
ATOM      5  N   UNL     1      44.423   5.128  10.219  0.00  0.00    +0.000 N 
ATOM      6  N   UNL     1      45.962   4.417   8.546  0.00  0.00    +0.000 NA
ATOM      7  C   UNL     1      46.508   3.388   7.843  0.00  0.00    +0.000 A 
ATOM      8  H   UNL     1      43.423   5.198  10.040  0.00  0.00    +0.000 HD
ENDROOT
BRANCH   1  10
ATOM      9  N   UNL     1      46.744  -0.272   7.631  0.00  0.00    +0.000 N 
ATOM     10  C   UNL     1      46.846   1.025   7.209  0.00  0.00    +0.000 C 
ATOM     11  O   UNL     1      47.480   1.310   6.202  0.00  0.00    +0.000 OA
ATOM     12  H   UNL     1      47.172  -0.974   7.038  0.00  0.00    +0.000 HD
ATOM     13  H   UNL     1      46.066  -0.583   8.310  0.00  0.00    +0.000 HD
ENDBRANCH   1  10
BRANCH   5  14
ATOM     14  C   UNL     1      45.104   6.438  10.206  0.00  0.00    +0.000 C 
BRANCH  14  15
ATOM     15  C   UNL     1      45.017   7.144  11.583  0.00  0.00    +0.000 C 
ATOM     16  F   UNL     1      44.039   6.514  12.308  0.00  0.00    +0.000 F 
ATOM     17  F   UNL     1      46.172   6.899  12.280  0.00  0.00    +0.000 F 
BRANCH  15  18
ATOM     18  C   UNL     1      44.757   8.631  11.453  0.00  0.00    +0.000 A 
ATOM     19  C   UNL     1      45.675   9.570  11.949  0.00  0.00    +0.000 A 
ATOM     20  C   UNL     1      45.435  10.937  11.802  0.00  0.00    +0.000 A 
ATOM     21  C   UNL     1      44.278  11.384  11.168  0.00  0.00    +0.000 A 
ATOM     22  C   UNL     1      43.354  10.460  10.677  0.00  0.00    +0.000 A 
ATOM     23  C   UNL     1      43.590   9.092  10.822  0.00  0.00    +0.000 A 
ENDBRANCH  15  18
ENDBRANCH  14  15
ENDBRANCH   5  14
TORSDOF 4
ENDMDL
