MODEL 1
REMARK VINA RESULT:    -7.431      0.000      0.000
REMARK INTER + INTRA:          -9.025
REMARK INTER:                  -8.734
REMARK INTRA:                  -0.291
REMARK UNBOUND:                -0.291
REMARK  Name = 
REMARK  3 active torsions:
REMARK  status: ('A' for Active; 'I' for Inactive)
REMARK    1  A    between atoms: C_2  and  C_4
REMARK    2  A    between atoms: N_8  and  C_9
REMARK    3  A    between atoms: C_9  and  C_10
REMARK                            x       y       z     vdW  Elec       q    Type
REMARK                         _______ _______ _______ _____ _____    ______ ____
ROOT
ATOM      1  C   UNL     1      46.531   2.554   7.346  0.00  0.00    +0.000 A 
ATOM      2  C   UNL     1      46.017   1.520   8.124  0.00  0.00    +0.000 A 
ATOM      3  C   UNL     1      45.109   1.826   9.139  0.00  0.00    +0.000 A 
ATOM      4  C   UNL     1      44.740   3.154   9.370  0.00  0.00    +0.000 A 
ATOM      5  N   UNL     1      43.807   3.404  10.392  0.00  0.00    +0.000 N 
ATOM      6  N   UNL     1      45.230   4.157   8.617  0.00  0.00    +0.000 NA
ATOM      7  C   UNL     1      46.118   3.845   7.637  0.00  0.00    +0.000 A 
ATOM      8  H   UNL     1      44.109   2.913  11.227  0.00  0.00    +0.000 HD
ENDROOT
BRANCH   1  10
ATOM      9  N   UNL     1      47.526   3.261   5.243  0.00  0.00    +0.000 N 
ATOM     10  C   UNL     1      47.500   2.339   6.253  0.00  0.00    +0.000 C 
ATOM     11  O   UNL     1      48.275   1.391   6.262  0.00  0.00    +0.000 OA
ATOM     12  H   UNL     1      48.266   3.156   4.560  0.00  0.00    +0.000 HD
ATOM     13  H   UNL     1      47.093   4.170   5.323  0.00  0.00    +0.000 HD
ENDBRANCH   1  10
BRANCH   5  14
ATOM     14  C   UNL     1      43.536   4.819  10.640  0.00  0.00    +0.000 C 
BRANCH  14  15
ATOM     15  C   UNL     1      44.379   5.366  11.809  0.00  0.00    +0.000 C 
ATOM     16  C   UNL     1      45.323   6.504  11.389  0.00  0.00    +0.000 C 
ATOM     17  C   UNL     1      46.166   6.970  12.570  0.00  0.00    +0.000 C 
ATOM     18  O   UNL     1      46.890   5.876  13.132  0.00  0.00    +0.000 OA
ATOM     19  C   UNL     1      46.023   4.866  13.648  0.00  0.00    +0.000 C 
ATOM     20  C   UNL     1      45.167   4.268  12.537  0.00  0.00    +0.000 C 
ENDBRANCH  14  15
ENDBRANCH   5  14
TORSDOF 3
ENDMDL
MODEL 2
REMARK VINA RESULT:    -7.240      1.924      6.344
REMARK INTER + INTRA:          -8.800
REMARK INTER:                  -8.414
REMARK INTRA:                  -0.387
REMARK UNBOUND:                -0.291
REMARK  Name = 
REMARK  3 active torsions:
REMARK  status: ('A' for Active; 'I' for Inactive)
REMARK    1  A    between atoms: C_2  and  C_4
REMARK    2  A    between atoms: N_8  and  C_9
REMARK    3  A    between atoms: C_9  and  C_10
REMARK                            x       y       z     vdW  Elec       q    Type
REMARK                         _______ _______ _______ _____ _____    ______ ____
ROOT
ATOM      1  C   UNL     1      46.662   5.141  13.407  0.00  0.00    +0.000 A 
ATOM      2  C   UNL     1      46.806   6.248  12.574  0.00  0.00    +0.000 A 
ATOM      3  C   UNL     1      46.212   6.224  11.311  0.00  0.00    +0.000 A 
ATOM      4  C   UNL     1      45.500   5.097  10.894  0.00  0.00    +0.000 A 
ATOM      5  N   UNL     1      44.905   5.135   9.621  0.00  0.00    +0.000 N 
ATOM      6  N   UNL     1      45.353   4.026  11.698  0.00  0.00    +0.000 NA
ATOM      7  C   UNL     1      45.941   4.061  12.922  0.00  0.00    +0.000 A 
ATOM      8  H   UNL     1      45.603   5.447   8.953  0.00  0.00    +0.000 HD
ENDROOT
BRANCH   1  10
ATOM      9  N   UNL     1      46.660   4.221  15.657  0.00  0.00    +0.000 N 
ATOM     10  C   UNL     1      47.253   5.063  14.758  0.00  0.00    +0.000 C 
ATOM     11  O   UNL     1      48.256   5.700  15.055  0.00  0.00    +0.000 OA
ATOM     12  H   UNL     1      47.141   4.099  16.540  0.00  0.00    +0.000 HD
ATOM     13  H   UNL     1      46.004   3.504  15.383  0.00  0.00    +0.000 HD
ENDBRANCH   1  10
BRANCH   5  14
ATOM     14  C   UNL     1      44.255   3.890   9.213  0.00  0.00    +0.000 C 
BRANCH  14  15
ATOM     15  C   UNL     1      45.110   3.103   8.200  0.00  0.00    +0.000 C 
ATOM     16  C   UNL     1      45.649   1.781   8.768  0.00  0.00    +0.000 C 
ATOM     17  C   UNL     1      46.527   1.071   7.745  0.00  0.00    +0.000 C 
ATOM     18  O   UNL     1      47.589   1.924   7.318  0.00  0.00    +0.000 OA
ATOM     19  C   UNL     1      47.106   3.100   6.668  0.00  0.00    +0.000 C 
ATOM     20  C   UNL     1      46.261   3.937   7.621  0.00  0.00    +0.000 C 
ENDBRANCH  14  15
ENDBRANCH   5  14
TORSDOF 3
ENDMDL
MODEL 3
REMARK VINA RESULT:    -6.093      2.434      6.346
REMARK INTER + INTRA:          -7.452
REMARK INTER:                  -7.418
REMARK INTRA:                  -0.034
REMARK UNBOUND:                -0.291
REMARK  Name = 
REMARK  3 active torsions:
REMARK  status: ('A' for Active; 'I' for Inactive)
REMARK    1  A    between atoms: C_2  and  C_4
REMARK    2  A    between atoms: N_8  and  C_9
REMARK    3  A    between atoms: C_9  and  C_10
REMARK                            x       y       z     vdW  Elec       q    Type
REMARK                         _______ _______ _______ _____ _____    ______ ____
ROOT
ATOM      1  C   UNL     1      46.591   7.348  12.976  0.00  0.00    +0.000 A 
ATOM      2  C   UNL     1      45.742   8.097  12.165  0.00  0.00    +0.000 A 
ATOM      3  C   UNL     1      44.820   7.432  11.356  0.00  0.00    +0.000 A 
ATOM      4  C   UNL     1      44.768   6.036  11.357  0.00  0.00    +0.000 A 
ATOM      5  N   UNL     1      43.806   5.417  10.539  0.00  0.00    +0.000 N 
ATOM      6  N   UNL     1      45.583   5.306  12.143  0.00  0.00    +0.000 NA
ATOM      7  C   UNL     1      46.480   5.967  12.920  0.00  0.00    +0.000 A 
ATOM      8  H   UNL     1      43.869   5.823   9.611  0.00  0.00    +0.000 HD
ENDROOT
BRANCH   1  10
ATOM      9  N   UNL     1      47.179   8.900  14.752  0.00  0.00    +0.000 N 
ATOM     10  C   UNL     1      47.604   7.952  13.863  0.00  0.00    +0.000 C 
ATOM     11  O   UNL     1      48.776   7.597  13.831  0.00  0.00    +0.000 OA
ATOM     12  H   UNL     1      47.865   9.224  15.423  0.00  0.00    +0.000 HD
ATOM     13  H   UNL     1      46.205   9.034  14.982  0.00  0.00    +0.000 HD
ENDBRANCH   1  10
BRANCH   5  14
ATOM     14  C   UNL     1      43.868   3.956  10.519  0.00  0.00    +0.000 C 
BRANCH  14  15
ATOM     15  C   UNL     1      45.025   3.445   9.637  0.00  0.00    +0.000 C 
ATOM     16  C   UNL     1      45.281   4.332   8.408  0.00  0.00    +0.000 C 
ATOM     17  C   UNL     1      46.397   3.753   7.547  0.00  0.00    +0.000 C 
ATOM     18  O   UNL     1      46.092   2.412   7.165  0.00  0.00    +0.000 OA
ATOM     19  C   UNL     1      45.980   1.544   8.293  0.00  0.00    +0.000 C 
ATOM     20  C   UNL     1      44.840   1.984   9.204  0.00  0.00    +0.000 C 
ENDBRANCH  14  15
ENDBRANCH   5  14
TORSDOF 3
ENDMDL
MODEL 4
REMARK VINA RESULT:    -6.032      4.082      5.940
REMARK INTER + INTRA:          -7.381
REMARK INTER:                  -7.178
REMARK INTRA:                  -0.203
REMARK UNBOUND:                -0.291
REMARK  Name = 
REMARK  3 active torsions:
REMARK  status: ('A' for Active; 'I' for Inactive)
REMARK    1  A    between atoms: C_2  and  C_4
REMARK    2  A    between atoms: N_8  and  C_9
REMARK    3  A    between atoms: C_9  and  C_10
REMARK                            x       y       z     vdW  Elec       q    Type
REMARK                         _______ _______ _______ _____ _____    ______ ____
ROOT
ATOM      1  C   UNL     1      45.022   4.208  11.344  0.00  0.00    +0.000 A 
ATOM      2  C   UNL     1      45.490   5.512  11.476  0.00  0.00    +0.000 A 
ATOM      3  C   UNL     1      46.197   5.863  12.627  0.00  0.00    +0.000 A 
ATOM      4  C   UNL     1      46.413   4.916  13.631  0.00  0.00    +0.000 A 
ATOM      5  N   UNL     1      47.148   5.317  14.760  0.00  0.00    +0.000 N 
ATOM      6  N   UNL     1      45.967   3.651  13.506  0.00  0.00    +0.000 NA
ATOM      7  C   UNL     1      45.275   3.326  12.383  0.00  0.00    +0.000 A 
ATOM      8  H   UNL     1      46.759   6.190  15.100  0.00  0.00    +0.000 HD
ENDROOT
BRANCH   1  10
ATOM      9  N   UNL     1      44.148   4.589   9.108  0.00  0.00    +0.000 N 
ATOM     10  C   UNL     1      44.260   3.736  10.170  0.00  0.00    +0.000 C 
ATOM     11  O   UNL     1      43.775   2.613  10.133  0.00  0.00    +0.000 OA
ATOM     12  H   UNL     1      43.716   4.210   8.274  0.00  0.00    +0.000 HD
ATOM     13  H   UNL     1      44.733   5.404   8.998  0.00  0.00    +0.000 HD
ENDBRANCH   1  10
BRANCH   5  14
ATOM     14  C   UNL     1      47.257   4.305  15.810  0.00  0.00    +0.000 C 
BRANCH  14  15
ATOM     15  C   UNL     1      48.072   4.816  17.015  0.00  0.00    +0.000 C 
ATOM     16  C   UNL     1      49.207   3.863  17.421  0.00  0.00    +0.000 C 
ATOM     17  C   UNL     1      49.944   4.391  18.646  0.00  0.00    +0.000 C 
ATOM     18  O   UNL     1      49.035   4.606  19.725  0.00  0.00    +0.000 OA
ATOM     19  C   UNL     1      48.048   5.588  19.410  0.00  0.00    +0.000 C 
ATOM     20  C   UNL     1      47.193   5.139  18.231  0.00  0.00    +0.000 C 
ENDBRANCH  14  15
ENDBRANCH   5  14
TORSDOF 3
ENDMDL
MODEL 5
REMARK VINA RESULT:    -5.593      4.518      8.092
REMARK INTER + INTRA:          -6.865
REMARK INTER:                  -6.562
REMARK INTRA:                  -0.303
REMARK UNBOUND:                -0.291
REMARK  Name = 
REMARK  3 active torsions:
REMARK  status: ('A' for Active; 'I' for Inactive)
REMARK    1  A    between atoms: C_2  and  C_4
REMARK    2  A    between atoms: N_8  and  C_9
REMARK    3  A    between atoms: C_9  and  C_10
REMARK                            x       y       z     vdW  Elec       q    Type
REMARK                         _______ _______ _______ _____ _____    ______ ____
ROOT
ATOM      1  C   UNL     1      48.390   4.398  17.545  0.00  0.00    +0.000 A 
ATOM      2  C   UNL     1      48.549   5.596  16.853  0.00  0.00    +0.000 A 
ATOM      3  C   UNL     1      48.018   5.709  15.567  0.00  0.00    +0.000 A 
ATOM      4  C   UNL     1      47.351   4.627  14.989  0.00  0.00    +0.000 A 
ATOM      5  N   UNL     1      46.817   4.802  13.700  0.00  0.00    +0.000 N 
ATOM      6  N   UNL     1      47.188   3.468  15.656  0.00  0.00    +0.000 NA
ATOM      7  C   UNL     1      47.716   3.370  16.904  0.00  0.00    +0.000 A 
ATOM      8  H   UNL     1      47.539   5.200  13.108  0.00  0.00    +0.000 HD
ENDROOT
BRANCH   1  10
ATOM      9  N   UNL     1      48.357   3.165  19.640  0.00  0.00    +0.000 N 
ATOM     10  C   UNL     1      48.917   4.173  18.906  0.00  0.00    +0.000 C 
ATOM     11  O   UNL     1      49.842   4.840  19.351  0.00  0.00    +0.000 OA
ATOM     12  H   UNL     1      48.802   2.956  20.526  0.00  0.00    +0.000 HD
ATOM     13  H   UNL     1      47.783   2.444  19.227  0.00  0.00    +0.000 HD
ENDBRANCH   1  10
BRANCH   5  14
ATOM     14  C   UNL     1      46.214   3.602  13.120  0.00  0.00    +0.000 C 
BRANCH  14  15
ATOM     15  C   UNL     1      44.866   3.913  12.439  0.00  0.00    +0.000 C 
ATOM     16  C   UNL     1      45.001   4.178  10.931  0.00  0.00    +0.000 C 
ATOM     17  C   UNL     1      43.649   4.530  10.322  0.00  0.00    +0.000 C 
ATOM     18  O   UNL     1      43.070   5.646  10.995  0.00  0.00    +0.000 OA
ATOM     19  C   UNL     1      42.816   5.371  12.373  0.00  0.00    +0.000 C 
ATOM     20  C   UNL     1      44.113   5.069  13.113  0.00  0.00    +0.000 C 
ENDBRANCH  14  15
ENDBRANCH   5  14
TORSDOF 3
ENDMDL
MODEL 6
REMARK VINA RESULT:    -5.497      3.693      5.372
REMARK INTER + INTRA:          -6.751
REMARK INTER:                  -6.452
REMARK INTRA:                  -0.299
REMARK UNBOUND:                -0.291
REMARK  Name = 
REMARK  3 active torsions:
REMARK  status: ('A' for Active; 'I' for Inactive)
REMARK    1  A    between atoms: C_2  and  C_4
REMARK    2  A    between atoms: N_8  and  C_9
REMARK    3  A    between atoms: C_9  and  C_10
REMARK                            x       y       z     vdW  Elec       q    Type
REMARK                         _______ _______ _______ _____ _____    ______ ____
ROOT
ATOM      1  C   UNL     1      44.599   3.935  11.727  0.00  0.00    +0.000 A 
ATOM      2  C   UNL     1      45.574   3.780  12.708  0.00  0.00    +0.000 A 
ATOM      3  C   UNL     1      46.150   4.919  13.275  0.00  0.00    +0.000 A 
ATOM      4  C   UNL     1      45.755   6.188  12.846  0.00  0.00    +0.000 A 
ATOM      5  N   UNL     1      46.352   7.301  13.465  0.00  0.00    +0.000 N 
ATOM      6  N   UNL     1      44.808   6.345  11.902  0.00  0.00    +0.000 NA
ATOM      7  C   UNL     1      44.262   5.228  11.354  0.00  0.00    +0.000 A 
ATOM      8  H   UNL     1      47.357   7.164  13.465  0.00  0.00    +0.000 HD
ENDROOT
BRANCH   1  10
ATOM      9  N   UNL     1      44.515   2.302   9.929  0.00  0.00    +0.000 N 
ATOM     10  C   UNL     1      43.932   2.798  11.061  0.00  0.00    +0.000 C 
ATOM     11  O   UNL     1      42.915   2.295  11.521  0.00  0.00    +0.000 OA
ATOM     12  H   UNL     1      44.105   1.458   9.548  0.00  0.00    +0.000 HD
ATOM     13  H   UNL     1      45.467   2.515   9.666  0.00  0.00    +0.000 HD
ENDBRANCH   1  10
BRANCH   5  14
ATOM     14  C   UNL     1      45.961   8.594  12.906  0.00  0.00    +0.000 C 
BRANCH  14  15
ATOM     15  C   UNL     1      47.187   9.467  12.570  0.00  0.00    +0.000 C 
ATOM     16  C   UNL     1      46.833  10.705  11.733  0.00  0.00    +0.000 C 
ATOM     17  C   UNL     1      48.086  11.500  11.387  0.00  0.00    +0.000 C 
ATOM     18  O   UNL     1      49.036  10.674  10.716  0.00  0.00    +0.000 OA
ATOM     19  C   UNL     1      49.476   9.589  11.532  0.00  0.00    +0.000 C 
ATOM     20  C   UNL     1      48.312   8.673  11.891  0.00  0.00    +0.000 C 
ENDBRANCH  14  15
ENDBRANCH   5  14
TORSDOF 3
ENDMDL
MODEL 7
REMARK VINA RESULT:    -5.347      3.712      5.536
REMARK INTER + INTRA:          -6.576
REMARK INTER:                  -6.262
REMARK INTRA:                  -0.314
REMARK UNBOUND:                -0.291
REMARK  Name = 
REMARK  3 active torsions:
REMARK  status: ('A' for Active; 'I' for Inactive)
REMARK    1  A    between atoms: C_2  and  C_4
REMARK    2  A    between atoms: N_8  and  C_9
REMARK    3  A    between atoms: C_9  and  C_10
REMARK                            x       y       z     vdW  Elec       q    Type
REMARK                         _______ _______ _______ _____ _____    ______ ____
ROOT
ATOM      1  C   UNL     1      44.997   4.435  11.411  0.00  0.00    +0.000 A 
ATOM      2  C   UNL     1      45.436   3.748  12.539  0.00  0.00    +0.000 A 
ATOM      3  C   UNL     1      46.296   4.392  13.431  0.00  0.00    +0.000 A 
ATOM      4  C   UNL     1      46.713   5.700  13.177  0.00  0.00    +0.000 A 
ATOM      5  N   UNL     1      47.563   6.309  14.118  0.00  0.00    +0.000 N 
ATOM      6  N   UNL     1      46.288   6.372  12.090  0.00  0.00    +0.000 NA
ATOM      7  C   UNL     1      45.457   5.731  11.228  0.00  0.00    +0.000 A 
ATOM      8  H   UNL     1      48.324   5.669  14.320  0.00  0.00    +0.000 HD
ENDROOT
BRANCH   1  10
ATOM      9  N   UNL     1      44.071   4.418   9.164  0.00  0.00    +0.000 N 
ATOM     10  C   UNL     1      44.092   3.845  10.405  0.00  0.00    +0.000 C 
ATOM     11  O   UNL     1      43.410   2.860  10.658  0.00  0.00    +0.000 OA
ATOM     12  H   UNL     1      43.527   3.936   8.457  0.00  0.00    +0.000 HD
ATOM     13  H   UNL     1      44.786   5.054   8.844  0.00  0.00    +0.000 HD
ENDBRANCH   1  10
BRANCH   5  14
ATOM     14  C   UNL     1      48.034   7.642  13.745  0.00  0.00    +0.000 C 
BRANCH  14  15
ATOM     15  C   UNL     1      49.463   7.603  13.167  0.00  0.00    +0.000 C 
ATOM     16  C   UNL     1      50.417   8.590  13.856  0.00  0.00    +0.000 C 
ATOM     17  C   UNL     1      51.798   8.546  13.212  0.00  0.00    +0.000 C 
ATOM     18  O   UNL     1      51.707   8.804  11.811  0.00  0.00    +0.000 OA
ATOM     19  C   UNL     1      50.929   7.818  11.132  0.00  0.00    +0.000 C 
ATOM     20  C   UNL     1      49.494   7.812  11.646  0.00  0.00    +0.000 C 
ENDBRANCH  14  15
ENDBRANCH   5  14
TORSDOF 3
ENDMDL
MODEL 8
REMARK VINA RESULT:    -5.294      3.681      7.181
REMARK INTER + INTRA:          -6.513
REMARK INTER:                  -6.236
REMARK INTRA:                  -0.277
REMARK UNBOUND:                -0.291
REMARK  Name = 
REMARK  3 active torsions:
REMARK  status: ('A' for Active; 'I' for Inactive)
REMARK    1  A    between atoms: C_2  and  C_4
REMARK    2  A    between atoms: N_8  and  C_9
REMARK    3  A    between atoms: C_9  and  C_10
REMARK                            x       y       z     vdW  Elec       q    Type
REMARK                         _______ _______ _______ _____ _____    ______ ____
ROOT
ATOM      1  C   UNL     1      48.150   5.205  15.781  0.00  0.00    +0.000 A 
ATOM      2  C   UNL     1      48.294   6.322  14.962  0.00  0.00    +0.000 A 
ATOM      3  C   UNL     1      47.458   6.459  13.852  0.00  0.00    +0.000 A 
ATOM      4  C   UNL     1      46.504   5.478  13.571  0.00  0.00    +0.000 A 
ATOM      5  N   UNL     1      45.674   5.676  12.453  0.00  0.00    +0.000 N 
ATOM      6  N   UNL     1      46.356   4.398  14.362  0.00  0.00    +0.000 NA
ATOM      7  C   UNL     1      47.181   4.275  15.434  0.00  0.00    +0.000 A 
ATOM      8  H   UNL     1      46.260   5.916  11.660  0.00  0.00    +0.000 HD
ENDROOT
BRANCH   1  10
ATOM      9  N   UNL     1      48.999   5.929  17.940  0.00  0.00    +0.000 N 
ATOM     10  C   UNL     1      48.985   4.963  16.973  0.00  0.00    +0.000 C 
ATOM     11  O   UNL     1      49.617   3.922  17.110  0.00  0.00    +0.000 OA
ATOM     12  H   UNL     1      49.491   5.699  18.795  0.00  0.00    +0.000 HD
ATOM     13  H   UNL     1      48.312   6.667  17.984  0.00  0.00    +0.000 HD
ENDBRANCH   1  10
BRANCH   5  14
ATOM     14  C   UNL     1      44.763   4.569  12.164  0.00  0.00    +0.000 C 
BRANCH  14  15
ATOM     15  C   UNL     1      45.121   3.865  10.840  0.00  0.00    +0.000 C 
ATOM     16  C   UNL     1      45.277   4.841   9.663  0.00  0.00    +0.000 C 
ATOM     17  C   UNL     1      45.579   4.087   8.373  0.00  0.00    +0.000 C 
ATOM     18  O   UNL     1      44.567   3.115   8.111  0.00  0.00    +0.000 OA
ATOM     19  C   UNL     1      44.497   2.122   9.135  0.00  0.00    +0.000 C 
ATOM     20  C   UNL     1      44.131   2.750  10.474  0.00  0.00    +0.000 C 
ENDBRANCH  14  15
ENDBRANCH   5  14
TORSDOF 3
ENDMDL
MODEL 9
REMARK VINA RESULT:    -4.983      4.629      6.523
REMARK INTER + INTRA:          -6.148
REMARK INTER:                  -5.755
REMARK INTRA:                  -0.393
REMARK UNBOUND:                -0.291
REMARK  Name = 
REMARK  3 active torsions:
REMARK  status: ('A' for Active; 'I' for Inactive)
REMARK    1  A    between atoms: C_2  and  C_4
REMARK    2  A    between atoms: N_8  and  C_9
REMARK    3  A    between atoms: C_9  and  C_10
REMARK                            x       y       z     vdW  Elec       q    Type
REMARK                         _______ _______ _______ _____ _____    ______ ____
ROOT
ATOM      1  C   UNL     1      45.082   5.073  12.941  0.00  0.00    +0.000 A 
ATOM      2  C   UNL     1      46.075   4.749  13.862  0.00  0.00    +0.000 A 
ATOM      3  C   UNL     1      47.329   5.349  13.741  0.00  0.00    +0.000 A 
ATOM      4  C   UNL     1      47.576   6.249  12.701  0.00  0.00    +0.000 A 
ATOM      5  N   UNL     1      48.850   6.840  12.639  0.00  0.00    +0.000 N 
ATOM      6  N   UNL     1      46.618   6.570  11.811  0.00  0.00    +0.000 NA
ATOM      7  C   UNL     1      45.404   5.973  11.937  0.00  0.00    +0.000 A 
ATOM      8  H   UNL     1      49.547   6.106  12.717  0.00  0.00    +0.000 HD
ENDROOT
BRANCH   1  10
ATOM      9  N   UNL     1      42.672   5.354  13.097  0.00  0.00    +0.000 N 
ATOM     10  C   UNL     1      43.725   4.491  12.977  0.00  0.00    +0.000 C 
ATOM     11  O   UNL     1      43.544   3.285  12.869  0.00  0.00    +0.000 OA
ATOM     12  H   UNL     1      41.748   4.948  13.011  0.00  0.00    +0.000 HD
ATOM     13  H   UNL     1      42.759   6.347  12.934  0.00  0.00    +0.000 HD
ENDBRANCH   1  10
BRANCH   5  14
ATOM     14  C   UNL     1      49.070   7.699  11.475  0.00  0.00    +0.000 C 
BRANCH  14  15
ATOM     15  C   UNL     1      49.253   9.175  11.881  0.00  0.00    +0.000 C 
ATOM     16  C   UNL     1      49.942   9.342  13.244  0.00  0.00    +0.000 C 
ATOM     17  C   UNL     1      50.050  10.816  13.617  0.00  0.00    +0.000 C 
ATOM     18  O   UNL     1      48.763  11.433  13.606  0.00  0.00    +0.000 OA
ATOM     19  C   UNL     1      48.163  11.402  12.311  0.00  0.00    +0.000 C 
ATOM     20  C   UNL     1      47.938   9.966  11.852  0.00  0.00    +0.000 C 
ENDBRANCH  14  15
ENDBRANCH   5  14
TORSDOF 3
ENDMDL
