MODEL 1
REMARK VINA RESULT:    -8.352      0.000      0.000
REMARK INTER + INTRA:         -11.661
REMARK INTER:                 -10.793
REMARK INTRA:                  -0.868
REMARK UNBOUND:                -0.868
REMARK  Name = 
REMARK  5 active torsions:
REMARK  status: ('A' for Active; 'I' for Inactive)
REMARK    1  A    between atoms: C_2  and  C_4
REMARK    2  A    between atoms: C_7  and  O_8
REMARK    3  A    between atoms: O_8  and  C_9
REMARK    4  A    between atoms: C_9  and  C_10
REMARK    5  A    between atoms: C_14  and  N_15
REMARK                            x       y       z     vdW  Elec       q    Type
REMARK                         _______ _______ _______ _____ _____    ______ ____
ROOT
ATOM      1  C   UNL     1      43.472   4.262  11.314  0.00  0.00    +0.000 C 
ENDROOT
BRANCH   1   2
ATOM      2  C   UNL     1      44.702   4.579  12.125  0.00  0.00    +0.000 A 
ATOM      3  C   UNL     1      45.351   3.548  12.796  0.00  0.00    +0.000 A 
ATOM      4  N   UNL     1      46.469   3.707  13.530  0.00  0.00    +0.000 NA
ATOM      5  C   UNL     1      46.963   4.966  13.601  0.00  0.00    +0.000 A 
ATOM      6  C   UNL     1      46.417   6.098  12.986  0.00  0.00    +0.000 A 
ATOM      7  C   UNL     1      45.255   5.863  12.240  0.00  0.00    +0.000 A 
BRANCH   6   8
ATOM      8  N   UNL     1      46.980   7.348  13.102  0.00  0.00    +0.000 N 
ATOM      9  C   UNL     1      46.193   8.580  13.248  0.00  0.00    +0.000 C 
ATOM     10  C   UNL     1      46.544   9.567  12.126  0.00  0.00    +0.000 C 
ATOM     11  O   UNL     1      47.960   9.812  12.060  0.00  0.00    +0.000 OA
ATOM     12  C   UNL     1      48.668   8.584  11.818  0.00  0.00    +0.000 C 
ATOM     13  C   UNL     1      48.426   7.559  12.939  0.00  0.00    +0.000 C 
ENDBRANCH   6   8
ENDBRANCH   1   2
BRANCH   1  14
ATOM     14  O   UNL     1      43.647   4.572   9.931  0.00  0.00    +0.000 OA
BRANCH  14  18
ATOM     15  C   UNL     1      46.440   2.445   7.671  0.00  0.00    +0.000 A 
ATOM     16  C   UNL     1      45.594   1.730   8.526  0.00  0.00    +0.000 A 
ATOM     17  C   UNL     1      44.643   2.405   9.303  0.00  0.00    +0.000 A 
ATOM     18  C   UNL     1      44.530   3.796   9.228  0.00  0.00    +0.000 A 
ATOM     19  C   UNL     1      45.381   4.506   8.376  0.00  0.00    +0.000 A 
ATOM     20  C   UNL     1      46.336   3.837   7.605  0.00  0.00    +0.000 A 
BRANCH  15  22
ATOM     21  N   UNL     1      48.544   2.527   6.443  0.00  0.00    +0.000 N 
ATOM     22  C   UNL     1      47.482   1.771   6.854  0.00  0.00    +0.000 C 
ATOM     23  O   UNL     1      47.414   0.578   6.585  0.00  0.00    +0.000 OA
ATOM     24  H   UNL     1      49.292   2.025   5.981  0.00  0.00    +0.000 HD
ATOM     25  H   UNL     1      48.766   3.419   6.861  0.00  0.00    +0.000 HD
ENDBRANCH  15  22
ENDBRANCH  14  18
ENDBRANCH   1  14
TORSDOF 5
ENDMDL
MODEL 2
REMARK VINA RESULT:    -7.998      1.997      2.801
REMARK INTER + INTRA:         -11.204
REMARK INTER:                 -10.431
REMARK INTRA:                  -0.773
REMARK UNBOUND:                -0.868
REMARK  Name = 
REMARK  5 active torsions:
REMARK  status: ('A' for Active; 'I' for Inactive)
REMARK    1  A    between atoms: C_2  and  C_4
REMARK    2  A    between atoms: C_7  and  O_8
REMARK    3  A    between atoms: O_8  and  C_9
REMARK    4  A    between atoms: C_9  and  C_10
REMARK    5  A    between atoms: C_14  and  N_15
REMARK                            x       y       z     vdW  Elec       q    Type
REMARK                         _______ _______ _______ _____ _____    ______ ____
ROOT
ATOM      1  C   UNL     1      43.671   3.359  11.537  0.00  0.00    +0.000 C 
ENDROOT
BRANCH   1   2
ATOM      2  C   UNL     1      44.493   4.487  12.106  0.00  0.00    +0.000 A 
ATOM      3  C   UNL     1      44.164   5.796  11.773  0.00  0.00    +0.000 A 
ATOM      4  N   UNL     1      44.810   6.882  12.239  0.00  0.00    +0.000 NA
ATOM      5  C   UNL     1      45.845   6.646  13.080  0.00  0.00    +0.000 A 
ATOM      6  C   UNL     1      46.292   5.388  13.500  0.00  0.00    +0.000 A 
ATOM      7  C   UNL     1      45.577   4.303  12.977  0.00  0.00    +0.000 A 
BRANCH   6   8
ATOM      8  N   UNL     1      47.352   5.229  14.361  0.00  0.00    +0.000 N 
ATOM      9  C   UNL     1      47.428   4.156  15.362  0.00  0.00    +0.000 C 
ATOM     10  C   UNL     1      47.603   4.753  16.765  0.00  0.00    +0.000 C 
ATOM     11  O   UNL     1      48.725   5.651  16.822  0.00  0.00    +0.000 OA
ATOM     12  C   UNL     1      48.546   6.733  15.891  0.00  0.00    +0.000 C 
ATOM     13  C   UNL     1      48.433   6.223  14.443  0.00  0.00    +0.000 C 
ENDBRANCH   6   8
ENDBRANCH   1   2
BRANCH   1  14
ATOM     14  O   UNL     1      43.439   3.517  10.137  0.00  0.00    +0.000 OA
BRANCH  14  18
ATOM     15  C   UNL     1      46.495   2.530   7.469  0.00  0.00    +0.000 A 
ATOM     16  C   UNL     1      45.977   1.521   8.288  0.00  0.00    +0.000 A 
ATOM     17  C   UNL     1      44.951   1.810   9.198  0.00  0.00    +0.000 A 
ATOM     18  C   UNL     1      44.436   3.105   9.293  0.00  0.00    +0.000 A 
ATOM     19  C   UNL     1      44.960   4.110   8.475  0.00  0.00    +0.000 A 
ATOM     20  C   UNL     1      45.988   3.828   7.571  0.00  0.00    +0.000 A 
BRANCH  15  22
ATOM     21  N   UNL     1      47.706   3.104   5.433  0.00  0.00    +0.000 N 
ATOM     22  C   UNL     1      47.602   2.273   6.513  0.00  0.00    +0.000 C 
ATOM     23  O   UNL     1      48.413   1.374   6.697  0.00  0.00    +0.000 OA
ATOM     24  H   UNL     1      48.527   2.980   4.855  0.00  0.00    +0.000 HD
ATOM     25  H   UNL     1      47.235   3.997   5.392  0.00  0.00    +0.000 HD
ENDBRANCH  15  22
ENDBRANCH  14  18
ENDBRANCH   1  14
TORSDOF 5
ENDMDL
MODEL 3
REMARK VINA RESULT:    -7.787      1.297      1.631
REMARK INTER + INTRA:         -10.931
REMARK INTER:                 -10.253
REMARK INTRA:                  -0.678
REMARK UNBOUND:                -0.868
REMARK  Name = 
REMARK  5 active torsions:
REMARK  status: ('A' for Active; 'I' for Inactive)
REMARK    1  A    between atoms: C_2  and  C_4
REMARK    2  A    between atoms: C_7  and  O_8
REMARK    3  A    between atoms: O_8  and  C_9
REMARK    4  A    between atoms: C_9  and  C_10
REMARK    5  A    between atoms: C_14  and  N_15
REMARK                            x       y       z     vdW  Elec       q    Type
REMARK                         _______ _______ _______ _____ _____    ______ ____
ROOT
ATOM      1  C   UNL     1      44.452   5.517  10.845  0.00  0.00    +0.000 C 
ENDROOT
BRANCH   1   2
ATOM      2  C   UNL     1      45.383   5.315  12.013  0.00  0.00    +0.000 A 
ATOM      3  C   UNL     1      45.211   4.202  12.827  0.00  0.00    +0.000 A 
ATOM      4  N   UNL     1      45.994   3.906  13.882  0.00  0.00    +0.000 NA
ATOM      5  C   UNL     1      47.001   4.774  14.140  0.00  0.00    +0.000 A 
ATOM      6  C   UNL     1      47.292   5.934  13.413  0.00  0.00    +0.000 A 
ATOM      7  C   UNL     1      46.438   6.182  12.331  0.00  0.00    +0.000 A 
BRANCH   6   8
ATOM      8  N   UNL     1      48.338   6.766  13.736  0.00  0.00    +0.000 N 
ATOM      9  C   UNL     1      48.964   6.803  15.064  0.00  0.00    +0.000 C 
ATOM     10  C   UNL     1      48.898   8.225  15.640  0.00  0.00    +0.000 C 
ATOM     11  O   UNL     1      49.456   9.190  14.731  0.00  0.00    +0.000 OA
ATOM     12  C   UNL     1      48.739   9.175  13.485  0.00  0.00    +0.000 C 
ATOM     13  C   UNL     1      48.816   7.798  12.803  0.00  0.00    +0.000 C 
ENDBRANCH   6   8
ENDBRANCH   1   2
BRANCH   1  14
ATOM     14  O   UNL     1      44.005   4.278  10.293  0.00  0.00    +0.000 OA
BRANCH  14  18
ATOM     15  C   UNL     1      46.602   2.662   7.451  0.00  0.00    +0.000 A 
ATOM     16  C   UNL     1      45.948   1.788   8.327  0.00  0.00    +0.000 A 
ATOM     17  C   UNL     1      45.069   2.289   9.296  0.00  0.00    +0.000 A 
ATOM     18  C   UNL     1      44.836   3.663   9.395  0.00  0.00    +0.000 A 
ATOM     19  C   UNL     1      45.495   4.532   8.521  0.00  0.00    +0.000 A 
ATOM     20  C   UNL     1      46.379   4.037   7.557  0.00  0.00    +0.000 A 
BRANCH  15  22
ATOM     21  N   UNL     1      47.786   2.975   5.345  0.00  0.00    +0.000 N 
ATOM     22  C   UNL     1      47.564   2.175   6.430  0.00  0.00    +0.000 C 
ATOM     23  O   UNL     1      48.163   1.115   6.566  0.00  0.00    +0.000 OA
ATOM     24  H   UNL     1      48.523   2.677   4.717  0.00  0.00    +0.000 HD
ATOM     25  H   UNL     1      47.527   3.951   5.330  0.00  0.00    +0.000 HD
ENDBRANCH  15  22
ENDBRANCH  14  18
ENDBRANCH   1  14
TORSDOF 5
ENDMDL
MODEL 4
REMARK VINA RESULT:    -7.497      1.458      2.454
REMARK INTER + INTRA:         -10.556
REMARK INTER:                  -9.771
REMARK INTRA:                  -0.785
REMARK UNBOUND:                -0.868
REMARK  Name = 
REMARK  5 active torsions:
REMARK  status: ('A' for Active; 'I' for Inactive)
REMARK    1  A    between atoms: C_2  and  C_4
REMARK    2  A    between atoms: C_7  and  O_8
REMARK    3  A    between atoms: O_8  and  C_9
REMARK    4  A    between atoms: C_9  and  C_10
REMARK    5  A    between atoms: C_14  and  N_15
REMARK                            x       y       z     vdW  Elec       q    Type
REMARK                         _______ _______ _______ _____ _____    ______ ____
ROOT
ATOM      1  C   UNL     1      44.096   4.564  11.579  0.00  0.00    +0.000 C 
ENDROOT
BRANCH   1   2
ATOM      2  C   UNL     1      44.761   5.914  11.644  0.00  0.00    +0.000 A 
ATOM      3  C   UNL     1      43.988   7.056  11.469  0.00  0.00    +0.000 A 
ATOM      4  N   UNL     1      44.467   8.313  11.530  0.00  0.00    +0.000 NA
ATOM      5  C   UNL     1      45.794   8.435  11.775  0.00  0.00    +0.000 A 
ATOM      6  C   UNL     1      46.694   7.381  11.968  0.00  0.00    +0.000 A 
ATOM      7  C   UNL     1      46.130   6.101  11.890  0.00  0.00    +0.000 A 
BRANCH   6   8
ATOM      8  N   UNL     1      48.031   7.585  12.217  0.00  0.00    +0.000 N 
ATOM      9  C   UNL     1      48.873   6.631  12.949  0.00  0.00    +0.000 C 
ATOM     10  C   UNL     1      49.514   7.314  14.164  0.00  0.00    +0.000 C 
ATOM     11  O   UNL     1      50.221   8.509  13.787  0.00  0.00    +0.000 OA
ATOM     12  C   UNL     1      49.323   9.445  13.165  0.00  0.00    +0.000 C 
ATOM     13  C   UNL     1      48.688   8.860  11.892  0.00  0.00    +0.000 C 
ENDBRANCH   6   8
ENDBRANCH   1   2
BRANCH   1  14
ATOM     14  O   UNL     1      43.648   4.248  10.260  0.00  0.00    +0.000 OA
BRANCH  14  18
ATOM     15  C   UNL     1      46.429   2.445   7.722  0.00  0.00    +0.000 A 
ATOM     16  C   UNL     1      46.261   3.832   7.645  0.00  0.00    +0.000 A 
ATOM     17  C   UNL     1      45.338   4.477   8.478  0.00  0.00    +0.000 A 
ATOM     18  C   UNL     1      44.579   3.742   9.393  0.00  0.00    +0.000 A 
ATOM     19  C   UNL     1      44.749   2.356   9.463  0.00  0.00    +0.000 A 
ATOM     20  C   UNL     1      45.664   1.708   8.628  0.00  0.00    +0.000 A 
BRANCH  15  22
ATOM     21  N   UNL     1      48.483   2.398   6.410  0.00  0.00    +0.000 N 
ATOM     22  C   UNL     1      47.376   1.719   6.836  0.00  0.00    +0.000 C 
ATOM     23  O   UNL     1      47.193   0.549   6.523  0.00  0.00    +0.000 OA
ATOM     24  H   UNL     1      49.167   1.854   5.899  0.00  0.00    +0.000 HD
ATOM     25  H   UNL     1      48.799   3.249   6.853  0.00  0.00    +0.000 HD
ENDBRANCH  15  22
ENDBRANCH  14  18
ENDBRANCH   1  14
TORSDOF 5
ENDMDL
MODEL 5
REMARK VINA RESULT:    -7.194      2.676      3.557
REMARK INTER + INTRA:         -10.165
REMARK INTER:                  -9.442
REMARK INTRA:                  -0.723
REMARK UNBOUND:                -0.868
REMARK  Name = 
REMARK  5 active torsions:
REMARK  status: ('A' for Active; 'I' for Inactive)
REMARK    1  A    between atoms: C_2  and  C_4
REMARK    2  A    between atoms: C_7  and  O_8
REMARK    3  A    between atoms: O_8  and  C_9
REMARK    4  A    between atoms: C_9  and  C_10
REMARK    5  A    between atoms: C_14  and  N_15
REMARK                            x       y       z     vdW  Elec       q    Type
REMARK                         _______ _______ _______ _____ _____    ______ ____
ROOT
ATOM      1  C   UNL     1      44.245   4.990  11.441  0.00  0.00    +0.000 C 
ENDROOT
BRANCH   1   2
ATOM      2  C   UNL     1      44.704   6.407  11.670  0.00  0.00    +0.000 A 
ATOM      3  C   UNL     1      45.877   6.629  12.382  0.00  0.00    +0.000 A 
ATOM      4  N   UNL     1      46.396   7.847  12.627  0.00  0.00    +0.000 NA
ATOM      5  C   UNL     1      45.702   8.902  12.137  0.00  0.00    +0.000 A 
ATOM      6  C   UNL     1      44.509   8.832  11.408  0.00  0.00    +0.000 A 
ATOM      7  C   UNL     1      44.024   7.536  11.191  0.00  0.00    +0.000 A 
BRANCH   6   8
ATOM      8  N   UNL     1      43.862   9.952  10.939  0.00  0.00    +0.000 N 
ATOM      9  C   UNL     1      42.583  10.433  11.478  0.00  0.00    +0.000 C 
ATOM     10  C   UNL     1      41.537  10.521  10.358  0.00  0.00    +0.000 C 
ATOM     11  O   UNL     1      42.011  11.309   9.252  0.00  0.00    +0.000 OA
ATOM     12  C   UNL     1      43.209  10.733   8.705  0.00  0.00    +0.000 C 
ATOM     13  C   UNL     1      44.338  10.673   9.749  0.00  0.00    +0.000 C 
ENDBRANCH   6   8
ENDBRANCH   1   2
BRANCH   1  14
ATOM     14  O   UNL     1      43.859   4.761  10.085  0.00  0.00    +0.000 OA
BRANCH  14  18
ATOM     15  C   UNL     1      46.520   2.552   7.746  0.00  0.00    +0.000 A 
ATOM     16  C   UNL     1      46.540   3.948   7.637  0.00  0.00    +0.000 A 
ATOM     17  C   UNL     1      45.663   4.726   8.404  0.00  0.00    +0.000 A 
ATOM     18  C   UNL     1      44.764   4.118   9.284  0.00  0.00    +0.000 A 
ATOM     19  C   UNL     1      44.746   2.724   9.386  0.00  0.00    +0.000 A 
ATOM     20  C   UNL     1      45.614   1.943   8.618  0.00  0.00    +0.000 A 
BRANCH  15  22
ATOM     21  N   UNL     1      48.475   2.289   6.314  0.00  0.00    +0.000 N 
ATOM     22  C   UNL     1      47.412   1.690   6.930  0.00  0.00    +0.000 C 
ATOM     23  O   UNL     1      47.228   0.483   6.836  0.00  0.00    +0.000 OA
ATOM     24  H   UNL     1      49.129   1.669   5.854  0.00  0.00    +0.000 HD
ATOM     25  H   UNL     1      48.807   3.205   6.581  0.00  0.00    +0.000 HD
ENDBRANCH  15  22
ENDBRANCH  14  18
ENDBRANCH   1  14
TORSDOF 5
ENDMDL
MODEL 6
REMARK VINA RESULT:    -6.582      2.418      6.766
REMARK INTER + INTRA:          -9.374
REMARK INTER:                  -8.667
REMARK INTRA:                  -0.707
REMARK UNBOUND:                -0.868
REMARK  Name = 
REMARK  5 active torsions:
REMARK  status: ('A' for Active; 'I' for Inactive)
REMARK    1  A    between atoms: C_2  and  C_4
REMARK    2  A    between atoms: C_7  and  O_8
REMARK    3  A    between atoms: O_8  and  C_9
REMARK    4  A    between atoms: C_9  and  C_10
REMARK    5  A    between atoms: C_14  and  N_15
REMARK                            x       y       z     vdW  Elec       q    Type
REMARK                         _______ _______ _______ _____ _____    ______ ____
ROOT
ATOM      1  C   UNL     1      45.228   6.355  12.860  0.00  0.00    +0.000 C 
ENDROOT
BRANCH   1   2
ATOM      2  C   UNL     1      44.729   5.059  12.275  0.00  0.00    +0.000 A 
ATOM      3  C   UNL     1      43.932   4.230  13.056  0.00  0.00    +0.000 A 
ATOM      4  N   UNL     1      43.410   3.062  12.633  0.00  0.00    +0.000 NA
ATOM      5  C   UNL     1      43.705   2.702  11.361  0.00  0.00    +0.000 A 
ATOM      6  C   UNL     1      44.493   3.431  10.463  0.00  0.00    +0.000 A 
ATOM      7  C   UNL     1      45.005   4.633  10.968  0.00  0.00    +0.000 A 
BRANCH   6   8
ATOM      8  N   UNL     1      44.745   3.000   9.182  0.00  0.00    +0.000 N 
ATOM      9  C   UNL     1      44.976   1.593   8.831  0.00  0.00    +0.000 C 
ATOM     10  C   UNL     1      46.336   1.438   8.136  0.00  0.00    +0.000 C 
ATOM     11  O   UNL     1      46.458   2.322   7.009  0.00  0.00    +0.000 OA
ATOM     12  C   UNL     1      46.321   3.690   7.430  0.00  0.00    +0.000 C 
ATOM     13  C   UNL     1      44.949   3.950   8.077  0.00  0.00    +0.000 C 
ENDBRANCH   6   8
ENDBRANCH   1   2
BRANCH   1  14
ATOM     14  O   UNL     1      46.437   6.181  13.599  0.00  0.00    +0.000 OA
BRANCH  14  18
ATOM     15  C   UNL     1      49.976   8.007  12.344  0.00  0.00    +0.000 A 
ATOM     16  C   UNL     1      48.960   7.811  11.403  0.00  0.00    +0.000 A 
ATOM     17  C   UNL     1      47.756   7.200  11.782  0.00  0.00    +0.000 A 
ATOM     18  C   UNL     1      47.560   6.786  13.102  0.00  0.00    +0.000 A 
ATOM     19  C   UNL     1      48.581   6.982  14.037  0.00  0.00    +0.000 A 
ATOM     20  C   UNL     1      49.785   7.583  13.662  0.00  0.00    +0.000 A 
BRANCH  15  22
ATOM     21  N   UNL     1      52.402   7.868  12.158  0.00  0.00    +0.000 N 
ATOM     22  C   UNL     1      51.277   8.623  11.977  0.00  0.00    +0.000 C 
ATOM     23  O   UNL     1      51.343   9.748  11.499  0.00  0.00    +0.000 OA
ATOM     24  H   UNL     1      53.263   8.263  11.802  0.00  0.00    +0.000 HD
ATOM     25  H   UNL     1      52.366   6.867  12.290  0.00  0.00    +0.000 HD
ENDBRANCH  15  22
ENDBRANCH  14  18
ENDBRANCH   1  14
TORSDOF 5
ENDMDL
MODEL 7
REMARK VINA RESULT:    -6.576      3.937      8.197
REMARK INTER + INTRA:          -9.366
REMARK INTER:                  -8.853
REMARK INTRA:                  -0.513
REMARK UNBOUND:                -0.868
REMARK  Name = 
REMARK  5 active torsions:
REMARK  status: ('A' for Active; 'I' for Inactive)
REMARK    1  A    between atoms: C_2  and  C_4
REMARK    2  A    between atoms: C_7  and  O_8
REMARK    3  A    between atoms: O_8  and  C_9
REMARK    4  A    between atoms: C_9  and  C_10
REMARK    5  A    between atoms: C_14  and  N_15
REMARK                            x       y       z     vdW  Elec       q    Type
REMARK                         _______ _______ _______ _____ _____    ______ ____
ROOT
ATOM      1  C   UNL     1      46.562   4.752  13.954  0.00  0.00    +0.000 C 
ENDROOT
BRANCH   1   2
ATOM      2  C   UNL     1      45.424   4.549  12.987  0.00  0.00    +0.000 A 
ATOM      3  C   UNL     1      44.136   4.899  13.379  0.00  0.00    +0.000 A 
ATOM      4  N   UNL     1      43.048   4.785  12.593  0.00  0.00    +0.000 NA
ATOM      5  C   UNL     1      43.258   4.290  11.350  0.00  0.00    +0.000 A 
ATOM      6  C   UNL     1      44.491   3.893  10.822  0.00  0.00    +0.000 A 
ATOM      7  C   UNL     1      45.580   4.036  11.691  0.00  0.00    +0.000 A 
BRANCH   6   8
ATOM      8  N   UNL     1      44.626   3.402   9.544  0.00  0.00    +0.000 N 
ATOM      9  C   UNL     1      44.652   1.968   9.227  0.00  0.00    +0.000 C 
ATOM     10  C   UNL     1      45.946   1.615   8.481  0.00  0.00    +0.000 C 
ATOM     11  O   UNL     1      46.133   2.447   7.323  0.00  0.00    +0.000 OA
ATOM     12  C   UNL     1      46.199   3.831   7.709  0.00  0.00    +0.000 C 
ATOM     13  C   UNL     1      44.904   4.288   8.404  0.00  0.00    +0.000 C 
ENDBRANCH   6   8
ENDBRANCH   1   2
BRANCH   1  14
ATOM     14  O   UNL     1      46.750   3.622  14.807  0.00  0.00    +0.000 OA
BRANCH  14  18
ATOM     15  C   UNL     1      48.907   4.531  18.265  0.00  0.00    +0.000 A 
ATOM     16  C   UNL     1      48.436   3.223  18.100  0.00  0.00    +0.000 A 
ATOM     17  C   UNL     1      47.707   2.876  16.954  0.00  0.00    +0.000 A 
ATOM     18  C   UNL     1      47.447   3.831  15.967  0.00  0.00    +0.000 A 
ATOM     19  C   UNL     1      47.916   5.136  16.140  0.00  0.00    +0.000 A 
ATOM     20  C   UNL     1      48.638   5.488  17.284  0.00  0.00    +0.000 A 
BRANCH  15  22
ATOM     21  N   UNL     1      49.348   4.320  20.652  0.00  0.00    +0.000 N 
ATOM     22  C   UNL     1      49.657   4.947  19.477  0.00  0.00    +0.000 C 
ATOM     23  O   UNL     1      50.542   5.792  19.426  0.00  0.00    +0.000 OA
ATOM     24  H   UNL     1      49.943   4.540  21.442  0.00  0.00    +0.000 HD
ATOM     25  H   UNL     1      48.832   3.453  20.683  0.00  0.00    +0.000 HD
ENDBRANCH  15  22
ENDBRANCH  14  18
ENDBRANCH   1  14
TORSDOF 5
ENDMDL
MODEL 8
REMARK VINA RESULT:    -6.507      4.476      7.913
REMARK INTER + INTRA:          -9.276
REMARK INTER:                  -8.563
REMARK INTRA:                  -0.713
REMARK UNBOUND:                -0.868
REMARK  Name = 
REMARK  5 active torsions:
REMARK  status: ('A' for Active; 'I' for Inactive)
REMARK    1  A    between atoms: C_2  and  C_4
REMARK    2  A    between atoms: C_7  and  O_8
REMARK    3  A    between atoms: O_8  and  C_9
REMARK    4  A    between atoms: C_9  and  C_10
REMARK    5  A    between atoms: C_14  and  N_15
REMARK                            x       y       z     vdW  Elec       q    Type
REMARK                         _______ _______ _______ _____ _____    ______ ____
ROOT
ATOM      1  C   UNL     1      48.724   6.514  15.624  0.00  0.00    +0.000 C 
ENDROOT
BRANCH   1   2
ATOM      2  C   UNL     1      47.954   6.390  14.335  0.00  0.00    +0.000 A 
ATOM      3  C   UNL     1      48.365   7.128  13.230  0.00  0.00    +0.000 A 
ATOM      4  N   UNL     1      47.770   7.081  12.023  0.00  0.00    +0.000 NA
ATOM      5  C   UNL     1      46.703   6.254  11.915  0.00  0.00    +0.000 A 
ATOM      6  C   UNL     1      46.175   5.456  12.937  0.00  0.00    +0.000 A 
ATOM      7  C   UNL     1      46.840   5.555  14.166  0.00  0.00    +0.000 A 
BRANCH   6   8
ATOM      8  N   UNL     1      45.087   4.636  12.749  0.00  0.00    +0.000 N 
ATOM      9  C   UNL     1      45.178   3.292  12.165  0.00  0.00    +0.000 C 
ATOM     10  C   UNL     1      44.274   3.189  10.929  0.00  0.00    +0.000 C 
ATOM     11  O   UNL     1      42.922   3.579  11.229  0.00  0.00    +0.000 OA
ATOM     12  C   UNL     1      42.887   4.936  11.702  0.00  0.00    +0.000 C 
ATOM     13  C   UNL     1      43.716   5.111  12.987  0.00  0.00    +0.000 C 
ENDBRANCH   6   8
ENDBRANCH   1   2
BRANCH   1  14
ATOM     14  O   UNL     1      48.288   5.570  16.603  0.00  0.00    +0.000 OA
BRANCH  14  18
ATOM     15  C   UNL     1      50.978   2.473  17.380  0.00  0.00    +0.000 A 
ATOM     16  C   UNL     1      49.689   2.141  16.950  0.00  0.00    +0.000 A 
ATOM     17  C   UNL     1      48.755   3.150  16.679  0.00  0.00    +0.000 A 
ATOM     18  C   UNL     1      49.103   4.494  16.834  0.00  0.00    +0.000 A 
ATOM     19  C   UNL     1      50.391   4.820  17.268  0.00  0.00    +0.000 A 
ATOM     20  C   UNL     1      51.324   3.817  17.546  0.00  0.00    +0.000 A 
BRANCH  15  22
ATOM     21  N   UNL     1      51.526   0.230  18.160  0.00  0.00    +0.000 N 
ATOM     22  C   UNL     1      51.988   1.434  17.707  0.00  0.00    +0.000 C 
ATOM     23  O   UNL     1      53.186   1.630  17.547  0.00  0.00    +0.000 OA
ATOM     24  H   UNL     1      52.221  -0.497  18.273  0.00  0.00    +0.000 HD
ATOM     25  H   UNL     1      50.564  -0.055  18.050  0.00  0.00    +0.000 HD
ENDBRANCH  15  22
ENDBRANCH  14  18
ENDBRANCH   1  14
TORSDOF 5
ENDMDL
MODEL 9
REMARK VINA RESULT:    -6.178      3.753      8.186
REMARK INTER + INTRA:          -8.852
REMARK INTER:                  -8.138
REMARK INTRA:                  -0.714
REMARK UNBOUND:                -0.868
REMARK  Name = 
REMARK  5 active torsions:
REMARK  status: ('A' for Active; 'I' for Inactive)
REMARK    1  A    between atoms: C_2  and  C_4
REMARK    2  A    between atoms: C_7  and  O_8
REMARK    3  A    between atoms: O_8  and  C_9
REMARK    4  A    between atoms: C_9  and  C_10
REMARK    5  A    between atoms: C_14  and  N_15
REMARK                            x       y       z     vdW  Elec       q    Type
REMARK                         _______ _______ _______ _____ _____    ______ ____
ROOT
ATOM      1  C   UNL     1      48.003   6.869  13.705  0.00  0.00    +0.000 C 
ENDROOT
BRANCH   1   2
ATOM      2  C   UNL     1      46.733   7.034  12.912  0.00  0.00    +0.000 A 
ATOM      3  C   UNL     1      46.320   8.313  12.558  0.00  0.00    +0.000 A 
ATOM      4  N   UNL     1      45.217   8.580  11.832  0.00  0.00    +0.000 NA
ATOM      5  C   UNL     1      44.484   7.510  11.443  0.00  0.00    +0.000 A 
ATOM      6  C   UNL     1      44.773   6.170  11.727  0.00  0.00    +0.000 A 
ATOM      7  C   UNL     1      45.931   5.964  12.486  0.00  0.00    +0.000 A 
BRANCH   6   8
ATOM      8  N   UNL     1      43.980   5.134  11.293  0.00  0.00    +0.000 N 
ATOM      9  C   UNL     1      43.090   4.369  12.176  0.00  0.00    +0.000 C 
ATOM     10  C   UNL     1      43.437   2.876  12.113  0.00  0.00    +0.000 C 
ATOM     11  O   UNL     1      43.434   2.389  10.759  0.00  0.00    +0.000 OA
ATOM     12  C   UNL     1      44.395   3.109   9.968  0.00  0.00    +0.000 C 
ATOM     13  C   UNL     1      44.077   4.614   9.920  0.00  0.00    +0.000 C 
ENDBRANCH   6   8
ENDBRANCH   1   2
BRANCH   1  14
ATOM     14  O   UNL     1      48.179   5.529  14.166  0.00  0.00    +0.000 OA
BRANCH  14  18
ATOM     15  C   UNL     1      48.147   5.143  18.323  0.00  0.00    +0.000 A 
ATOM     16  C   UNL     1      47.448   4.199  17.563  0.00  0.00    +0.000 A 
ATOM     17  C   UNL     1      47.432   4.293  16.165  0.00  0.00    +0.000 A 
ATOM     18  C   UNL     1      48.116   5.326  15.519  0.00  0.00    +0.000 A 
ATOM     19  C   UNL     1      48.809   6.269  16.284  0.00  0.00    +0.000 A 
ATOM     20  C   UNL     1      48.821   6.184  17.679  0.00  0.00    +0.000 A 
BRANCH  15  22
ATOM     21  N   UNL     1      48.502   3.912  20.396  0.00  0.00    +0.000 N 
ATOM     22  C   UNL     1      48.163   5.098  19.808  0.00  0.00    +0.000 C 
ATOM     23  O   UNL     1      47.916   6.089  20.483  0.00  0.00    +0.000 OA
ATOM     24  H   UNL     1      48.613   3.931  21.402  0.00  0.00    +0.000 HD
ATOM     25  H   UNL     1      48.963   3.170  19.889  0.00  0.00    +0.000 HD
ENDBRANCH  15  22
ENDBRANCH  14  18
ENDBRANCH   1  14
TORSDOF 5
ENDMDL
