MODEL 1
REMARK VINA RESULT:    -7.653      0.000      0.000
REMARK INTER + INTRA:          -9.818
REMARK INTER:                  -9.666
REMARK INTRA:                  -0.152
REMARK UNBOUND:                -0.152
REMARK  Name = 
REMARK  5 active torsions:
REMARK  status: ('A' for Active; 'I' for Inactive)
REMARK    1  A    between atoms: N_1  and  C_2
REMARK    2  A    between atoms: C_2  and  C_3
REMARK    3  A    between atoms: C_6  and  C_7
REMARK    4  A    between atoms: C_7  and  N_8
REMARK    5  A    between atoms: C_13  and  C_14
REMARK                            x       y       z     vdW  Elec       q    Type
REMARK                         _______ _______ _______ _____ _____    ______ ____
ROOT
ATOM      1  N   UNL     1      44.124   4.362  10.397  0.00  0.00    +0.000 N 
ATOM      2  C   UNL     1      43.608   3.238  10.994  0.00  0.00    +0.000 A 
ATOM      3  C   UNL     1      44.147   2.138  10.361  0.00  0.00    +0.000 A 
ATOM      4  C   UNL     1      45.025   2.608   9.350  0.00  0.00    +0.000 A 
ATOM      5  C   UNL     1      45.819   2.007   8.354  0.00  0.00    +0.000 A 
ATOM      6  C   UNL     1      46.547   2.847   7.502  0.00  0.00    +0.000 A 
ATOM      7  C   UNL     1      46.488   4.222   7.721  0.00  0.00    +0.000 A 
ATOM      8  N   UNL     1      45.758   4.848   8.680  0.00  0.00    +0.000 NA
ATOM      9  C   UNL     1      45.035   3.999   9.435  0.00  0.00    +0.000 A 
ENDROOT
BRANCH   6  10
ATOM     10  C   UNL     1      47.361   2.361   6.363  0.00  0.00    +0.000 C 
ATOM     11  N   UNL     1      47.252   2.999   5.157  0.00  0.00    +0.000 N 
ATOM     12  O   UNL     1      48.132   1.416   6.485  0.00  0.00    +0.000 OA
ATOM     13  H   UNL     1      46.674   3.800   4.969  0.00  0.00    +0.000 HD
ATOM     14  H   UNL     1      47.850   2.664   4.411  0.00  0.00    +0.000 HD
ENDBRANCH   6  10
BRANCH   1  15
ATOM     15  C   UNL     1      43.759   5.729  10.733  0.00  0.00    +0.000 C 
BRANCH  15  19
ATOM     16  C   UNL     1      47.017   7.195  13.265  0.00  0.00    +0.000 C 
ATOM     17  C   UNL     1      45.883   8.177  12.945  0.00  0.00    +0.000 C 
ATOM     18  C   UNL     1      44.984   7.693  11.811  0.00  0.00    +0.000 C 
ATOM     19  C   UNL     1      44.431   6.271  12.018  0.00  0.00    +0.000 C 
ATOM     20  C   UNL     1      45.524   5.284  12.468  0.00  0.00    +0.000 C 
ATOM     21  C   UNL     1      46.399   5.829  13.598  0.00  0.00    +0.000 C 
BRANCH  16  22
ATOM     22  C   UNL     1      48.069   7.070  12.142  0.00  0.00    +0.000 C 
BRANCH  22  23
ATOM     23  N   UNL     1      49.360   6.608  12.638  0.00  0.00    +0.000 NA
ATOM     24  H   UNL     1      49.367   5.589  12.664  0.00  0.00    +0.000 HD
ATOM     25  H   UNL     1      49.497   6.923  13.595  0.00  0.00    +0.000 HD
ENDBRANCH  22  23
ENDBRANCH  16  22
ENDBRANCH  15  19
ENDBRANCH   1  15
TORSDOF 5
ENDMDL
MODEL 2
REMARK VINA RESULT:    -6.378      4.126      5.862
REMARK INTER + INTRA:          -8.208
REMARK INTER:                  -7.819
REMARK INTRA:                  -0.389
REMARK UNBOUND:                -0.152
REMARK  Name = 
REMARK  5 active torsions:
REMARK  status: ('A' for Active; 'I' for Inactive)
REMARK    1  A    between atoms: N_1  and  C_2
REMARK    2  A    between atoms: C_2  and  C_3
REMARK    3  A    between atoms: C_6  and  C_7
REMARK    4  A    between atoms: C_7  and  N_8
REMARK    5  A    between atoms: C_13  and  C_14
REMARK                            x       y       z     vdW  Elec       q    Type
REMARK                         _______ _______ _______ _____ _____    ______ ____
ROOT
ATOM      1  N   UNL     1      47.247   5.388  14.255  0.00  0.00    +0.000 N 
ATOM      2  C   UNL     1      47.622   6.654  13.879  0.00  0.00    +0.000 A 
ATOM      3  C   UNL     1      47.066   6.910  12.643  0.00  0.00    +0.000 A 
ATOM      4  C   UNL     1      46.323   5.764  12.258  0.00  0.00    +0.000 A 
ATOM      5  C   UNL     1      45.585   5.386  11.120  0.00  0.00    +0.000 A 
ATOM      6  C   UNL     1      45.002   4.113  11.112  0.00  0.00    +0.000 A 
ATOM      7  C   UNL     1      45.139   3.316  12.247  0.00  0.00    +0.000 A 
ATOM      8  N   UNL     1      45.820   3.643  13.375  0.00  0.00    +0.000 NA
ATOM      9  C   UNL     1      46.406   4.854  13.308  0.00  0.00    +0.000 A 
ENDROOT
BRANCH   6  10
ATOM     10  C   UNL     1      44.265   3.550   9.955  0.00  0.00    +0.000 C 
ATOM     11  N   UNL     1      44.039   4.349   8.868  0.00  0.00    +0.000 N 
ATOM     12  O   UNL     1      43.871   2.390   9.951  0.00  0.00    +0.000 OA
ATOM     13  H   UNL     1      44.351   5.301   8.765  0.00  0.00    +0.000 HD
ATOM     14  H   UNL     1      43.565   3.922   8.081  0.00  0.00    +0.000 HD
ENDBRANCH   6  10
BRANCH   1  15
ATOM     15  C   UNL     1      47.677   4.716  15.470  0.00  0.00    +0.000 C 
BRANCH  15  19
ATOM     16  C   UNL     1      49.013   5.867  19.479  0.00  0.00    +0.000 C 
ATOM     17  C   UNL     1      49.794   6.440  18.289  0.00  0.00    +0.000 C 
ATOM     18  C   UNL     1      49.472   5.734  16.976  0.00  0.00    +0.000 C 
ATOM     19  C   UNL     1      47.967   5.666  16.657  0.00  0.00    +0.000 C 
ATOM     20  C   UNL     1      47.137   5.218  17.875  0.00  0.00    +0.000 C 
ATOM     21  C   UNL     1      47.513   5.952  19.163  0.00  0.00    +0.000 C 
BRANCH  16  22
ATOM     22  C   UNL     1      49.421   4.426  19.857  0.00  0.00    +0.000 C 
BRANCH  22  23
ATOM     23  N   UNL     1      48.455   3.790  20.745  0.00  0.00    +0.000 NA
ATOM     24  H   UNL     1      48.061   4.489  21.373  0.00  0.00    +0.000 HD
ATOM     25  H   UNL     1      48.923   3.104  21.332  0.00  0.00    +0.000 HD
ENDBRANCH  22  23
ENDBRANCH  16  22
ENDBRANCH  15  19
ENDBRANCH   1  15
TORSDOF 5
ENDMDL
MODEL 3
REMARK VINA RESULT:    -6.334      4.518      8.195
REMARK INTER + INTRA:          -8.152
REMARK INTER:                  -7.606
REMARK INTRA:                  -0.547
REMARK UNBOUND:                -0.152
REMARK  Name = 
REMARK  5 active torsions:
REMARK  status: ('A' for Active; 'I' for Inactive)
REMARK    1  A    between atoms: N_1  and  C_2
REMARK    2  A    between atoms: C_2  and  C_3
REMARK    3  A    between atoms: C_6  and  C_7
REMARK    4  A    between atoms: C_7  and  N_8
REMARK    5  A    between atoms: C_13  and  C_14
REMARK                            x       y       z     vdW  Elec       q    Type
REMARK                         _______ _______ _______ _____ _____    ______ ____
ROOT
ATOM      1  N   UNL     1      47.864   6.252  14.050  0.00  0.00    +0.000 N 
ATOM      2  C   UNL     1      48.276   7.562  14.084  0.00  0.00    +0.000 A 
ATOM      3  C   UNL     1      48.725   7.831  15.360  0.00  0.00    +0.000 A 
ATOM      4  C   UNL     1      48.588   6.644  16.126  0.00  0.00    +0.000 A 
ATOM      5  C   UNL     1      48.815   6.287  17.469  0.00  0.00    +0.000 A 
ATOM      6  C   UNL     1      48.518   4.974  17.856  0.00  0.00    +0.000 A 
ATOM      7  C   UNL     1      48.067   4.084  16.883  0.00  0.00    +0.000 A 
ATOM      8  N   UNL     1      47.855   4.372  15.574  0.00  0.00    +0.000 NA
ATOM      9  C   UNL     1      48.103   5.660  15.267  0.00  0.00    +0.000 A 
ENDROOT
BRANCH   6  10
ATOM     10  C   UNL     1      48.632   4.480  19.249  0.00  0.00    +0.000 C 
ATOM     11  N   UNL     1      48.393   3.156  19.499  0.00  0.00    +0.000 N 
ATOM     12  O   UNL     1      48.948   5.226  20.168  0.00  0.00    +0.000 OA
ATOM     13  H   UNL     1      48.161   2.462  18.807  0.00  0.00    +0.000 HD
ATOM     14  H   UNL     1      48.517   2.845  20.455  0.00  0.00    +0.000 HD
ENDBRANCH   6  10
BRANCH   1  15
ATOM     15  C   UNL     1      47.265   5.595  12.900  0.00  0.00    +0.000 C 
BRANCH  15  19
ATOM     16  C   UNL     1      43.162   4.690  11.664  0.00  0.00    +0.000 C 
ATOM     17  C   UNL     1      43.453   4.706  13.171  0.00  0.00    +0.000 C 
ATOM     18  C   UNL     1      44.945   4.700  13.485  0.00  0.00    +0.000 C 
ATOM     19  C   UNL     1      45.738   5.808  12.767  0.00  0.00    +0.000 C 
ATOM     20  C   UNL     1      45.372   5.906  11.273  0.00  0.00    +0.000 C 
ATOM     21  C   UNL     1      43.864   5.895  11.021  0.00  0.00    +0.000 C 
BRANCH  16  22
ATOM     22  C   UNL     1      43.566   3.374  10.965  0.00  0.00    +0.000 C 
BRANCH  22  23
ATOM     23  N   UNL     1      43.036   2.198  11.645  0.00  0.00    +0.000 NA
ATOM     24  H   UNL     1      42.311   1.772  11.069  0.00  0.00    +0.000 HD
ATOM     25  H   UNL     1      42.590   2.473  12.516  0.00  0.00    +0.000 HD
ENDBRANCH  22  23
ENDBRANCH  16  22
ENDBRANCH  15  19
ENDBRANCH   1  15
TORSDOF 5
ENDMDL
MODEL 4
REMARK VINA RESULT:    -6.069      1.514      2.034
REMARK INTER + INTRA:          -7.817
REMARK INTER:                  -8.069
REMARK INTRA:                   0.252
REMARK UNBOUND:                -0.152
REMARK  Name = 
REMARK  5 active torsions:
REMARK  status: ('A' for Active; 'I' for Inactive)
REMARK    1  A    between atoms: N_1  and  C_2
REMARK    2  A    between atoms: C_2  and  C_3
REMARK    3  A    between atoms: C_6  and  C_7
REMARK    4  A    between atoms: C_7  and  N_8
REMARK    5  A    between atoms: C_13  and  C_14
REMARK                            x       y       z     vdW  Elec       q    Type
REMARK                         _______ _______ _______ _____ _____    ______ ____
ROOT
ATOM      1  N   UNL     1      44.186   4.994  11.087  0.00  0.00    +0.000 N 
ATOM      2  C   UNL     1      43.567   3.994  11.796  0.00  0.00    +0.000 A 
ATOM      3  C   UNL     1      43.824   2.800  11.154  0.00  0.00    +0.000 A 
ATOM      4  C   UNL     1      44.630   3.084  10.020  0.00  0.00    +0.000 A 
ATOM      5  C   UNL     1      45.172   2.328   8.964  0.00  0.00    +0.000 A 
ATOM      6  C   UNL     1      45.916   3.006   7.990  0.00  0.00    +0.000 A 
ATOM      7  C   UNL     1      46.122   4.375   8.149  0.00  0.00    +0.000 A 
ATOM      8  N   UNL     1      45.641   5.143   9.160  0.00  0.00    +0.000 NA
ATOM      9  C   UNL     1      44.888   4.452  10.038  0.00  0.00    +0.000 A 
ENDROOT
BRANCH   6  10
ATOM     10  C   UNL     1      46.480   2.356   6.782  0.00  0.00    +0.000 C 
ATOM     11  N   UNL     1      47.064   1.125   6.910  0.00  0.00    +0.000 N 
ATOM     12  O   UNL     1      46.420   2.890   5.681  0.00  0.00    +0.000 OA
ATOM     13  H   UNL     1      47.131   0.594   7.762  0.00  0.00    +0.000 HD
ATOM     14  H   UNL     1      47.405   0.694   6.059  0.00  0.00    +0.000 HD
ENDBRANCH   6  10
BRANCH   1  15
ATOM     15  C   UNL     1      44.106   6.412  11.401  0.00  0.00    +0.000 C 
BRANCH  15  19
ATOM     16  C   UNL     1      47.606   8.609  12.850  0.00  0.00    +0.000 C 
ATOM     17  C   UNL     1      47.855   7.231  12.223  0.00  0.00    +0.000 C 
ATOM     18  C   UNL     1      46.575   6.418  12.056  0.00  0.00    +0.000 C 
ATOM     19  C   UNL     1      45.456   7.163  11.306  0.00  0.00    +0.000 C 
ATOM     20  C   UNL     1      45.269   8.601  11.826  0.00  0.00    +0.000 C 
ATOM     21  C   UNL     1      46.586   9.361  11.983  0.00  0.00    +0.000 C 
BRANCH  16  22
ATOM     22  C   UNL     1      47.148   8.550  14.324  0.00  0.00    +0.000 C 
BRANCH  22  23
ATOM     23  N   UNL     1      47.890   9.473  15.175  0.00  0.00    +0.000 NA
ATOM     24  H   UNL     1      48.884   9.408  14.957  0.00  0.00    +0.000 HD
ATOM     25  H   UNL     1      47.789   9.203  16.150  0.00  0.00    +0.000 HD
ENDBRANCH  22  23
ENDBRANCH  16  22
ENDBRANCH  15  19
ENDBRANCH   1  15
TORSDOF 5
ENDMDL
MODEL 5
REMARK VINA RESULT:    -5.962      3.723      5.947
REMARK INTER + INTRA:          -7.681
REMARK INTER:                  -7.187
REMARK INTRA:                  -0.494
REMARK UNBOUND:                -0.152
REMARK  Name = 
REMARK  5 active torsions:
REMARK  status: ('A' for Active; 'I' for Inactive)
REMARK    1  A    between atoms: N_1  and  C_2
REMARK    2  A    between atoms: C_2  and  C_3
REMARK    3  A    between atoms: C_6  and  C_7
REMARK    4  A    between atoms: C_7  and  N_8
REMARK    5  A    between atoms: C_13  and  C_14
REMARK                            x       y       z     vdW  Elec       q    Type
REMARK                         _______ _______ _______ _____ _____    ______ ____
ROOT
ATOM      1  N   UNL     1      47.511   7.202  13.733  0.00  0.00    +0.000 N 
ATOM      2  C   UNL     1      47.089   8.508  13.699  0.00  0.00    +0.000 A 
ATOM      3  C   UNL     1      45.917   8.554  12.972  0.00  0.00    +0.000 A 
ATOM      4  C   UNL     1      45.614   7.231  12.557  0.00  0.00    +0.000 A 
ATOM      5  C   UNL     1      44.611   6.635  11.770  0.00  0.00    +0.000 A 
ATOM      6  C   UNL     1      44.678   5.251  11.563  0.00  0.00    +0.000 A 
ATOM      7  C   UNL     1      45.698   4.538  12.189  0.00  0.00    +0.000 A 
ATOM      8  N   UNL     1      46.674   5.062  12.975  0.00  0.00    +0.000 NA
ATOM      9  C   UNL     1      46.594   6.401  13.095  0.00  0.00    +0.000 A 
ENDROOT
BRANCH   6  10
ATOM     10  C   UNL     1      43.739   4.500  10.695  0.00  0.00    +0.000 C 
ATOM     11  N   UNL     1      43.845   4.637   9.338  0.00  0.00    +0.000 N 
ATOM     12  O   UNL     1      42.888   3.756  11.168  0.00  0.00    +0.000 OA
ATOM     13  H   UNL     1      44.530   5.196   8.857  0.00  0.00    +0.000 HD
ATOM     14  H   UNL     1      43.212   4.081   8.775  0.00  0.00    +0.000 HD
ENDBRANCH   6  10
BRANCH   1  15
ATOM     15  C   UNL     1      48.744   6.739  14.350  0.00  0.00    +0.000 C 
BRANCH  15  19
ATOM     16  C   UNL     1      49.595   4.945  18.254  0.00  0.00    +0.000 C 
ATOM     17  C   UNL     1      50.074   6.385  18.025  0.00  0.00    +0.000 C 
ATOM     18  C   UNL     1      50.029   6.797  16.557  0.00  0.00    +0.000 C 
ATOM     19  C   UNL     1      48.662   6.565  15.886  0.00  0.00    +0.000 C 
ATOM     20  C   UNL     1      48.090   5.170  16.204  0.00  0.00    +0.000 C 
ATOM     21  C   UNL     1      48.174   4.810  17.688  0.00  0.00    +0.000 C 
BRANCH  16  22
ATOM     22  C   UNL     1      50.535   3.874  17.659  0.00  0.00    +0.000 C 
BRANCH  22  23
ATOM     23  N   UNL     1      50.036   2.520  17.867  0.00  0.00    +0.000 NA
ATOM     24  H   UNL     1      49.016   2.532  17.876  0.00  0.00    +0.000 HD
ATOM     25  H   UNL     1      50.329   2.178  18.779  0.00  0.00    +0.000 HD
ENDBRANCH  22  23
ENDBRANCH  16  22
ENDBRANCH  15  19
ENDBRANCH   1  15
TORSDOF 5
ENDMDL
MODEL 6
REMARK VINA RESULT:    -5.908      3.077      5.013
REMARK INTER + INTRA:          -7.614
REMARK INTER:                  -7.385
REMARK INTRA:                  -0.229
REMARK UNBOUND:                -0.152
REMARK  Name = 
REMARK  5 active torsions:
REMARK  status: ('A' for Active; 'I' for Inactive)
REMARK    1  A    between atoms: N_1  and  C_2
REMARK    2  A    between atoms: C_2  and  C_3
REMARK    3  A    between atoms: C_6  and  C_7
REMARK    4  A    between atoms: C_7  and  N_8
REMARK    5  A    between atoms: C_13  and  C_14
REMARK                            x       y       z     vdW  Elec       q    Type
REMARK                         _______ _______ _______ _____ _____    ______ ____
ROOT
ATOM      1  N   UNL     1      47.103   6.893  13.049  0.00  0.00    +0.000 N 
ATOM      2  C   UNL     1      47.635   6.333  14.185  0.00  0.00    +0.000 A 
ATOM      3  C   UNL     1      47.207   5.023  14.250  0.00  0.00    +0.000 A 
ATOM      4  C   UNL     1      46.394   4.777  13.113  0.00  0.00    +0.000 A 
ATOM      5  C   UNL     1      45.641   3.686  12.639  0.00  0.00    +0.000 A 
ATOM      6  C   UNL     1      44.926   3.854  11.446  0.00  0.00    +0.000 A 
ATOM      7  C   UNL     1      45.043   5.068  10.771  0.00  0.00    +0.000 A 
ATOM      8  N   UNL     1      45.773   6.139  11.174  0.00  0.00    +0.000 NA
ATOM      9  C   UNL     1      46.394   5.944  12.353  0.00  0.00    +0.000 A 
ENDROOT
BRANCH   6  10
ATOM     10  C   UNL     1      44.031   2.823  10.868  0.00  0.00    +0.000 C 
ATOM     11  N   UNL     1      44.450   2.132   9.764  0.00  0.00    +0.000 N 
ATOM     12  O   UNL     1      42.940   2.572  11.367  0.00  0.00    +0.000 OA
ATOM     13  H   UNL     1      45.339   2.243   9.306  0.00  0.00    +0.000 HD
ATOM     14  H   UNL     1      43.830   1.410   9.419  0.00  0.00    +0.000 HD
ENDBRANCH   6  10
BRANCH   1  15
ATOM     15  C   UNL     1      47.265   8.281  12.649  0.00  0.00    +0.000 C 
BRANCH  15  19
ATOM     16  C   UNL     1      51.440   9.018  11.552  0.00  0.00    +0.000 C 
ATOM     17  C   UNL     1      50.812   7.703  11.073  0.00  0.00    +0.000 C 
ATOM     18  C   UNL     1      49.492   7.390  11.770  0.00  0.00    +0.000 C 
ATOM     19  C   UNL     1      48.467   8.537  11.707  0.00  0.00    +0.000 C 
ATOM     20  C   UNL     1      49.098   9.898  12.057  0.00  0.00    +0.000 C 
ATOM     21  C   UNL     1      50.424  10.149  11.337  0.00  0.00    +0.000 C 
BRANCH  16  22
ATOM     22  C   UNL     1      51.928   8.980  13.016  0.00  0.00    +0.000 C 
BRANCH  22  23
ATOM     23  N   UNL     1      53.048   8.065  13.206  0.00  0.00    +0.000 NA
ATOM     24  H   UNL     1      53.123   7.450  12.396  0.00  0.00    +0.000 HD
ATOM     25  H   UNL     1      52.874   7.466  14.009  0.00  0.00    +0.000 HD
ENDBRANCH  22  23
ENDBRANCH  16  22
ENDBRANCH  15  19
ENDBRANCH   1  15
TORSDOF 5
ENDMDL
MODEL 7
REMARK VINA RESULT:    -5.769      4.030      6.104
REMARK INTER + INTRA:          -7.438
REMARK INTER:                  -7.129
REMARK INTRA:                  -0.308
REMARK UNBOUND:                -0.152
REMARK  Name = 
REMARK  5 active torsions:
REMARK  status: ('A' for Active; 'I' for Inactive)
REMARK    1  A    between atoms: N_1  and  C_2
REMARK    2  A    between atoms: C_2  and  C_3
REMARK    3  A    between atoms: C_6  and  C_7
REMARK    4  A    between atoms: C_7  and  N_8
REMARK    5  A    between atoms: C_13  and  C_14
REMARK                            x       y       z     vdW  Elec       q    Type
REMARK                         _______ _______ _______ _____ _____    ______ ____
ROOT
ATOM      1  N   UNL     1      47.639   6.729  13.948  0.00  0.00    +0.000 N 
ATOM      2  C   UNL     1      48.268   7.521  13.018  0.00  0.00    +0.000 A 
ATOM      3  C   UNL     1      47.750   7.210  11.779  0.00  0.00    +0.000 A 
ATOM      4  C   UNL     1      46.769   6.200  11.961  0.00  0.00    +0.000 A 
ATOM      5  C   UNL     1      45.939   5.445  11.111  0.00  0.00    +0.000 A 
ATOM      6  C   UNL     1      45.097   4.491  11.696  0.00  0.00    +0.000 A 
ATOM      7  C   UNL     1      45.088   4.381  13.085  0.00  0.00    +0.000 A 
ATOM      8  N   UNL     1      45.851   5.100  13.949  0.00  0.00    +0.000 NA
ATOM      9  C   UNL     1      46.681   5.962  13.331  0.00  0.00    +0.000 A 
ENDROOT
BRANCH   6  10
ATOM     10  C   UNL     1      44.228   3.572  10.922  0.00  0.00    +0.000 C 
ATOM     11  N   UNL     1      44.815   2.613  10.143  0.00  0.00    +0.000 N 
ATOM     12  O   UNL     1      43.006   3.648  10.980  0.00  0.00    +0.000 OA
ATOM     13  H   UNL     1      45.804   2.452  10.058  0.00  0.00    +0.000 HD
ATOM     14  H   UNL     1      44.191   1.979   9.658  0.00  0.00    +0.000 HD
ENDBRANCH   6  10
BRANCH   1  15
ATOM     15  C   UNL     1      47.946   6.707  15.369  0.00  0.00    +0.000 C 
BRANCH  15  19
ATOM     16  C   UNL     1      49.585   3.801  18.205  0.00  0.00    +0.000 C 
ATOM     17  C   UNL     1      48.552   3.287  17.194  0.00  0.00    +0.000 C 
ATOM     18  C   UNL     1      47.808   4.414  16.485  0.00  0.00    +0.000 C 
ATOM     19  C   UNL     1      48.733   5.458  15.833  0.00  0.00    +0.000 C 
ATOM     20  C   UNL     1      49.864   5.900  16.781  0.00  0.00    +0.000 C 
ATOM     21  C   UNL     1      50.564   4.729  17.470  0.00  0.00    +0.000 C 
BRANCH  16  22
ATOM     22  C   UNL     1      48.963   4.507  19.430  0.00  0.00    +0.000 C 
BRANCH  22  23
ATOM     23  N   UNL     1      48.361   3.567  20.368  0.00  0.00    +0.000 NA
ATOM     24  H   UNL     1      47.910   4.084  21.122  0.00  0.00    +0.000 HD
ATOM     25  H   UNL     1      49.085   2.997  20.799  0.00  0.00    +0.000 HD
ENDBRANCH  22  23
ENDBRANCH  16  22
ENDBRANCH  15  19
ENDBRANCH   1  15
TORSDOF 5
ENDMDL
MODEL 8
REMARK VINA RESULT:    -5.522      4.661      6.591
REMARK INTER + INTRA:          -7.127
REMARK INTER:                  -6.657
REMARK INTRA:                  -0.470
REMARK UNBOUND:                -0.152
REMARK  Name = 
REMARK  5 active torsions:
REMARK  status: ('A' for Active; 'I' for Inactive)
REMARK    1  A    between atoms: N_1  and  C_2
REMARK    2  A    between atoms: C_2  and  C_3
REMARK    3  A    between atoms: C_6  and  C_7
REMARK    4  A    between atoms: C_7  and  N_8
REMARK    5  A    between atoms: C_13  and  C_14
REMARK                            x       y       z     vdW  Elec       q    Type
REMARK                         _______ _______ _______ _____ _____    ______ ____
ROOT
ATOM      1  N   UNL     1      46.238   4.806  13.499  0.00  0.00    +0.000 N 
ATOM      2  C   UNL     1      45.074   4.164  13.150  0.00  0.00    +0.000 A 
ATOM      3  C   UNL     1      44.222   5.101  12.605  0.00  0.00    +0.000 A 
ATOM      4  C   UNL     1      44.892   6.353  12.616  0.00  0.00    +0.000 A 
ATOM      5  C   UNL     1      44.555   7.671  12.255  0.00  0.00    +0.000 A 
ATOM      6  C   UNL     1      45.517   8.670  12.452  0.00  0.00    +0.000 A 
ATOM      7  C   UNL     1      46.767   8.296  12.942  0.00  0.00    +0.000 A 
ATOM      8  N   UNL     1      47.148   7.038  13.283  0.00  0.00    +0.000 NA
ATOM      9  C   UNL     1      46.168   6.127  13.126  0.00  0.00    +0.000 A 
ENDROOT
BRANCH   6  10
ATOM     10  C   UNL     1      45.277  10.110  12.192  0.00  0.00    +0.000 C 
ATOM     11  N   UNL     1      46.352  10.953  12.122  0.00  0.00    +0.000 N 
ATOM     12  O   UNL     1      44.146  10.549  12.025  0.00  0.00    +0.000 OA
ATOM     13  H   UNL     1      47.317  10.682  12.212  0.00  0.00    +0.000 HD
ATOM     14  H   UNL     1      46.154  11.923  11.906  0.00  0.00    +0.000 HD
ENDBRANCH   6  10
BRANCH   1  15
ATOM     15  C   UNL     1      47.369   4.180  14.164  0.00  0.00    +0.000 C 
BRANCH  15  19
ATOM     16  C   UNL     1      49.011   4.182  18.224  0.00  0.00    +0.000 C 
ATOM     17  C   UNL     1      48.456   5.510  17.692  0.00  0.00    +0.000 C 
ATOM     18  C   UNL     1      48.219   5.490  16.186  0.00  0.00    +0.000 C 
ATOM     19  C   UNL     1      47.354   4.309  15.706  0.00  0.00    +0.000 C 
ATOM     20  C   UNL     1      47.805   2.973  16.327  0.00  0.00    +0.000 C 
ATOM     21  C   UNL     1      48.038   3.058  17.836  0.00  0.00    +0.000 C 
BRANCH  16  22
ATOM     22  C   UNL     1      50.444   3.866  17.743  0.00  0.00    +0.000 C 
BRANCH  22  23
ATOM     23  N   UNL     1      50.855   2.507  18.073  0.00  0.00    +0.000 NA
ATOM     24  H   UNL     1      50.037   1.898  18.073  0.00  0.00    +0.000 HD
ATOM     25  H   UNL     1      51.237   2.479  19.014  0.00  0.00    +0.000 HD
ENDBRANCH  22  23
ENDBRANCH  16  22
ENDBRANCH  15  19
ENDBRANCH   1  15
TORSDOF 5
ENDMDL
MODEL 9
REMARK VINA RESULT:    -5.470      5.816      8.724
REMARK INTER + INTRA:          -7.061
REMARK INTER:                  -6.613
REMARK INTRA:                  -0.447
REMARK UNBOUND:                -0.152
REMARK  Name = 
REMARK  5 active torsions:
REMARK  status: ('A' for Active; 'I' for Inactive)
REMARK    1  A    between atoms: N_1  and  C_2
REMARK    2  A    between atoms: C_2  and  C_3
REMARK    3  A    between atoms: C_6  and  C_7
REMARK    4  A    between atoms: C_7  and  N_8
REMARK    5  A    between atoms: C_13  and  C_14
REMARK                            x       y       z     vdW  Elec       q    Type
REMARK                         _______ _______ _______ _____ _____    ______ ____
ROOT
ATOM      1  N   UNL     1      49.003   5.048  16.910  0.00  0.00    +0.000 N 
ATOM      2  C   UNL     1      49.576   6.190  17.413  0.00  0.00    +0.000 A 
ATOM      3  C   UNL     1      50.809   5.851  17.931  0.00  0.00    +0.000 A 
ATOM      4  C   UNL     1      50.994   4.458  17.730  0.00  0.00    +0.000 A 
ATOM      5  C   UNL     1      51.991   3.523  18.064  0.00  0.00    +0.000 A 
ATOM      6  C   UNL     1      51.783   2.186  17.700  0.00  0.00    +0.000 A 
ATOM      7  C   UNL     1      50.631   1.868  16.983  0.00  0.00    +0.000 A 
ATOM      8  N   UNL     1      49.654   2.736  16.616  0.00  0.00    +0.000 NA
ATOM      9  C   UNL     1      49.877   3.995  17.039  0.00  0.00    +0.000 A 
ENDROOT
BRANCH   6  10
ATOM     10  C   UNL     1      52.707   1.081  18.054  0.00  0.00    +0.000 C 
ATOM     11  N   UNL     1      52.179  -0.137  18.383  0.00  0.00    +0.000 N 
ATOM     12  O   UNL     1      53.922   1.236  18.043  0.00  0.00    +0.000 OA
ATOM     13  H   UNL     1      51.199  -0.369  18.388  0.00  0.00    +0.000 HD
ATOM     14  H   UNL     1      52.839  -0.878  18.583  0.00  0.00    +0.000 HD
ENDBRANCH   6  10
BRANCH   1  15
ATOM     15  C   UNL     1      47.672   4.968  16.331  0.00  0.00    +0.000 C 
BRANCH  15  19
ATOM     16  C   UNL     1      46.294   5.974  12.298  0.00  0.00    +0.000 C 
ATOM     17  C   UNL     1      47.714   6.411  12.682  0.00  0.00    +0.000 C 
ATOM     18  C   UNL     1      47.977   6.314  14.182  0.00  0.00    +0.000 C 
ATOM     19  C   UNL     1      47.650   4.935  14.784  0.00  0.00    +0.000 C 
ATOM     20  C   UNL     1      46.282   4.407  14.311  0.00  0.00    +0.000 C 
ATOM     21  C   UNL     1      46.073   4.541  12.803  0.00  0.00    +0.000 C 
BRANCH  16  22
ATOM     22  C   UNL     1      45.189   6.922  12.812  0.00  0.00    +0.000 C 
BRANCH  22  23
ATOM     23  N   UNL     1      43.850   6.428  12.517  0.00  0.00    +0.000 NA
ATOM     24  H   UNL     1      43.768   5.463  12.839  0.00  0.00    +0.000 HD
ATOM     25  H   UNL     1      43.700   6.411  11.512  0.00  0.00    +0.000 HD
ENDBRANCH  22  23
ENDBRANCH  16  22
ENDBRANCH  15  19
ENDBRANCH   1  15
TORSDOF 5
ENDMDL
