MODEL 1
REMARK VINA RESULT:    -8.717      0.000      0.000
REMARK INTER + INTRA:         -11.503
REMARK INTER:                 -10.755
REMARK INTRA:                  -0.748
REMARK UNBOUND:                -0.748
REMARK  Name = 
REMARK  4 active torsions:
REMARK  status: ('A' for Active; 'I' for Inactive)
REMARK    1  A    between atoms: C_2  and  C_4
REMARK    2  A    between atoms: C_7  and  N_8
REMARK    3  A    between atoms: N_8  and  C_9
REMARK    4  A    between atoms: C_9  and  C_10
REMARK                            x       y       z     vdW  Elec       q    Type
REMARK                         _______ _______ _______ _____ _____    ______ ____
ROOT
ATOM      1  N   UNL     1      43.857   5.017   9.653  0.00  0.00    +0.000 N 
ATOM      2  H   UNL     1      42.972   5.131   9.169  0.00  0.00    +0.000 HD
ENDROOT
BRANCH   1   6
ATOM      3  C   UNL     1      46.329   2.065   7.882  0.00  0.00    +0.000 A 
ATOM      4  C   UNL     1      46.477   3.414   7.547  0.00  0.00    +0.000 A 
ATOM      5  C   UNL     1      45.656   4.380   8.148  0.00  0.00    +0.000 A 
ATOM      6  C   UNL     1      44.658   4.011   9.060  0.00  0.00    +0.000 A 
ATOM      7  C   UNL     1      44.542   2.660   9.405  0.00  0.00    +0.000 A 
ATOM      8  C   UNL     1      45.355   1.691   8.810  0.00  0.00    +0.000 A 
BRANCH   3  10
ATOM      9  N   UNL     1      46.881  -0.293   7.611  0.00  0.00    +0.000 N 
ATOM     10  C   UNL     1      47.161   1.000   7.264  0.00  0.00    +0.000 C 
ATOM     11  O   UNL     1      48.036   1.257   6.449  0.00  0.00    +0.000 OA
ATOM     12  H   UNL     1      47.374  -1.007   7.089  0.00  0.00    +0.000 HD
ATOM     13  H   UNL     1      46.011  -0.553   8.051  0.00  0.00    +0.000 HD
ENDBRANCH   3  10
ENDBRANCH   1   6
BRANCH   1  14
ATOM     14  C   UNL     1      43.785   5.154  11.131  0.00  0.00    +0.000 C 
ATOM     15  C   UNL     1      42.644   4.439  11.840  0.00  0.00    +0.000 C 
ATOM     16  C   UNL     1      42.614   5.925  11.736  0.00  0.00    +0.000 C 
BRANCH  14  17
ATOM     17  C   UNL     1      45.125   5.445  11.815  0.00  0.00    +0.000 A 
ATOM     18  C   UNL     1      45.980   6.450  11.319  0.00  0.00    +0.000 A 
ATOM     19  C   UNL     1      47.161   6.807  11.977  0.00  0.00    +0.000 A 
ATOM     20  C   UNL     1      47.518   6.162  13.157  0.00  0.00    +0.000 A 
ATOM     21  C   UNL     1      46.707   5.146  13.652  0.00  0.00    +0.000 A 
ATOM     22 CL   UNL     1      47.129   4.354  15.120  0.00  0.00    +0.000 Cl
ATOM     23  C   UNL     1      45.536   4.782  12.985  0.00  0.00    +0.000 A 
ENDBRANCH  14  17
ENDBRANCH   1  14
TORSDOF 4
ENDMDL
MODEL 2
REMARK VINA RESULT:    -8.573      1.440      1.795
REMARK INTER + INTRA:         -11.326
REMARK INTER:                 -10.656
REMARK INTRA:                  -0.671
REMARK UNBOUND:                -0.748
REMARK  Name = 
REMARK  4 active torsions:
REMARK  status: ('A' for Active; 'I' for Inactive)
REMARK    1  A    between atoms: C_2  and  C_4
REMARK    2  A    between atoms: C_7  and  N_8
REMARK    3  A    between atoms: N_8  and  C_9
REMARK    4  A    between atoms: C_9  and  C_10
REMARK                            x       y       z     vdW  Elec       q    Type
REMARK                         _______ _______ _______ _____ _____    ______ ____
ROOT
ATOM      1  N   UNL     1      44.013   5.008   9.902  0.00  0.00    +0.000 N 
ATOM      2  H   UNL     1      43.112   5.160   9.458  0.00  0.00    +0.000 HD
ENDROOT
BRANCH   1   6
ATOM      3  C   UNL     1      46.521   2.420   7.673  0.00  0.00    +0.000 A 
ATOM      4  C   UNL     1      46.580   3.804   7.488  0.00  0.00    +0.000 A 
ATOM      5  C   UNL     1      45.748   4.648   8.239  0.00  0.00    +0.000 A 
ATOM      6  C   UNL     1      44.826   4.123   9.154  0.00  0.00    +0.000 A 
ATOM      7  C   UNL     1      44.800   2.737   9.347  0.00  0.00    +0.000 A 
ATOM      8  C   UNL     1      45.624   1.889   8.602  0.00  0.00    +0.000 A 
BRANCH   3  10
ATOM      9  N   UNL     1      48.506   1.984   6.328  0.00  0.00    +0.000 N 
ATOM     10  C   UNL     1      47.367   1.480   6.892  0.00  0.00    +0.000 C 
ATOM     11  O   UNL     1      47.085   0.294   6.787  0.00  0.00    +0.000 OA
ATOM     12  H   UNL     1      49.128   1.306   5.907  0.00  0.00    +0.000 HD
ATOM     13  H   UNL     1      48.903   2.865   6.618  0.00  0.00    +0.000 HD
ENDBRANCH   3  10
ENDBRANCH   1   6
BRANCH   1  14
ATOM     14  C   UNL     1      43.975   4.932  11.385  0.00  0.00    +0.000 C 
ATOM     15  C   UNL     1      43.000   3.942  12.006  0.00  0.00    +0.000 C 
ATOM     16  C   UNL     1      42.714   5.401  12.108  0.00  0.00    +0.000 C 
BRANCH  14  17
ATOM     17  C   UNL     1      45.271   5.358  12.082  0.00  0.00    +0.000 A 
ATOM     18  C   UNL     1      45.744   4.655  13.209  0.00  0.00    +0.000 A 
ATOM     19  C   UNL     1      46.973   4.956  13.807  0.00  0.00    +0.000 A 
ATOM     20  C   UNL     1      47.764   5.975  13.286  0.00  0.00    +0.000 A 
ATOM     21  C   UNL     1      47.307   6.704  12.194  0.00  0.00    +0.000 A 
ATOM     22 CL   UNL     1      48.285   7.955  11.531  0.00  0.00    +0.000 Cl
ATOM     23  C   UNL     1      46.074   6.411  11.609  0.00  0.00    +0.000 A 
ENDBRANCH  14  17
ENDBRANCH   1  14
TORSDOF 4
ENDMDL
MODEL 3
REMARK VINA RESULT:    -6.860      3.652      6.426
REMARK INTER + INTRA:          -9.213
REMARK INTER:                  -9.340
REMARK INTRA:                   0.127
REMARK UNBOUND:                -0.748
REMARK  Name = 
REMARK  4 active torsions:
REMARK  status: ('A' for Active; 'I' for Inactive)
REMARK    1  A    between atoms: C_2  and  C_4
REMARK    2  A    between atoms: C_7  and  N_8
REMARK    3  A    between atoms: N_8  and  C_9
REMARK    4  A    between atoms: C_9  and  C_10
REMARK                            x       y       z     vdW  Elec       q    Type
REMARK                         _______ _______ _______ _____ _____    ______ ____
ROOT
ATOM      1  N   UNL     1      44.287   5.276  10.228  0.00  0.00    +0.000 N 
ATOM      2  H   UNL     1      44.088   5.662   9.310  0.00  0.00    +0.000 HD
ENDROOT
BRANCH   1   6
ATOM      3  C   UNL     1      46.636   7.861  12.626  0.00  0.00    +0.000 A 
ATOM      4  C   UNL     1      45.252   7.782  12.807  0.00  0.00    +0.000 A 
ATOM      5  C   UNL     1      44.489   6.916  12.010  0.00  0.00    +0.000 A 
ATOM      6  C   UNL     1      45.089   6.147  11.004  0.00  0.00    +0.000 A 
ATOM      7  C   UNL     1      46.479   6.217  10.855  0.00  0.00    +0.000 A 
ATOM      8  C   UNL     1      47.246   7.079  11.644  0.00  0.00    +0.000 A 
BRANCH   3  10
ATOM      9  N   UNL     1      47.148   8.954  14.744  0.00  0.00    +0.000 N 
ATOM     10  C   UNL     1      47.489   8.774  13.432  0.00  0.00    +0.000 C 
ATOM     11  O   UNL     1      48.480   9.315  12.960  0.00  0.00    +0.000 OA
ATOM     12  H   UNL     1      47.808   9.478  15.304  0.00  0.00    +0.000 HD
ATOM     13  H   UNL     1      46.522   8.325  15.226  0.00  0.00    +0.000 HD
ENDBRANCH   3  10
ENDBRANCH   1   6
BRANCH   1  14
ATOM     14  C   UNL     1      44.519   3.808  10.253  0.00  0.00    +0.000 C 
ATOM     15  C   UNL     1      43.545   2.965  11.063  0.00  0.00    +0.000 C 
ATOM     16  C   UNL     1      44.933   3.157  11.570  0.00  0.00    +0.000 C 
BRANCH  14  17
ATOM     17  C   UNL     1      45.271   3.257   9.038  0.00  0.00    +0.000 A 
ATOM     18  C   UNL     1      45.778   4.128   8.052  0.00  0.00    +0.000 A 
ATOM     19  C   UNL     1      46.554   3.665   6.984  0.00  0.00    +0.000 A 
ATOM     20  C   UNL     1      46.844   2.309   6.876  0.00  0.00    +0.000 A 
ATOM     21  C   UNL     1      46.332   1.425   7.819  0.00  0.00    +0.000 A 
ATOM     22 CL   UNL     1      46.699  -0.253   7.706  0.00  0.00    +0.000 Cl
ATOM     23  C   UNL     1      45.545   1.887   8.875  0.00  0.00    +0.000 A 
ENDBRANCH  14  17
ENDBRANCH   1  14
TORSDOF 4
ENDMDL
MODEL 4
REMARK VINA RESULT:    -6.662      3.641      6.402
REMARK INTER + INTRA:          -8.968
REMARK INTER:                  -8.670
REMARK INTRA:                  -0.298
REMARK UNBOUND:                -0.748
REMARK  Name = 
REMARK  4 active torsions:
REMARK  status: ('A' for Active; 'I' for Inactive)
REMARK    1  A    between atoms: C_2  and  C_4
REMARK    2  A    between atoms: C_7  and  N_8
REMARK    3  A    between atoms: N_8  and  C_9
REMARK    4  A    between atoms: C_9  and  C_10
REMARK                            x       y       z     vdW  Elec       q    Type
REMARK                         _______ _______ _______ _____ _____    ______ ____
ROOT
ATOM      1  N   UNL     1      45.492   3.264  12.306  0.00  0.00    +0.000 N 
ATOM      2  H   UNL     1      45.270   2.658  13.090  0.00  0.00    +0.000 HD
ENDROOT
BRANCH   1   6
ATOM      3  C   UNL     1      47.453   6.794  13.592  0.00  0.00    +0.000 A 
ATOM      4  C   UNL     1      47.502   5.629  14.363  0.00  0.00    +0.000 A 
ATOM      5  C   UNL     1      46.854   4.466  13.920  0.00  0.00    +0.000 A 
ATOM      6  C   UNL     1      46.122   4.460  12.725  0.00  0.00    +0.000 A 
ATOM      7  C   UNL     1      46.106   5.627  11.952  0.00  0.00    +0.000 A 
ATOM      8  C   UNL     1      46.749   6.790  12.386  0.00  0.00    +0.000 A 
BRANCH   3  10
ATOM      9  N   UNL     1      47.323   8.991  14.637  0.00  0.00    +0.000 N 
ATOM     10  C   UNL     1      48.108   8.056  14.021  0.00  0.00    +0.000 C 
ATOM     11  O   UNL     1      49.308   8.244  13.869  0.00  0.00    +0.000 OA
ATOM     12  H   UNL     1      47.810   9.787  15.030  0.00  0.00    +0.000 HD
ATOM     13  H   UNL     1      46.417   8.762  15.019  0.00  0.00    +0.000 HD
ENDBRANCH   3  10
ENDBRANCH   1   6
BRANCH   1  14
ATOM     14  C   UNL     1      44.474   3.283  11.223  0.00  0.00    +0.000 C 
ATOM     15  C   UNL     1      43.182   4.040  11.497  0.00  0.00    +0.000 C 
ATOM     16  C   UNL     1      43.154   2.550  11.449  0.00  0.00    +0.000 C 
BRANCH  14  17
ATOM     17  C   UNL     1      45.038   3.101   9.810  0.00  0.00    +0.000 A 
ATOM     18  C   UNL     1      45.206   4.211   8.956  0.00  0.00    +0.000 A 
ATOM     19  C   UNL     1      45.809   4.093   7.700  0.00  0.00    +0.000 A 
ATOM     20  C   UNL     1      46.264   2.853   7.264  0.00  0.00    +0.000 A 
ATOM     21  C   UNL     1      46.084   1.737   8.075  0.00  0.00    +0.000 A 
ATOM     22 CL   UNL     1      46.658   0.200   7.555  0.00  0.00    +0.000 Cl
ATOM     23  C   UNL     1      45.468   1.855   9.322  0.00  0.00    +0.000 A 
ENDBRANCH  14  17
ENDBRANCH   1  14
TORSDOF 4
ENDMDL
MODEL 5
REMARK VINA RESULT:    -5.966      3.822      6.638
REMARK INTER + INTRA:          -8.109
REMARK INTER:                  -8.302
REMARK INTRA:                   0.193
REMARK UNBOUND:                -0.748
REMARK  Name = 
REMARK  4 active torsions:
REMARK  status: ('A' for Active; 'I' for Inactive)
REMARK    1  A    between atoms: C_2  and  C_4
REMARK    2  A    between atoms: C_7  and  N_8
REMARK    3  A    between atoms: N_8  and  C_9
REMARK    4  A    between atoms: C_9  and  C_10
REMARK                            x       y       z     vdW  Elec       q    Type
REMARK                         _______ _______ _______ _____ _____    ______ ____
ROOT
ATOM      1  N   UNL     1      44.563   6.444  10.636  0.00  0.00    +0.000 N 
ATOM      2  H   UNL     1      44.816   6.699   9.685  0.00  0.00    +0.000 HD
ENDROOT
BRANCH   1   6
ATOM      3  C   UNL     1      47.305   8.085  13.419  0.00  0.00    +0.000 A 
ATOM      4  C   UNL     1      47.632   6.942  12.685  0.00  0.00    +0.000 A 
ATOM      5  C   UNL     1      46.717   6.415  11.762  0.00  0.00    +0.000 A 
ATOM      6  C   UNL     1      45.455   6.999  11.585  0.00  0.00    +0.000 A 
ATOM      7  C   UNL     1      45.155   8.159  12.307  0.00  0.00    +0.000 A 
ATOM      8  C   UNL     1      46.061   8.690  13.230  0.00  0.00    +0.000 A 
BRANCH   3  10
ATOM      9  N   UNL     1      47.676   9.201  15.554  0.00  0.00    +0.000 N 
ATOM     10  C   UNL     1      48.232   8.675  14.420  0.00  0.00    +0.000 C 
ATOM     11  O   UNL     1      49.445   8.661  14.263  0.00  0.00    +0.000 OA
ATOM     12  H   UNL     1      48.327   9.485  16.274  0.00  0.00    +0.000 HD
ATOM     13  H   UNL     1      46.731   8.986  15.836  0.00  0.00    +0.000 HD
ENDBRANCH   3  10
ENDBRANCH   1   6
BRANCH   1  14
ATOM     14  C   UNL     1      44.050   5.059  10.797  0.00  0.00    +0.000 C 
ATOM     15  C   UNL     1      42.648   4.901  11.367  0.00  0.00    +0.000 C 
ATOM     16  C   UNL     1      43.819   4.526  12.209  0.00  0.00    +0.000 C 
BRANCH  14  17
ATOM     17  C   UNL     1      44.675   4.029   9.851  0.00  0.00    +0.000 A 
ATOM     18  C   UNL     1      44.390   2.655   9.997  0.00  0.00    +0.000 A 
ATOM     19  C   UNL     1      44.865   1.702   9.091  0.00  0.00    +0.000 A 
ATOM     20  C   UNL     1      45.640   2.102   8.007  0.00  0.00    +0.000 A 
ATOM     21  C   UNL     1      45.960   3.447   7.857  0.00  0.00    +0.000 A 
ATOM     22 CL   UNL     1      46.904   3.957   6.511  0.00  0.00    +0.000 Cl
ATOM     23  C   UNL     1      45.498   4.395   8.771  0.00  0.00    +0.000 A 
ENDBRANCH  14  17
ENDBRANCH   1  14
TORSDOF 4
ENDMDL
MODEL 6
REMARK VINA RESULT:    -5.849      3.172      4.736
REMARK INTER + INTRA:          -7.965
REMARK INTER:                  -7.506
REMARK INTRA:                  -0.459
REMARK UNBOUND:                -0.748
REMARK  Name = 
REMARK  4 active torsions:
REMARK  status: ('A' for Active; 'I' for Inactive)
REMARK    1  A    between atoms: C_2  and  C_4
REMARK    2  A    between atoms: C_7  and  N_8
REMARK    3  A    between atoms: N_8  and  C_9
REMARK    4  A    between atoms: C_9  and  C_10
REMARK                            x       y       z     vdW  Elec       q    Type
REMARK                         _______ _______ _______ _____ _____    ______ ____
ROOT
ATOM      1  N   UNL     1      45.980   6.377  13.245  0.00  0.00    +0.000 N 
ATOM      2  H   UNL     1      45.857   5.934  14.150  0.00  0.00    +0.000 HD
ENDROOT
BRANCH   1   6
ATOM      3  C   UNL     1      44.961   3.714  10.110  0.00  0.00    +0.000 A 
ATOM      4  C   UNL     1      44.934   3.292  11.442  0.00  0.00    +0.000 A 
ATOM      5  C   UNL     1      45.267   4.187  12.469  0.00  0.00    +0.000 A 
ATOM      6  C   UNL     1      45.663   5.500  12.180  0.00  0.00    +0.000 A 
ATOM      7  C   UNL     1      45.658   5.914  10.844  0.00  0.00    +0.000 A 
ATOM      8  C   UNL     1      45.328   5.028   9.814  0.00  0.00    +0.000 A 
BRANCH   3  10
ATOM      9  N   UNL     1      44.484   3.364   7.746  0.00  0.00    +0.000 N 
ATOM     10  C   UNL     1      44.633   2.802   8.983  0.00  0.00    +0.000 C 
ATOM     11  O   UNL     1      44.536   1.592   9.140  0.00  0.00    +0.000 OA
ATOM     12  H   UNL     1      44.383   2.716   6.975  0.00  0.00    +0.000 HD
ATOM     13  H   UNL     1      44.822   4.292   7.535  0.00  0.00    +0.000 HD
ENDBRANCH   3  10
ENDBRANCH   1   6
BRANCH   1  14
ATOM     14  C   UNL     1      47.147   7.293  13.150  0.00  0.00    +0.000 C 
ATOM     15  C   UNL     1      48.523   6.655  13.027  0.00  0.00    +0.000 C 
ATOM     16  C   UNL     1      48.146   7.324  14.304  0.00  0.00    +0.000 C 
BRANCH  14  17
ATOM     17  C   UNL     1      46.829   8.680  12.582  0.00  0.00    +0.000 A 
ATOM     18  C   UNL     1      47.863   9.520  12.119  0.00  0.00    +0.000 A 
ATOM     19  C   UNL     1      47.598  10.748  11.504  0.00  0.00    +0.000 A 
ATOM     20  C   UNL     1      46.283  11.169  11.336  0.00  0.00    +0.000 A 
ATOM     21  C   UNL     1      45.246  10.373  11.811  0.00  0.00    +0.000 A 
ATOM     22 CL   UNL     1      43.614  10.875  11.593  0.00  0.00    +0.000 Cl
ATOM     23  C   UNL     1      45.513   9.155  12.437  0.00  0.00    +0.000 A 
ENDBRANCH  14  17
ENDBRANCH   1  14
TORSDOF 4
ENDMDL
