MODEL 1
REMARK VINA RESULT:    -7.900      0.000      0.000
REMARK INTER + INTRA:         -11.801
REMARK INTER:                 -10.671
REMARK INTRA:                  -1.130
REMARK UNBOUND:                -1.130
REMARK  Name = 
REMARK  7 active torsions:
REMARK  status: ('A' for Active; 'I' for Inactive)
REMARK    1  A    between atoms: C_1  and  C_2
REMARK    2  A    between atoms: C_2  and  N_3
REMARK    3  A    between atoms: C_2  and  C_16
REMARK    4  A    between atoms: C_4  and  C_6
REMARK    5  A    between atoms: C_19  and  C_20
REMARK    6  A    between atoms: C_20  and  N_21
REMARK    7  A    between atoms: C_22  and  C_24
REMARK                            x       y       z     vdW  Elec       q    Type
REMARK                         _______ _______ _______ _____ _____    ______ ____
ROOT
ATOM      1  C   UNL     1      47.471   9.045  13.459  0.00  0.00    +0.000 C 
ATOM      2  C   UNL     1      47.751   7.539  13.464  0.00  0.00    +0.000 C 
ENDROOT
BRANCH   2   3
ATOM      3  C   UNL     1      46.694   6.760  12.694  0.00  0.00    +0.000 A 
ATOM      4  C   UNL     1      46.583   5.377  12.897  0.00  0.00    +0.000 A 
ATOM      5  C   UNL     1      45.694   4.604  12.141  0.00  0.00    +0.000 A 
ATOM      6  C   UNL     1      44.889   5.195  11.158  0.00  0.00    +0.000 A 
ATOM      7  C   UNL     1      44.941   6.587  11.004  0.00  0.00    +0.000 A 
ATOM      8  C   UNL     1      45.836   7.360  11.758  0.00  0.00    +0.000 A 
BRANCH   6   9
ATOM      9  C   UNL     1      44.035   4.341  10.258  0.00  0.00    +0.000 C 
BRANCH   9  10
ATOM     10  N   UNL     1      44.765   3.317   9.562  0.00  0.00    +0.000 N 
ATOM     11  C   UNL     1      45.570   3.636   8.490  0.00  0.00    +0.000 C 
ATOM     12  O   UNL     1      45.689   4.775   8.054  0.00  0.00    +0.000 OA
ATOM     13  H   UNL     1      44.756   2.350   9.871  0.00  0.00    +0.000 HD
BRANCH  11  14
ATOM     14  C   UNL     1      46.272   2.486   7.919  0.00  0.00    +0.000 A 
ATOM     15  C   UNL     1      47.240   2.522   6.932  0.00  0.00    +0.000 A 
ATOM     16  N   UNL     1      47.603   1.223   6.722  0.00  0.00    +0.000 N 
ATOM     17  C   UNL     1      46.862   0.447   7.570  0.00  0.00    +0.000 A 
ATOM     18  N   UNL     1      46.049   1.172   8.306  0.00  0.00    +0.000 NA
ATOM     19  H   UNL     1      48.292   0.888   6.062  0.00  0.00    +0.000 HD
ENDBRANCH  11  14
ENDBRANCH   9  10
ENDBRANCH   6   9
ENDBRANCH   2   3
BRANCH   2  20
ATOM     20  N   UNL     1      47.896   7.050  14.820  0.00  0.00    +0.000 N 
ATOM     21  C   UNL     1      49.124   6.884  15.410  0.00  0.00    +0.000 C 
ATOM     22  O   UNL     1      50.174   7.097  14.806  0.00  0.00    +0.000 OA
ATOM     23  H   UNL     1      47.050   6.797  15.321  0.00  0.00    +0.000 HD
BRANCH  21  24
ATOM     24  C   UNL     1      49.130   6.490  16.822  0.00  0.00    +0.000 A 
ATOM     25  C   UNL     1      49.567   7.389  17.788  0.00  0.00    +0.000 A 
ATOM     26  S   UNL     1      49.492   6.774  19.377  0.00  0.00    +0.000 S 
ATOM     27  C   UNL     1      48.923   5.268  18.826  0.00  0.00    +0.000 A 
ATOM     28  N   UNL     1      48.683   4.249  19.695  0.00  0.00    +0.000 NA
ATOM     29  C   UNL     1      48.304   3.149  19.134  0.00  0.00    +0.000 A 
ATOM     30  N   UNL     1      48.129   2.980  17.786  0.00  0.00    +0.000 N 
ATOM     31  C   UNL     1      48.274   4.006  16.883  0.00  0.00    +0.000 A 
ATOM     32  O   UNL     1      47.965   3.858  15.706  0.00  0.00    +0.000 OA
ATOM     33  C   UNL     1      48.759   5.247  17.453  0.00  0.00    +0.000 A 
ATOM     34  H   UNL     1      47.795   2.105  17.411  0.00  0.00    +0.000 HD
ENDBRANCH  21  24
ENDBRANCH   2  20
TORSDOF 6
ENDMDL
MODEL 2
REMARK VINA RESULT:    -7.434      2.009      2.768
REMARK INTER + INTRA:         -11.172
REMARK INTER:                  -9.967
REMARK INTRA:                  -1.205
REMARK UNBOUND:                -1.130
REMARK  Name = 
REMARK  7 active torsions:
REMARK  status: ('A' for Active; 'I' for Inactive)
REMARK    1  A    between atoms: C_1  and  C_2
REMARK    2  A    between atoms: C_2  and  N_3
REMARK    3  A    between atoms: C_2  and  C_16
REMARK    4  A    between atoms: C_4  and  C_6
REMARK    5  A    between atoms: C_19  and  C_20
REMARK    6  A    between atoms: C_20  and  N_21
REMARK    7  A    between atoms: C_22  and  C_24
REMARK                            x       y       z     vdW  Elec       q    Type
REMARK                         _______ _______ _______ _____ _____    ______ ____
ROOT
ATOM      1  C   UNL     1      48.423   8.020  13.709  0.00  0.00    +0.000 C 
ATOM      2  C   UNL     1      48.233   6.595  14.236  0.00  0.00    +0.000 C 
ENDROOT
BRANCH   2   3
ATOM      3  C   UNL     1      47.155   5.842  13.468  0.00  0.00    +0.000 A 
ATOM      4  C   UNL     1      46.939   4.485  13.747  0.00  0.00    +0.000 A 
ATOM      5  C   UNL     1      46.031   3.728  12.998  0.00  0.00    +0.000 A 
ATOM      6  C   UNL     1      45.310   4.309  11.947  0.00  0.00    +0.000 A 
ATOM      7  C   UNL     1      45.466   5.681  11.713  0.00  0.00    +0.000 A 
ATOM      8  C   UNL     1      46.381   6.439  12.459  0.00  0.00    +0.000 A 
BRANCH   6   9
ATOM      9  C   UNL     1      44.436   3.460  11.061  0.00  0.00    +0.000 C 
BRANCH   9  10
ATOM     10  N   UNL     1      45.151   2.786  10.012  0.00  0.00    +0.000 N 
ATOM     11  C   UNL     1      45.280   3.367   8.769  0.00  0.00    +0.000 C 
ATOM     12  O   UNL     1      44.785   4.449   8.476  0.00  0.00    +0.000 OA
ATOM     13  H   UNL     1      45.624   1.902  10.169  0.00  0.00    +0.000 HD
BRANCH  11  14
ATOM     14  C   UNL     1      46.068   2.569   7.827  0.00  0.00    +0.000 A 
ATOM     15  C   UNL     1      46.409   1.237   7.965  0.00  0.00    +0.000 A 
ATOM     16  N   UNL     1      47.141   0.925   6.855  0.00  0.00    +0.000 N 
ATOM     17  C   UNL     1      47.223   2.054   6.087  0.00  0.00    +0.000 A 
ATOM     18  N   UNL     1      46.591   3.064   6.640  0.00  0.00    +0.000 NA
ATOM     19  H   UNL     1      47.551   0.027   6.635  0.00  0.00    +0.000 HD
ENDBRANCH  11  14
ENDBRANCH   9  10
ENDBRANCH   6   9
ENDBRANCH   2   3
BRANCH   2  20
ATOM     20  N   UNL     1      47.964   6.607  15.661  0.00  0.00    +0.000 N 
ATOM     21  C   UNL     1      48.880   6.162  16.580  0.00  0.00    +0.000 C 
ATOM     22  O   UNL     1      49.962   5.683  16.247  0.00  0.00    +0.000 OA
ATOM     23  H   UNL     1      47.051   6.930  15.963  0.00  0.00    +0.000 HD
BRANCH  21  24
ATOM     24  C   UNL     1      48.531   6.332  17.994  0.00  0.00    +0.000 A 
ATOM     25  C   UNL     1      48.593   5.244  18.856  0.00  0.00    +0.000 A 
ATOM     26  S   UNL     1      48.172   5.622  20.466  0.00  0.00    +0.000 S 
ATOM     27  C   UNL     1      47.842   7.240  20.057  0.00  0.00    +0.000 A 
ATOM     28  N   UNL     1      47.392   8.121  20.990  0.00  0.00    +0.000 NA
ATOM     29  C   UNL     1      47.134   9.300  20.530  0.00  0.00    +0.000 A 
ATOM     30  N   UNL     1      47.299   9.681  19.224  0.00  0.00    +0.000 N 
ATOM     31  C   UNL     1      47.834   8.851  18.269  0.00  0.00    +0.000 A 
ATOM     32  O   UNL     1      48.107   9.271  17.150  0.00  0.00    +0.000 OA
ATOM     33  C   UNL     1      48.083   7.497  18.719  0.00  0.00    +0.000 A 
ATOM     34  H   UNL     1      47.114  10.630  18.932  0.00  0.00    +0.000 HD
ENDBRANCH  21  24
ENDBRANCH   2  20
TORSDOF 6
ENDMDL
MODEL 3
REMARK VINA RESULT:    -7.207      3.554      8.280
REMARK INTER + INTRA:         -10.865
REMARK INTER:                  -9.744
REMARK INTRA:                  -1.121
REMARK UNBOUND:                -1.130
REMARK  Name = 
REMARK  7 active torsions:
REMARK  status: ('A' for Active; 'I' for Inactive)
REMARK    1  A    between atoms: C_1  and  C_2
REMARK    2  A    between atoms: C_2  and  N_3
REMARK    3  A    between atoms: C_2  and  C_16
REMARK    4  A    between atoms: C_4  and  C_6
REMARK    5  A    between atoms: C_19  and  C_20
REMARK    6  A    between atoms: C_20  and  N_21
REMARK    7  A    between atoms: C_22  and  C_24
REMARK                            x       y       z     vdW  Elec       q    Type
REMARK                         _______ _______ _______ _____ _____    ______ ____
ROOT
ATOM      1  C   UNL     1      49.670   8.026  11.380  0.00  0.00    +0.000 C 
ATOM      2  C   UNL     1      48.498   7.704  12.313  0.00  0.00    +0.000 C 
ENDROOT
BRANCH   2   3
ATOM      3  C   UNL     1      48.963   7.410  13.732  0.00  0.00    +0.000 A 
ATOM      4  C   UNL     1      50.202   7.908  14.162  0.00  0.00    +0.000 A 
ATOM      5  C   UNL     1      50.715   7.580  15.422  0.00  0.00    +0.000 A 
ATOM      6  C   UNL     1      50.001   6.744  16.290  0.00  0.00    +0.000 A 
ATOM      7  C   UNL     1      48.729   6.306  15.897  0.00  0.00    +0.000 A 
ATOM      8  C   UNL     1      48.218   6.629  14.632  0.00  0.00    +0.000 A 
BRANCH   6   9
ATOM      9  C   UNL     1      50.617   6.288  17.588  0.00  0.00    +0.000 C 
BRANCH   9  10
ATOM     10  N   UNL     1      51.287   5.019  17.499  0.00  0.00    +0.000 N 
ATOM     11  C   UNL     1      50.656   3.865  17.911  0.00  0.00    +0.000 C 
ATOM     12  O   UNL     1      49.529   3.849  18.393  0.00  0.00    +0.000 OA
ATOM     13  H   UNL     1      52.207   4.928  17.084  0.00  0.00    +0.000 HD
BRANCH  11  14
ATOM     14  C   UNL     1      51.459   2.656  17.719  0.00  0.00    +0.000 A 
ATOM     15  C   UNL     1      51.003   1.430  17.272  0.00  0.00    +0.000 A 
ATOM     16  N   UNL     1      52.096   0.613  17.253  0.00  0.00    +0.000 N 
ATOM     17  C   UNL     1      53.167   1.349  17.680  0.00  0.00    +0.000 A 
ATOM     18  N   UNL     1      52.822   2.583  17.971  0.00  0.00    +0.000 NA
ATOM     19  H   UNL     1      52.118  -0.360  16.976  0.00  0.00    +0.000 HD
ENDBRANCH  11  14
ENDBRANCH   9  10
ENDBRANCH   6   9
ENDBRANCH   2   3
BRANCH   2  20
ATOM     20  N   UNL     1      47.700   6.620  11.775  0.00  0.00    +0.000 N 
ATOM     21  C   UNL     1      46.374   6.778  11.458  0.00  0.00    +0.000 C 
ATOM     22  O   UNL     1      45.775   7.833  11.655  0.00  0.00    +0.000 OA
ATOM     23  H   UNL     1      48.147   5.716  11.669  0.00  0.00    +0.000 HD
BRANCH  21  24
ATOM     24  C   UNL     1      45.708   5.638  10.819  0.00  0.00    +0.000 A 
ATOM     25  C   UNL     1      45.764   5.493   9.438  0.00  0.00    +0.000 A 
ATOM     26  S   UNL     1      44.953   4.106   8.864  0.00  0.00    +0.000 S 
ATOM     27  C   UNL     1      44.456   3.680  10.434  0.00  0.00    +0.000 A 
ATOM     28  N   UNL     1      43.678   2.585  10.650  0.00  0.00    +0.000 NA
ATOM     29  C   UNL     1      43.334   2.411  11.882  0.00  0.00    +0.000 A 
ATOM     30  N   UNL     1      43.709   3.223  12.920  0.00  0.00    +0.000 N 
ATOM     31  C   UNL     1      44.564   4.286  12.760  0.00  0.00    +0.000 A 
ATOM     32  O   UNL     1      44.996   4.900  13.730  0.00  0.00    +0.000 OA
ATOM     33  C   UNL     1      44.931   4.564  11.386  0.00  0.00    +0.000 A 
ATOM     34  H   UNL     1      43.437   3.013  13.869  0.00  0.00    +0.000 HD
ENDBRANCH  21  24
ENDBRANCH   2  20
TORSDOF 6
ENDMDL
MODEL 4
REMARK VINA RESULT:    -7.200      2.776      4.542
REMARK INTER + INTRA:         -10.855
REMARK INTER:                  -9.599
REMARK INTRA:                  -1.256
REMARK UNBOUND:                -1.130
REMARK  Name = 
REMARK  7 active torsions:
REMARK  status: ('A' for Active; 'I' for Inactive)
REMARK    1  A    between atoms: C_1  and  C_2
REMARK    2  A    between atoms: C_2  and  N_3
REMARK    3  A    between atoms: C_2  and  C_16
REMARK    4  A    between atoms: C_4  and  C_6
REMARK    5  A    between atoms: C_19  and  C_20
REMARK    6  A    between atoms: C_20  and  N_21
REMARK    7  A    between atoms: C_22  and  C_24
REMARK                            x       y       z     vdW  Elec       q    Type
REMARK                         _______ _______ _______ _____ _____    ______ ____
ROOT
ATOM      1  C   UNL     1      47.238   4.457  15.275  0.00  0.00    +0.000 C 
ATOM      2  C   UNL     1      47.085   5.685  14.373  0.00  0.00    +0.000 C 
ENDROOT
BRANCH   2   3
ATOM      3  C   UNL     1      46.260   5.381  13.130  0.00  0.00    +0.000 A 
ATOM      4  C   UNL     1      45.630   4.133  13.017  0.00  0.00    +0.000 A 
ATOM      5  C   UNL     1      44.945   3.772  11.852  0.00  0.00    +0.000 A 
ATOM      6  C   UNL     1      44.870   4.651  10.764  0.00  0.00    +0.000 A 
ATOM      7  C   UNL     1      45.431   5.927  10.900  0.00  0.00    +0.000 A 
ATOM      8  C   UNL     1      46.123   6.288  12.065  0.00  0.00    +0.000 A 
BRANCH   6   9
ATOM      9  C   UNL     1      44.248   4.206   9.466  0.00  0.00    +0.000 C 
BRANCH   9  10
ATOM     10  N   UNL     1      45.204   3.893   8.440  0.00  0.00    +0.000 N 
ATOM     11  C   UNL     1      45.680   2.607   8.296  0.00  0.00    +0.000 C 
ATOM     12  O   UNL     1      45.352   1.682   9.031  0.00  0.00    +0.000 OA
ATOM     13  H   UNL     1      45.510   4.584   7.763  0.00  0.00    +0.000 HD
BRANCH  11  14
ATOM     14  C   UNL     1      46.616   2.447   7.182  0.00  0.00    +0.000 A 
ATOM     15  C   UNL     1      47.668   1.552   7.115  0.00  0.00    +0.000 A 
ATOM     16  N   UNL     1      48.257   1.763   5.902  0.00  0.00    +0.000 N 
ATOM     17  C   UNL     1      47.561   2.760   5.276  0.00  0.00    +0.000 A 
ATOM     18  N   UNL     1      46.568   3.198   6.016  0.00  0.00    +0.000 NA
ATOM     19  H   UNL     1      49.060   1.276   5.528  0.00  0.00    +0.000 HD
ENDBRANCH  11  14
ENDBRANCH   9  10
ENDBRANCH   6   9
ENDBRANCH   2   3
BRANCH   2  20
ATOM     20  N   UNL     1      48.382   6.236  14.033  0.00  0.00    +0.000 N 
ATOM     21  C   UNL     1      48.898   7.336  14.671  0.00  0.00    +0.000 C 
ATOM     22  O   UNL     1      48.271   7.946  15.534  0.00  0.00    +0.000 OA
ATOM     23  H   UNL     1      48.893   5.797  13.274  0.00  0.00    +0.000 HD
BRANCH  21  24
ATOM     24  C   UNL     1      50.266   7.725  14.312  0.00  0.00    +0.000 A 
ATOM     25  C   UNL     1      51.277   7.645  15.261  0.00  0.00    +0.000 A 
ATOM     26  S   UNL     1      52.807   8.119  14.672  0.00  0.00    +0.000 S 
ATOM     27  C   UNL     1      52.161   8.495  13.143  0.00  0.00    +0.000 A 
ATOM     28  N   UNL     1      52.948   8.999  12.155  0.00  0.00    +0.000 NA
ATOM     29  C   UNL     1      52.317   9.287  11.066  0.00  0.00    +0.000 A 
ATOM     30  N   UNL     1      50.974   9.104  10.870  0.00  0.00    +0.000 N 
ATOM     31  C   UNL     1      50.159   8.517  11.808  0.00  0.00    +0.000 A 
ATOM     32  O   UNL     1      48.997   8.231  11.544  0.00  0.00    +0.000 OA
ATOM     33  C   UNL     1      50.805   8.231  13.073  0.00  0.00    +0.000 A 
ATOM     34  H   UNL     1      50.544   9.315   9.982  0.00  0.00    +0.000 HD
ENDBRANCH  21  24
ENDBRANCH   2  20
TORSDOF 6
ENDMDL
MODEL 5
REMARK VINA RESULT:    -7.038      3.526      4.771
REMARK INTER + INTRA:         -10.637
REMARK INTER:                  -9.599
REMARK INTRA:                  -1.038
REMARK UNBOUND:                -1.130
REMARK  Name = 
REMARK  7 active torsions:
REMARK  status: ('A' for Active; 'I' for Inactive)
REMARK    1  A    between atoms: C_1  and  C_2
REMARK    2  A    between atoms: C_2  and  N_3
REMARK    3  A    between atoms: C_2  and  C_16
REMARK    4  A    between atoms: C_4  and  C_6
REMARK    5  A    between atoms: C_19  and  C_20
REMARK    6  A    between atoms: C_20  and  N_21
REMARK    7  A    between atoms: C_22  and  C_24
REMARK                            x       y       z     vdW  Elec       q    Type
REMARK                         _______ _______ _______ _____ _____    ______ ____
ROOT
ATOM      1  C   UNL     1      47.788   3.374  17.947  0.00  0.00    +0.000 C 
ATOM      2  C   UNL     1      48.667   4.518  17.434  0.00  0.00    +0.000 C 
ENDROOT
BRANCH   2   3
ATOM      3  C   UNL     1      48.203   5.030  16.077  0.00  0.00    +0.000 A 
ATOM      4  C   UNL     1      48.702   6.251  15.601  0.00  0.00    +0.000 A 
ATOM      5  C   UNL     1      48.229   6.809  14.408  0.00  0.00    +0.000 A 
ATOM      6  C   UNL     1      47.242   6.160  13.656  0.00  0.00    +0.000 A 
ATOM      7  C   UNL     1      46.794   4.904  14.087  0.00  0.00    +0.000 A 
ATOM      8  C   UNL     1      47.263   4.348  15.286  0.00  0.00    +0.000 A 
BRANCH   6   9
ATOM      9  C   UNL     1      46.642   6.828  12.446  0.00  0.00    +0.000 C 
BRANCH   9  10
ATOM     10  N   UNL     1      46.376   5.929  11.356  0.00  0.00    +0.000 N 
ATOM     11  C   UNL     1      45.087   5.522  11.084  0.00  0.00    +0.000 C 
ATOM     12  O   UNL     1      44.118   5.865  11.751  0.00  0.00    +0.000 OA
ATOM     13  H   UNL     1      47.108   5.617  10.728  0.00  0.00    +0.000 HD
BRANCH  11  14
ATOM     14  C   UNL     1      44.983   4.639   9.921  0.00  0.00    +0.000 A 
ATOM     15  C   UNL     1      44.184   3.516   9.811  0.00  0.00    +0.000 A 
ATOM     16  N   UNL     1      44.415   3.018   8.562  0.00  0.00    +0.000 N 
ATOM     17  C   UNL     1      45.329   3.835   7.957  0.00  0.00    +0.000 A 
ATOM     18  N   UNL     1      45.696   4.821   8.744  0.00  0.00    +0.000 NA
ATOM     19  H   UNL     1      43.992   2.196   8.153  0.00  0.00    +0.000 HD
ENDBRANCH  11  14
ENDBRANCH   9  10
ENDBRANCH   6   9
ENDBRANCH   2   3
BRANCH   2  20
ATOM     20  N   UNL     1      50.061   4.120  17.407  0.00  0.00    +0.000 N 
ATOM     21  C   UNL     1      50.879   4.254  18.500  0.00  0.00    +0.000 C 
ATOM     22  O   UNL     1      50.491   4.761  19.550  0.00  0.00    +0.000 OA
ATOM     23  H   UNL     1      50.431   3.764  16.532  0.00  0.00    +0.000 HD
BRANCH  21  24
ATOM     24  C   UNL     1      52.236   3.711  18.379  0.00  0.00    +0.000 A 
ATOM     25  C   UNL     1      53.328   4.503  18.710  0.00  0.00    +0.000 A 
ATOM     26  S   UNL     1      54.828   3.710  18.527  0.00  0.00    +0.000 S 
ATOM     27  C   UNL     1      54.073   2.299  17.950  0.00  0.00    +0.000 A 
ATOM     28  N   UNL     1      54.806   1.219  17.566  0.00  0.00    +0.000 NA
ATOM     29  C   UNL     1      54.107   0.238  17.101  0.00  0.00    +0.000 A 
ATOM     30  N   UNL     1      52.740   0.234  16.999  0.00  0.00    +0.000 N 
ATOM     31  C   UNL     1      51.957   1.266  17.455  0.00  0.00    +0.000 A 
ATOM     32  O   UNL     1      50.736   1.166  17.485  0.00  0.00    +0.000 OA
ATOM     33  C   UNL     1      52.695   2.419  17.930  0.00  0.00    +0.000 A 
ATOM     34  H   UNL     1      52.247  -0.579  16.660  0.00  0.00    +0.000 HD
ENDBRANCH  21  24
ENDBRANCH   2  20
TORSDOF 6
ENDMDL
MODEL 6
REMARK VINA RESULT:    -6.688      3.289      8.814
REMARK INTER + INTRA:         -10.164
REMARK INTER:                  -9.082
REMARK INTRA:                  -1.082
REMARK UNBOUND:                -1.130
REMARK  Name = 
REMARK  7 active torsions:
REMARK  status: ('A' for Active; 'I' for Inactive)
REMARK    1  A    between atoms: C_1  and  C_2
REMARK    2  A    between atoms: C_2  and  N_3
REMARK    3  A    between atoms: C_2  and  C_16
REMARK    4  A    between atoms: C_4  and  C_6
REMARK    5  A    between atoms: C_19  and  C_20
REMARK    6  A    between atoms: C_20  and  N_21
REMARK    7  A    between atoms: C_22  and  C_24
REMARK                            x       y       z     vdW  Elec       q    Type
REMARK                         _______ _______ _______ _____ _____    ______ ____
ROOT
ATOM      1  C   UNL     1      48.511   7.934  11.468  0.00  0.00    +0.000 C 
ATOM      2  C   UNL     1      47.728   7.371  12.658  0.00  0.00    +0.000 C 
ENDROOT
BRANCH   2   3
ATOM      3  C   UNL     1      48.631   7.081  13.849  0.00  0.00    +0.000 A 
ATOM      4  C   UNL     1      48.155   6.264  14.885  0.00  0.00    +0.000 A 
ATOM      5  C   UNL     1      48.910   6.051  16.043  0.00  0.00    +0.000 A 
ATOM      6  C   UNL     1      50.167   6.650  16.199  0.00  0.00    +0.000 A 
ATOM      7  C   UNL     1      50.680   7.405  15.137  0.00  0.00    +0.000 A 
ATOM      8  C   UNL     1      49.921   7.624  13.978  0.00  0.00    +0.000 A 
BRANCH   6   9
ATOM      9  C   UNL     1      50.915   6.526  17.501  0.00  0.00    +0.000 C 
BRANCH   9  10
ATOM     10  N   UNL     1      51.660   5.303  17.630  0.00  0.00    +0.000 N 
ATOM     11  C   UNL     1      51.091   4.196  18.224  0.00  0.00    +0.000 C 
ATOM     12  O   UNL     1      49.958   4.191  18.692  0.00  0.00    +0.000 OA
ATOM     13  H   UNL     1      52.592   5.201  17.243  0.00  0.00    +0.000 HD
BRANCH  11  14
ATOM     14  C   UNL     1      51.967   3.024  18.241  0.00  0.00    +0.000 A 
ATOM     15  C   UNL     1      53.172   2.910  18.909  0.00  0.00    +0.000 A 
ATOM     16  N   UNL     1      53.627   1.652  18.639  0.00  0.00    +0.000 N 
ATOM     17  C   UNL     1      52.705   1.046  17.831  0.00  0.00    +0.000 A 
ATOM     18  N   UNL     1      51.693   1.841  17.569  0.00  0.00    +0.000 NA
ATOM     19  H   UNL     1      54.488   1.237  18.970  0.00  0.00    +0.000 HD
ENDBRANCH  11  14
ENDBRANCH   9  10
ENDBRANCH   6   9
ENDBRANCH   2   3
BRANCH   2  20
ATOM     20  N   UNL     1      46.970   6.200  12.264  0.00  0.00    +0.000 N 
ATOM     21  C   UNL     1      45.599   6.165  12.324  0.00  0.00    +0.000 C 
ATOM     22  O   UNL     1      44.938   7.105  12.759  0.00  0.00    +0.000 OA
ATOM     23  H   UNL     1      47.490   5.381  11.969  0.00  0.00    +0.000 HD
BRANCH  21  24
ATOM     24  C   UNL     1      44.947   4.964  11.791  0.00  0.00    +0.000 A 
ATOM     25  C   UNL     1      44.165   4.175  12.626  0.00  0.00    +0.000 A 
ATOM     26  S   UNL     1      43.469   2.830  11.841  0.00  0.00    +0.000 S 
ATOM     27  C   UNL     1      44.229   3.225  10.372  0.00  0.00    +0.000 A 
ATOM     28  N   UNL     1      44.078   2.440   9.271  0.00  0.00    +0.000 NA
ATOM     29  C   UNL     1      44.752   2.831   8.242  0.00  0.00    +0.000 A 
ATOM     30  N   UNL     1      45.552   3.943   8.208  0.00  0.00    +0.000 N 
ATOM     31  C   UNL     1      45.663   4.811   9.267  0.00  0.00    +0.000 A 
ATOM     32  O   UNL     1      46.266   5.872   9.153  0.00  0.00    +0.000 OA
ATOM     33  C   UNL     1      44.975   4.386  10.470  0.00  0.00    +0.000 A 
ATOM     34  H   UNL     1      46.026   4.217   7.360  0.00  0.00    +0.000 HD
ENDBRANCH  21  24
ENDBRANCH   2  20
TORSDOF 6
ENDMDL
MODEL 7
REMARK VINA RESULT:    -6.548      2.826      8.908
REMARK INTER + INTRA:          -9.975
REMARK INTER:                  -8.792
REMARK INTRA:                  -1.183
REMARK UNBOUND:                -1.130
REMARK  Name = 
REMARK  7 active torsions:
REMARK  status: ('A' for Active; 'I' for Inactive)
REMARK    1  A    between atoms: C_1  and  C_2
REMARK    2  A    between atoms: C_2  and  N_3
REMARK    3  A    between atoms: C_2  and  C_16
REMARK    4  A    between atoms: C_4  and  C_6
REMARK    5  A    between atoms: C_19  and  C_20
REMARK    6  A    between atoms: C_20  and  N_21
REMARK    7  A    between atoms: C_22  and  C_24
REMARK                            x       y       z     vdW  Elec       q    Type
REMARK                         _______ _______ _______ _____ _____    ______ ____
ROOT
ATOM      1  C   UNL     1      49.251   7.744  11.003  0.00  0.00    +0.000 C 
ATOM      2  C   UNL     1      48.073   7.892  11.971  0.00  0.00    +0.000 C 
ENDROOT
BRANCH   2   3
ATOM      3  C   UNL     1      48.534   8.219  13.385  0.00  0.00    +0.000 A 
ATOM      4  C   UNL     1      49.280   7.269  14.097  0.00  0.00    +0.000 A 
ATOM      5  C   UNL     1      49.639   7.484  15.432  0.00  0.00    +0.000 A 
ATOM      6  C   UNL     1      49.263   8.660  16.094  0.00  0.00    +0.000 A 
ATOM      7  C   UNL     1      48.585   9.646  15.365  0.00  0.00    +0.000 A 
ATOM      8  C   UNL     1      48.219   9.427  14.029  0.00  0.00    +0.000 A 
BRANCH   6   9
ATOM      9  C   UNL     1      49.537   8.828  17.566  0.00  0.00    +0.000 C 
BRANCH   9  10
ATOM     10  N   UNL     1      49.506   7.597  18.307  0.00  0.00    +0.000 N 
ATOM     11  C   UNL     1      48.334   7.155  18.883  0.00  0.00    +0.000 C 
ATOM     12  O   UNL     1      47.281   7.779  18.827  0.00  0.00    +0.000 OA
ATOM     13  H   UNL     1      50.320   6.995  18.380  0.00  0.00    +0.000 HD
BRANCH  11  14
ATOM     14  C   UNL     1      48.464   5.868  19.568  0.00  0.00    +0.000 A 
ATOM     15  C   UNL     1      48.281   4.618  19.008  0.00  0.00    +0.000 A 
ATOM     16  N   UNL     1      48.504   3.724  20.015  0.00  0.00    +0.000 N 
ATOM     17  C   UNL     1      48.811   4.440  21.138  0.00  0.00    +0.000 A 
ATOM     18  N   UNL     1      48.796   5.734  20.909  0.00  0.00    +0.000 NA
ATOM     19  H   UNL     1      48.452   2.716  19.950  0.00  0.00    +0.000 HD
ENDBRANCH  11  14
ENDBRANCH   9  10
ENDBRANCH   6   9
ENDBRANCH   2   3
BRANCH   2  20
ATOM     20  N   UNL     1      47.235   6.710  11.942  0.00  0.00    +0.000 N 
ATOM     21  C   UNL     1      45.865   6.787  11.962  0.00  0.00    +0.000 C 
ATOM     22  O   UNL     1      45.270   7.858  12.055  0.00  0.00    +0.000 OA
ATOM     23  H   UNL     1      47.697   5.807  11.938  0.00  0.00    +0.000 HD
BRANCH  21  24
ATOM     24  C   UNL     1      45.131   5.525  11.815  0.00  0.00    +0.000 A 
ATOM     25  C   UNL     1      44.426   5.007  12.894  0.00  0.00    +0.000 A 
ATOM     26  S   UNL     1      43.618   3.545  12.543  0.00  0.00    +0.000 S 
ATOM     27  C   UNL     1      44.226   3.527  10.954  0.00  0.00    +0.000 A 
ATOM     28  N   UNL     1      43.939   2.503  10.106  0.00  0.00    +0.000 NA
ATOM     29  C   UNL     1      44.508   2.593   8.951  0.00  0.00    +0.000 A 
ATOM     30  N   UNL     1      45.325   3.621   8.561  0.00  0.00    +0.000 N 
ATOM     31  C   UNL     1      45.569   4.718   9.352  0.00  0.00    +0.000 A 
ATOM     32  O   UNL     1      46.181   5.687   8.917  0.00  0.00    +0.000 OA
ATOM     33  C   UNL     1      45.005   4.638  10.684  0.00  0.00    +0.000 A 
ATOM     34  H   UNL     1      45.712   3.654   7.629  0.00  0.00    +0.000 HD
ENDBRANCH  21  24
ENDBRANCH   2  20
TORSDOF 6
ENDMDL
MODEL 8
REMARK VINA RESULT:    -6.475      4.678      7.595
REMARK INTER + INTRA:          -9.876
REMARK INTER:                  -8.926
REMARK INTRA:                  -0.950
REMARK UNBOUND:                -1.130
REMARK  Name = 
REMARK  7 active torsions:
REMARK  status: ('A' for Active; 'I' for Inactive)
REMARK    1  A    between atoms: C_1  and  C_2
REMARK    2  A    between atoms: C_2  and  N_3
REMARK    3  A    between atoms: C_2  and  C_16
REMARK    4  A    between atoms: C_4  and  C_6
REMARK    5  A    between atoms: C_19  and  C_20
REMARK    6  A    between atoms: C_20  and  N_21
REMARK    7  A    between atoms: C_22  and  C_24
REMARK                            x       y       z     vdW  Elec       q    Type
REMARK                         _______ _______ _______ _____ _____    ______ ____
ROOT
ATOM      1  C   UNL     1      45.236   9.520  12.075  0.00  0.00    +0.000 C 
ATOM      2  C   UNL     1      46.133   8.331  12.433  0.00  0.00    +0.000 C 
ENDROOT
BRANCH   2   3
ATOM      3  C   UNL     1      47.579   8.562  12.016  0.00  0.00    +0.000 A 
ATOM      4  C   UNL     1      48.422   7.456  11.834  0.00  0.00    +0.000 A 
ATOM      5  C   UNL     1      49.782   7.622  11.548  0.00  0.00    +0.000 A 
ATOM      6  C   UNL     1      50.338   8.902  11.434  0.00  0.00    +0.000 A 
ATOM      7  C   UNL     1      49.486  10.010  11.540  0.00  0.00    +0.000 A 
ATOM      8  C   UNL     1      48.125   9.844  11.832  0.00  0.00    +0.000 A 
BRANCH   6   9
ATOM      9  C   UNL     1      51.825   9.075  11.260  0.00  0.00    +0.000 C 
BRANCH   9  10
ATOM     10  N   UNL     1      52.490   7.909  10.746  0.00  0.00    +0.000 N 
ATOM     11  C   UNL     1      52.911   7.865   9.434  0.00  0.00    +0.000 C 
ATOM     12  O   UNL     1      52.725   8.776   8.637  0.00  0.00    +0.000 OA
ATOM     13  H   UNL     1      52.719   7.118  11.339  0.00  0.00    +0.000 HD
BRANCH  11  14
ATOM     14  C   UNL     1      53.604   6.625   9.082  0.00  0.00    +0.000 A 
ATOM     15  C   UNL     1      54.000   5.628   9.954  0.00  0.00    +0.000 A 
ATOM     16  N   UNL     1      54.602   4.677   9.183  0.00  0.00    +0.000 N 
ATOM     17  C   UNL     1      54.557   5.111   7.887  0.00  0.00    +0.000 A 
ATOM     18  N   UNL     1      53.965   6.280   7.786  0.00  0.00    +0.000 NA
ATOM     19  H   UNL     1      55.010   3.809   9.503  0.00  0.00    +0.000 HD
ENDBRANCH  11  14
ENDBRANCH   9  10
ENDBRANCH   6   9
ENDBRANCH   2   3
BRANCH   2  20
ATOM     20  N   UNL     1      45.604   7.103  11.874  0.00  0.00    +0.000 N 
ATOM     21  C   UNL     1      45.602   5.924  12.575  0.00  0.00    +0.000 C 
ATOM     22  O   UNL     1      46.091   5.829  13.699  0.00  0.00    +0.000 OA
ATOM     23  H   UNL     1      45.258   7.133  10.921  0.00  0.00    +0.000 HD
BRANCH  21  24
ATOM     24  C   UNL     1      44.936   4.781  11.941  0.00  0.00    +0.000 A 
ATOM     25  C   UNL     1      44.151   3.928  12.707  0.00  0.00    +0.000 A 
ATOM     26  S   UNL     1      43.439   2.664  11.808  0.00  0.00    +0.000 S 
ATOM     27  C   UNL     1      44.197   3.182  10.376  0.00  0.00    +0.000 A 
ATOM     28  N   UNL     1      44.035   2.499   9.211  0.00  0.00    +0.000 NA
ATOM     29  C   UNL     1      44.709   2.973   8.217  0.00  0.00    +0.000 A 
ATOM     30  N   UNL     1      45.519   4.077   8.279  0.00  0.00    +0.000 N 
ATOM     31  C   UNL     1      45.642   4.846   9.410  0.00  0.00    +0.000 A 
ATOM     32  O   UNL     1      46.255   5.908   9.388  0.00  0.00    +0.000 OA
ATOM     33  C   UNL     1      44.955   4.322  10.573  0.00  0.00    +0.000 A 
ATOM     34  H   UNL     1      45.992   4.421   7.456  0.00  0.00    +0.000 HD
ENDBRANCH  21  24
ENDBRANCH   2  20
TORSDOF 6
ENDMDL
MODEL 9
REMARK VINA RESULT:    -6.155      1.690      2.397
REMARK INTER + INTRA:          -9.443
REMARK INTER:                  -8.247
REMARK INTRA:                  -1.196
REMARK UNBOUND:                -1.130
REMARK  Name = 
REMARK  7 active torsions:
REMARK  status: ('A' for Active; 'I' for Inactive)
REMARK    1  A    between atoms: C_1  and  C_2
REMARK    2  A    between atoms: C_2  and  N_3
REMARK    3  A    between atoms: C_2  and  C_16
REMARK    4  A    between atoms: C_4  and  C_6
REMARK    5  A    between atoms: C_19  and  C_20
REMARK    6  A    between atoms: C_20  and  N_21
REMARK    7  A    between atoms: C_22  and  C_24
REMARK                            x       y       z     vdW  Elec       q    Type
REMARK                         _______ _______ _______ _____ _____    ______ ____
ROOT
ATOM      1  C   UNL     1      50.304   9.474  14.487  0.00  0.00    +0.000 C 
ATOM      2  C   UNL     1      49.879   8.003  14.531  0.00  0.00    +0.000 C 
ENDROOT
BRANCH   2   3
ATOM      3  C   UNL     1      48.561   7.769  13.805  0.00  0.00    +0.000 A 
ATOM      4  C   UNL     1      47.977   6.495  13.845  0.00  0.00    +0.000 A 
ATOM      5  C   UNL     1      46.820   6.207  13.112  0.00  0.00    +0.000 A 
ATOM      6  C   UNL     1      46.214   7.187  12.316  0.00  0.00    +0.000 A 
ATOM      7  C   UNL     1      46.749   8.482  12.332  0.00  0.00    +0.000 A 
ATOM      8  C   UNL     1      47.912   8.769  13.062  0.00  0.00    +0.000 A 
BRANCH   6   9
ATOM      9  C   UNL     1      45.050   6.835  11.427  0.00  0.00    +0.000 C 
BRANCH   9  10
ATOM     10  N   UNL     1      45.377   5.906  10.380  0.00  0.00    +0.000 N 
ATOM     11  C   UNL     1      44.794   4.657  10.345  0.00  0.00    +0.000 C 
ATOM     12  O   UNL     1      44.006   4.259  11.194  0.00  0.00    +0.000 OA
ATOM     13  H   UNL     1      45.994   6.158   9.614  0.00  0.00    +0.000 HD
BRANCH  11  14
ATOM     14  C   UNL     1      45.205   3.849   9.196  0.00  0.00    +0.000 A 
ATOM     15  C   UNL     1      45.215   2.469   9.124  0.00  0.00    +0.000 A 
ATOM     16  N   UNL     1      45.670   2.166   7.873  0.00  0.00    +0.000 N 
ATOM     17  C   UNL     1      45.918   3.346   7.230  0.00  0.00    +0.000 A 
ATOM     18  N   UNL     1      45.652   4.382   7.994  0.00  0.00    +0.000 NA
ATOM     19  H   UNL     1      45.803   1.241   7.487  0.00  0.00    +0.000 HD
ENDBRANCH  11  14
ENDBRANCH   9  10
ENDBRANCH   6   9
ENDBRANCH   2   3
BRANCH   2  20
ATOM     20  N   UNL     1      49.828   7.526  15.899  0.00  0.00    +0.000 N 
ATOM     21  C   UNL     1      50.906   6.929  16.504  0.00  0.00    +0.000 C 
ATOM     22  O   UNL     1      51.960   6.723  15.907  0.00  0.00    +0.000 OA
ATOM     23  H   UNL     1      48.948   7.616  16.396  0.00  0.00    +0.000 HD
BRANCH  21  24
ATOM     24  C   UNL     1      50.762   6.593  17.924  0.00  0.00    +0.000 A 
ATOM     25  C   UNL     1      51.607   7.176  18.860  0.00  0.00    +0.000 A 
ATOM     26  S   UNL     1      51.291   6.687  20.464  0.00  0.00    +0.000 S 
ATOM     27  C   UNL     1      50.050   5.640  19.958  0.00  0.00    +0.000 A 
ATOM     28  N   UNL     1      49.373   4.871  20.853  0.00  0.00    +0.000 NA
ATOM     29  C   UNL     1      48.494   4.086  20.325  0.00  0.00    +0.000 A 
ATOM     30  N   UNL     1      48.220   4.011  18.984  0.00  0.00    +0.000 N 
ATOM     31  C   UNL     1      48.816   4.832  18.057  0.00  0.00    +0.000 A 
ATOM     32  O   UNL     1      48.440   4.842  16.890  0.00  0.00    +0.000 OA
ATOM     33  C   UNL     1      49.856   5.688  18.589  0.00  0.00    +0.000 A 
ATOM     34  H   UNL     1      47.494   3.403  18.635  0.00  0.00    +0.000 HD
ENDBRANCH  21  24
ENDBRANCH   2  20
TORSDOF 6
ENDMDL
