MODEL 1
REMARK VINA RESULT:    -7.727      0.000      0.000
REMARK INTER + INTRA:         -10.478
REMARK INTER:                 -10.211
REMARK INTRA:                  -0.267
REMARK UNBOUND:                -0.267
REMARK  Name = 
REMARK  8 active torsions:
REMARK  status: ('A' for Active; 'I' for Inactive)
REMARK    1  A    between atoms: C_1  and  C_2
REMARK    2  A    between atoms: C_2  and  O_3
REMARK    3  A    between atoms: C_8  and  C_9
REMARK    4  A    between atoms: C_9  and  C_10
REMARK    5  A    between atoms: C_10  and  N_11
REMARK    6  A    between atoms: C_16  and  C_17
REMARK    7  A    between atoms: C_25  and  O_26
REMARK    8  A    between atoms: C_27  and  O_28
REMARK                            x       y       z     vdW  Elec       q    Type
REMARK                         _______ _______ _______ _____ _____    ______ ____
ROOT
ATOM      1  C   UNL     1      48.891   6.188  19.497  0.00  0.00    +0.000 C 
ATOM      2  C   UNL     1      49.545   4.962  18.844  0.00  0.00    +0.000 C 
ATOM      3  C   UNL     1      50.053   5.297  17.430  0.00  0.00    +0.000 C 
ATOM      4  N   UNL     1      48.979   5.380  16.451  0.00  0.00    +0.000 N 
ATOM      5  C   UNL     1      48.724   6.600  15.852  0.00  0.00    +0.000 A 
ATOM      6  C   UNL     1      48.192   6.619  14.564  0.00  0.00    +0.000 A 
ATOM      7  C   UNL     1      47.889   7.818  13.917  0.00  0.00    +0.000 A 
ATOM      8  C   UNL     1      48.167   8.996  14.604  0.00  0.00    +0.000 A 
ATOM      9  C   UNL     1      48.720   8.908  15.873  0.00  0.00    +0.000 A 
ATOM     10  N   UNL     1      49.009   7.744  16.499  0.00  0.00    +0.000 NA
ATOM     11  C   UNL     1      47.934   4.353  16.428  0.00  0.00    +0.000 C 
ATOM     12  C   UNL     1      47.397   4.029  17.827  0.00  0.00    +0.000 C 
ATOM     13  C   UNL     1      48.557   3.767  18.796  0.00  0.00    +0.000 C 
ENDROOT
BRANCH   2  14
ATOM     14  O   UNL     1      50.670   4.582  19.658  0.00  0.00    +0.000 OA
ATOM     15  H   UNL     1      51.441   4.483  19.076  0.00  0.00    +0.000 HD
ENDBRANCH   2  14
BRANCH  12  16
ATOM     16  O   UNL     1      46.573   2.856  17.750  0.00  0.00    +0.000 OA
ATOM     17  H   UNL     1      46.209   2.741  18.653  0.00  0.00    +0.000 HD
ENDBRANCH  12  16
BRANCH  13  18
ATOM     18  O   UNL     1      49.164   2.517  18.386  0.00  0.00    +0.000 OA
ATOM     19  H   UNL     1      49.719   2.688  17.605  0.00  0.00    +0.000 HD
ENDBRANCH  13  18
BRANCH   7  20
ATOM     20  C   UNL     1      47.265   7.857  12.537  0.00  0.00    +0.000 C 
BRANCH  20  21
ATOM     21  C   UNL     1      45.747   7.615  12.512  0.00  0.00    +0.000 C 
BRANCH  21  22
ATOM     22  N   UNL     1      45.386   6.384  13.192  0.00  0.00    +0.000 N 
ATOM     23  C   UNL     1      44.851   5.417  12.343  0.00  0.00    +0.000 A 
ATOM     24  N   UNL     1      43.946   4.603  12.896  0.00  0.00    +0.000 NA
ATOM     25  C   UNL     1      43.407   3.647  12.112  0.00  0.00    +0.000 A 
ATOM     26  C   UNL     1      43.727   3.487  10.791  0.00  0.00    +0.000 A 
ATOM     27  C   UNL     1      44.654   4.378  10.316  0.00  0.00    +0.000 A 
ATOM     28  N   UNL     1      45.229   5.352  11.057  0.00  0.00    +0.000 NA
ATOM     29  H   UNL     1      44.721   6.477  13.952  0.00  0.00    +0.000 HD
BRANCH  27  30
ATOM     30  C   UNL     1      45.085   4.293   8.886  0.00  0.00    +0.000 C 
ATOM     31  N   UNL     1      44.431   3.373   8.114  0.00  0.00    +0.000 N 
ATOM     32  O   UNL     1      45.970   5.008   8.426  0.00  0.00    +0.000 OA
ATOM     33  H   UNL     1      43.659   2.847   8.503  0.00  0.00    +0.000 HD
ATOM     34  H   UNL     1      44.632   3.325   7.126  0.00  0.00    +0.000 HD
ENDBRANCH  27  30
ENDBRANCH  21  22
ENDBRANCH  20  21
ENDBRANCH   7  20
TORSDOF 7
ENDMDL
MODEL 2
REMARK VINA RESULT:    -7.604      2.540      8.233
REMARK INTER + INTRA:         -10.315
REMARK INTER:                  -9.800
REMARK INTRA:                  -0.515
REMARK UNBOUND:                -0.267
REMARK  Name = 
REMARK  8 active torsions:
REMARK  status: ('A' for Active; 'I' for Inactive)
REMARK    1  A    between atoms: C_1  and  C_2
REMARK    2  A    between atoms: C_2  and  O_3
REMARK    3  A    between atoms: C_8  and  C_9
REMARK    4  A    between atoms: C_9  and  C_10
REMARK    5  A    between atoms: C_10  and  N_11
REMARK    6  A    between atoms: C_16  and  C_17
REMARK    7  A    between atoms: C_25  and  O_26
REMARK    8  A    between atoms: C_27  and  O_28
REMARK                            x       y       z     vdW  Elec       q    Type
REMARK                         _______ _______ _______ _____ _____    ______ ____
ROOT
ATOM      1  C   UNL     1      43.399   3.252  12.879  0.00  0.00    +0.000 C 
ATOM      2  C   UNL     1      44.077   3.560  11.537  0.00  0.00    +0.000 C 
ATOM      3  C   UNL     1      45.605   3.661  11.703  0.00  0.00    +0.000 C 
ATOM      4  N   UNL     1      46.022   4.909  12.323  0.00  0.00    +0.000 N 
ATOM      5  C   UNL     1      46.629   4.859  13.565  0.00  0.00    +0.000 A 
ATOM      6  C   UNL     1      47.547   5.851  13.907  0.00  0.00    +0.000 A 
ATOM      7  C   UNL     1      48.171   5.869  15.155  0.00  0.00    +0.000 A 
ATOM      8  C   UNL     1      47.859   4.836  16.035  0.00  0.00    +0.000 A 
ATOM      9  C   UNL     1      46.957   3.866  15.623  0.00  0.00    +0.000 A 
ATOM     10  N   UNL     1      46.349   3.854  14.414  0.00  0.00    +0.000 NA
ATOM     11  C   UNL     1      45.436   6.176  11.878  0.00  0.00    +0.000 C 
ATOM     12  C   UNL     1      43.912   6.100  11.736  0.00  0.00    +0.000 C 
ATOM     13  C   UNL     1      43.512   4.866  10.918  0.00  0.00    +0.000 C 
ENDROOT
BRANCH   2  14
ATOM     14  O   UNL     1      43.784   2.474  10.639  0.00  0.00    +0.000 OA
ATOM     15  H   UNL     1      43.157   1.880  11.083  0.00  0.00    +0.000 HD
ENDBRANCH   2  14
BRANCH  12  16
ATOM     16  O   UNL     1      43.447   7.281  11.065  0.00  0.00    +0.000 OA
ATOM     17  H   UNL     1      42.996   7.807  11.759  0.00  0.00    +0.000 HD
ENDBRANCH  12  16
BRANCH  13  18
ATOM     18  O   UNL     1      43.952   5.111   9.559  0.00  0.00    +0.000 OA
ATOM     19  H   UNL     1      43.964   4.262   9.083  0.00  0.00    +0.000 HD
ENDBRANCH  13  18
BRANCH   7  20
ATOM     20  C   UNL     1      49.134   6.965  15.562  0.00  0.00    +0.000 C 
BRANCH  20  21
ATOM     21  C   UNL     1      49.751   6.790  16.959  0.00  0.00    +0.000 C 
BRANCH  21  22
ATOM     22  N   UNL     1      51.200   6.722  16.904  0.00  0.00    +0.000 N 
ATOM     23  C   UNL     1      51.712   5.478  17.272  0.00  0.00    +0.000 A 
ATOM     24  N   UNL     1      52.912   5.501  17.861  0.00  0.00    +0.000 NA
ATOM     25  C   UNL     1      53.448   4.319  18.228  0.00  0.00    +0.000 A 
ATOM     26  C   UNL     1      52.820   3.117  18.044  0.00  0.00    +0.000 A 
ATOM     27  C   UNL     1      51.590   3.201  17.444  0.00  0.00    +0.000 A 
ATOM     28  N   UNL     1      51.007   4.358  17.052  0.00  0.00    +0.000 NA
ATOM     29  H   UNL     1      51.698   7.399  17.470  0.00  0.00    +0.000 HD
BRANCH  27  30
ATOM     30  C   UNL     1      50.814   1.948  17.186  0.00  0.00    +0.000 C 
ATOM     31  N   UNL     1      51.276   0.818  17.802  0.00  0.00    +0.000 N 
ATOM     32  O   UNL     1      49.819   1.932  16.469  0.00  0.00    +0.000 OA
ATOM     33  H   UNL     1      52.058   0.876  18.442  0.00  0.00    +0.000 HD
ATOM     34  H   UNL     1      50.749  -0.039  17.721  0.00  0.00    +0.000 HD
ENDBRANCH  27  30
ENDBRANCH  21  22
ENDBRANCH  20  21
ENDBRANCH   7  20
TORSDOF 7
ENDMDL
MODEL 3
REMARK VINA RESULT:    -7.595      1.339      2.007
REMARK INTER + INTRA:         -10.304
REMARK INTER:                  -9.840
REMARK INTRA:                  -0.465
REMARK UNBOUND:                -0.267
REMARK  Name = 
REMARK  8 active torsions:
REMARK  status: ('A' for Active; 'I' for Inactive)
REMARK    1  A    between atoms: C_1  and  C_2
REMARK    2  A    between atoms: C_2  and  O_3
REMARK    3  A    between atoms: C_8  and  C_9
REMARK    4  A    between atoms: C_9  and  C_10
REMARK    5  A    between atoms: C_10  and  N_11
REMARK    6  A    between atoms: C_16  and  C_17
REMARK    7  A    between atoms: C_25  and  O_26
REMARK    8  A    between atoms: C_27  and  O_28
REMARK                            x       y       z     vdW  Elec       q    Type
REMARK                         _______ _______ _______ _____ _____    ______ ____
ROOT
ATOM      1  C   UNL     1      49.077   6.101  19.523  0.00  0.00    +0.000 C 
ATOM      2  C   UNL     1      49.664   4.874  18.812  0.00  0.00    +0.000 C 
ATOM      3  C   UNL     1      50.146   5.237  17.395  0.00  0.00    +0.000 C 
ATOM      4  N   UNL     1      49.049   5.394  16.451  0.00  0.00    +0.000 N 
ATOM      5  C   UNL     1      48.827   6.643  15.899  0.00  0.00    +0.000 A 
ATOM      6  C   UNL     1      48.261   6.726  14.629  0.00  0.00    +0.000 A 
ATOM      7  C   UNL     1      47.987   7.957  14.030  0.00  0.00    +0.000 A 
ATOM      8  C   UNL     1      48.331   9.100  14.747  0.00  0.00    +0.000 A 
ATOM      9  C   UNL     1      48.915   8.947  15.996  0.00  0.00    +0.000 A 
ATOM     10  N   UNL     1      49.174   7.752  16.576  0.00  0.00    +0.000 NA
ATOM     11  C   UNL     1      47.964   4.410  16.424  0.00  0.00    +0.000 C 
ATOM     12  C   UNL     1      47.454   4.059  17.827  0.00  0.00    +0.000 C 
ATOM     13  C   UNL     1      48.629   3.720  18.753  0.00  0.00    +0.000 C 
ENDROOT
BRANCH   2  14
ATOM     14  O   UNL     1      50.795   4.423  19.580  0.00  0.00    +0.000 OA
ATOM     15  H   UNL     1      50.830   4.946  20.397  0.00  0.00    +0.000 HD
ENDBRANCH   2  14
BRANCH  12  16
ATOM     16  O   UNL     1      46.583   2.922  17.735  0.00  0.00    +0.000 OA
ATOM     17  H   UNL     1      47.084   2.258  17.215  0.00  0.00    +0.000 HD
ENDBRANCH  12  16
BRANCH  13  18
ATOM     18  O   UNL     1      49.175   2.462  18.285  0.00  0.00    +0.000 OA
ATOM     19  H   UNL     1      48.519   2.041  17.703  0.00  0.00    +0.000 HD
ENDBRANCH  13  18
BRANCH   7  20
ATOM     20  C   UNL     1      47.329   8.066  12.671  0.00  0.00    +0.000 C 
BRANCH  20  21
ATOM     21  C   UNL     1      46.316   6.952  12.357  0.00  0.00    +0.000 C 
BRANCH  21  22
ATOM     22  N   UNL     1      45.973   6.917  10.947  0.00  0.00    +0.000 N 
ATOM     23  C   UNL     1      45.456   5.690  10.532  0.00  0.00    +0.000 A 
ATOM     24  N   UNL     1      45.723   5.351   9.267  0.00  0.00    +0.000 NA
ATOM     25  C   UNL     1      45.236   4.175   8.821  0.00  0.00    +0.000 A 
ATOM     26  C   UNL     1      44.507   3.318   9.599  0.00  0.00    +0.000 A 
ATOM     27  C   UNL     1      44.297   3.750  10.883  0.00  0.00    +0.000 A 
ATOM     28  N   UNL     1      44.758   4.921  11.382  0.00  0.00    +0.000 NA
ATOM     29  H   UNL     1      46.727   7.126  10.302  0.00  0.00    +0.000 HD
BRANCH  27  30
ATOM     30  C   UNL     1      43.506   2.897  11.823  0.00  0.00    +0.000 C 
ATOM     31  N   UNL     1      43.520   3.276  13.137  0.00  0.00    +0.000 N 
ATOM     32  O   UNL     1      42.874   1.916  11.442  0.00  0.00    +0.000 OA
ATOM     33  H   UNL     1      43.992   4.129  13.410  0.00  0.00    +0.000 HD
ATOM     34  H   UNL     1      42.945   2.779  13.801  0.00  0.00    +0.000 HD
ENDBRANCH  27  30
ENDBRANCH  21  22
ENDBRANCH  20  21
ENDBRANCH   7  20
TORSDOF 7
ENDMDL
MODEL 4
REMARK VINA RESULT:    -7.593      2.318      7.200
REMARK INTER + INTRA:         -10.301
REMARK INTER:                  -9.661
REMARK INTRA:                  -0.640
REMARK UNBOUND:                -0.267
REMARK  Name = 
REMARK  8 active torsions:
REMARK  status: ('A' for Active; 'I' for Inactive)
REMARK    1  A    between atoms: C_1  and  C_2
REMARK    2  A    between atoms: C_2  and  O_3
REMARK    3  A    between atoms: C_8  and  C_9
REMARK    4  A    between atoms: C_9  and  C_10
REMARK    5  A    between atoms: C_10  and  N_11
REMARK    6  A    between atoms: C_16  and  C_17
REMARK    7  A    between atoms: C_25  and  O_26
REMARK    8  A    between atoms: C_27  and  O_28
REMARK                            x       y       z     vdW  Elec       q    Type
REMARK                         _______ _______ _______ _____ _____    ______ ____
ROOT
ATOM      1  C   UNL     1      45.646   5.536   9.983  0.00  0.00    +0.000 C 
ATOM      2  C   UNL     1      44.652   5.448  11.150  0.00  0.00    +0.000 C 
ATOM      3  C   UNL     1      44.927   6.548  12.192  0.00  0.00    +0.000 C 
ATOM      4  N   UNL     1      46.090   6.261  13.019  0.00  0.00    +0.000 N 
ATOM      5  C   UNL     1      47.187   7.099  12.928  0.00  0.00    +0.000 A 
ATOM      6  C   UNL     1      48.009   7.254  14.043  0.00  0.00    +0.000 A 
ATOM      7  C   UNL     1      49.146   8.063  14.005  0.00  0.00    +0.000 A 
ATOM      8  C   UNL     1      49.408   8.731  12.812  0.00  0.00    +0.000 A 
ATOM      9  C   UNL     1      48.536   8.553  11.748  0.00  0.00    +0.000 A 
ATOM     10  N   UNL     1      47.437   7.764  11.787  0.00  0.00    +0.000 NA
ATOM     11  C   UNL     1      46.273   4.920  13.579  0.00  0.00    +0.000 C 
ATOM     12  C   UNL     1      46.030   3.814  12.546  0.00  0.00    +0.000 C 
ATOM     13  C   UNL     1      44.703   4.047  11.815  0.00  0.00    +0.000 C 
ENDROOT
BRANCH   2  14
ATOM     14  O   UNL     1      43.331   5.643  10.614  0.00  0.00    +0.000 OA
ATOM     15  H   UNL     1      43.316   6.499  10.157  0.00  0.00    +0.000 HD
ENDBRANCH   2  14
BRANCH  12  16
ATOM     16  O   UNL     1      45.981   2.548  13.221  0.00  0.00    +0.000 OA
ATOM     17  H   UNL     1      45.077   2.206  13.056  0.00  0.00    +0.000 HD
ENDBRANCH  12  16
BRANCH  13  18
ATOM     18  O   UNL     1      43.651   3.818  12.785  0.00  0.00    +0.000 OA
ATOM     19  H   UNL     1      43.031   4.566  12.748  0.00  0.00    +0.000 HD
ENDBRANCH  13  18
BRANCH   7  20
ATOM     20  C   UNL     1      50.077   8.205  15.190  0.00  0.00    +0.000 C 
BRANCH  20  21
ATOM     21  C   UNL     1      50.507   6.875  15.832  0.00  0.00    +0.000 C 
BRANCH  21  22
ATOM     22  N   UNL     1      50.184   6.829  17.246  0.00  0.00    +0.000 N 
ATOM     23  C   UNL     1      49.699   5.590  17.664  0.00  0.00    +0.000 A 
ATOM     24  N   UNL     1      48.818   5.626  18.669  0.00  0.00    +0.000 NA
ATOM     25  C   UNL     1      48.329   4.449  19.111  0.00  0.00    +0.000 A 
ATOM     26  C   UNL     1      48.676   3.240  18.573  0.00  0.00    +0.000 A 
ATOM     27  C   UNL     1      49.575   3.310  17.541  0.00  0.00    +0.000 A 
ATOM     28  N   UNL     1      50.101   4.461  17.061  0.00  0.00    +0.000 NA
ATOM     29  H   UNL     1      49.503   7.509  17.567  0.00  0.00    +0.000 HD
BRANCH  27  30
ATOM     30  C   UNL     1      50.032   2.048  16.880  0.00  0.00    +0.000 C 
ATOM     31  N   UNL     1      51.017   1.354  17.526  0.00  0.00    +0.000 N 
ATOM     32  O   UNL     1      49.550   1.652  15.823  0.00  0.00    +0.000 OA
ATOM     33  H   UNL     1      51.346   1.669  18.430  0.00  0.00    +0.000 HD
ATOM     34  H   UNL     1      51.311   0.459  17.162  0.00  0.00    +0.000 HD
ENDBRANCH  27  30
ENDBRANCH  21  22
ENDBRANCH  20  21
ENDBRANCH   7  20
TORSDOF 7
ENDMDL
MODEL 5
REMARK VINA RESULT:    -7.092      2.276      7.779
REMARK INTER + INTRA:          -9.638
REMARK INTER:                  -9.216
REMARK INTRA:                  -0.423
REMARK UNBOUND:                -0.267
REMARK  Name = 
REMARK  8 active torsions:
REMARK  status: ('A' for Active; 'I' for Inactive)
REMARK    1  A    between atoms: C_1  and  C_2
REMARK    2  A    between atoms: C_2  and  O_3
REMARK    3  A    between atoms: C_8  and  C_9
REMARK    4  A    between atoms: C_9  and  C_10
REMARK    5  A    between atoms: C_10  and  N_11
REMARK    6  A    between atoms: C_16  and  C_17
REMARK    7  A    between atoms: C_25  and  O_26
REMARK    8  A    between atoms: C_27  and  O_28
REMARK                            x       y       z     vdW  Elec       q    Type
REMARK                         _______ _______ _______ _____ _____    ______ ____
ROOT
ATOM      1  C   UNL     1      45.789   4.376   9.242  0.00  0.00    +0.000 C 
ATOM      2  C   UNL     1      44.441   4.636   9.929  0.00  0.00    +0.000 C 
ATOM      3  C   UNL     1      44.487   5.931  10.760  0.00  0.00    +0.000 C 
ATOM      4  N   UNL     1      45.216   5.772  12.010  0.00  0.00    +0.000 N 
ATOM      5  C   UNL     1      46.386   6.487  12.187  0.00  0.00    +0.000 A 
ATOM      6  C   UNL     1      46.766   6.848  13.479  0.00  0.00    +0.000 A 
ATOM      7  C   UNL     1      47.949   7.546  13.724  0.00  0.00    +0.000 A 
ATOM      8  C   UNL     1      48.721   7.892  12.618  0.00  0.00    +0.000 A 
ATOM      9  C   UNL     1      48.274   7.525  11.358  0.00  0.00    +0.000 A 
ATOM     10  N   UNL     1      47.129   6.844  11.124  0.00  0.00    +0.000 NA
ATOM     11  C   UNL     1      44.978   4.594  12.847  0.00  0.00    +0.000 C 
ATOM     12  C   UNL     1      44.958   3.292  12.037  0.00  0.00    +0.000 C 
ATOM     13  C   UNL     1      44.034   3.434  10.822  0.00  0.00    +0.000 C 
ENDROOT
BRANCH   2  14
ATOM     14  O   UNL     1      43.447   4.787   8.899  0.00  0.00    +0.000 OA
ATOM     15  H   UNL     1      42.855   5.511   9.157  0.00  0.00    +0.000 HD
ENDBRANCH   2  14
BRANCH  12  16
ATOM     16  O   UNL     1      44.476   2.230  12.875  0.00  0.00    +0.000 OA
ATOM     17  H   UNL     1      43.833   2.655  13.481  0.00  0.00    +0.000 HD
ENDBRANCH  12  16
BRANCH  13  18
ATOM     18  O   UNL     1      42.682   3.514  11.337  0.00  0.00    +0.000 OA
ATOM     19  H   UNL     1      42.576   4.371  11.786  0.00  0.00    +0.000 HD
ENDBRANCH  13  18
BRANCH   7  20
ATOM     20  C   UNL     1      48.402   7.904  15.124  0.00  0.00    +0.000 C 
BRANCH  20  21
ATOM     21  C   UNL     1      49.102   6.764  15.883  0.00  0.00    +0.000 C 
BRANCH  21  22
ATOM     22  N   UNL     1      48.173   5.713  16.254  0.00  0.00    +0.000 N 
ATOM     23  C   UNL     1      48.798   4.520  16.615  0.00  0.00    +0.000 A 
ATOM     24  N   UNL     1      48.116   3.405  16.338  0.00  0.00    +0.000 NA
ATOM     25  C   UNL     1      48.680   2.228  16.677  0.00  0.00    +0.000 A 
ATOM     26  C   UNL     1      49.911   2.125  17.266  0.00  0.00    +0.000 A 
ATOM     27  C   UNL     1      50.536   3.323  17.498  0.00  0.00    +0.000 A 
ATOM     28  N   UNL     1      50.014   4.531  17.183  0.00  0.00    +0.000 NA
ATOM     29  H   UNL     1      47.488   5.458  15.551  0.00  0.00    +0.000 HD
BRANCH  27  30
ATOM     30  C   UNL     1      51.884   3.333  18.145  0.00  0.00    +0.000 C 
ATOM     31  N   UNL     1      52.410   2.110  18.458  0.00  0.00    +0.000 N 
ATOM     32  O   UNL     1      52.490   4.375  18.379  0.00  0.00    +0.000 OA
ATOM     33  H   UNL     1      51.918   1.267  18.191  0.00  0.00    +0.000 HD
ATOM     34  H   UNL     1      53.347   2.056  18.830  0.00  0.00    +0.000 HD
ENDBRANCH  27  30
ENDBRANCH  21  22
ENDBRANCH  20  21
ENDBRANCH   7  20
TORSDOF 7
ENDMDL
MODEL 6
REMARK VINA RESULT:    -6.792      2.475      7.031
REMARK INTER + INTRA:          -9.242
REMARK INTER:                  -8.380
REMARK INTRA:                  -0.862
REMARK UNBOUND:                -0.267
REMARK  Name = 
REMARK  8 active torsions:
REMARK  status: ('A' for Active; 'I' for Inactive)
REMARK    1  A    between atoms: C_1  and  C_2
REMARK    2  A    between atoms: C_2  and  O_3
REMARK    3  A    between atoms: C_8  and  C_9
REMARK    4  A    between atoms: C_9  and  C_10
REMARK    5  A    between atoms: C_10  and  N_11
REMARK    6  A    between atoms: C_16  and  C_17
REMARK    7  A    between atoms: C_25  and  O_26
REMARK    8  A    between atoms: C_27  and  O_28
REMARK                            x       y       z     vdW  Elec       q    Type
REMARK                         _______ _______ _______ _____ _____    ______ ____
ROOT
ATOM      1  C   UNL     1      42.578   6.113  11.708  0.00  0.00    +0.000 C 
ATOM      2  C   UNL     1      43.240   4.941  12.446  0.00  0.00    +0.000 C 
ATOM      3  C   UNL     1      44.470   5.415  13.242  0.00  0.00    +0.000 C 
ATOM      4  N   UNL     1      45.624   5.673  12.393  0.00  0.00    +0.000 N 
ATOM      5  C   UNL     1      46.100   6.969  12.302  0.00  0.00    +0.000 A 
ATOM      6  C   UNL     1      47.455   7.171  12.045  0.00  0.00    +0.000 A 
ATOM      7  C   UNL     1      47.989   8.454  11.915  0.00  0.00    +0.000 A 
ATOM      8  C   UNL     1      47.115   9.524  12.081  0.00  0.00    +0.000 A 
ATOM      9  C   UNL     1      45.783   9.254  12.360  0.00  0.00    +0.000 A 
ATOM     10  N   UNL     1      45.267   8.009  12.481  0.00  0.00    +0.000 NA
ATOM     11  C   UNL     1      45.987   4.715  11.346  0.00  0.00    +0.000 C 
ATOM     12  C   UNL     1      44.776   4.255  10.526  0.00  0.00    +0.000 C 
ATOM     13  C   UNL     1      43.637   3.816  11.454  0.00  0.00    +0.000 C 
ENDROOT
BRANCH   2  14
ATOM     14  O   UNL     1      42.274   4.405  13.369  0.00  0.00    +0.000 OA
ATOM     15  H   UNL     1      42.479   4.753  14.252  0.00  0.00    +0.000 HD
ENDBRANCH   2  14
BRANCH  12  16
ATOM     16  O   UNL     1      45.166   3.146   9.701  0.00  0.00    +0.000 OA
ATOM     17  H   UNL     1      45.915   2.726  10.176  0.00  0.00    +0.000 HD
ENDBRANCH  12  16
BRANCH  13  18
ATOM     18  O   UNL     1      44.076   2.593  12.097  0.00  0.00    +0.000 OA
ATOM     19  H   UNL     1      45.044   2.625  12.189  0.00  0.00    +0.000 HD
ENDBRANCH  13  18
BRANCH   7  20
ATOM     20  C   UNL     1      49.449   8.692  11.589  0.00  0.00    +0.000 C 
BRANCH  20  21
ATOM     21  C   UNL     1      50.412   7.629  12.143  0.00  0.00    +0.000 C 
BRANCH  21  22
ATOM     22  N   UNL     1      51.092   8.090  13.339  0.00  0.00    +0.000 N 
ATOM     23  C   UNL     1      50.384   7.837  14.514  0.00  0.00    +0.000 A 
ATOM     24  N   UNL     1      50.559   8.727  15.495  0.00  0.00    +0.000 NA
ATOM     25  C   UNL     1      49.899   8.517  16.652  0.00  0.00    +0.000 A 
ATOM     26  C   UNL     1      49.054   7.460  16.856  0.00  0.00    +0.000 A 
ATOM     27  C   UNL     1      48.932   6.611  15.786  0.00  0.00    +0.000 A 
ATOM     28  N   UNL     1      49.574   6.771  14.606  0.00  0.00    +0.000 NA
ATOM     29  H   UNL     1      51.320   9.078  13.367  0.00  0.00    +0.000 HD
BRANCH  27  30
ATOM     30  C   UNL     1      48.041   5.415  15.898  0.00  0.00    +0.000 C 
ATOM     31  N   UNL     1      47.512   5.174  17.136  0.00  0.00    +0.000 N 
ATOM     32  O   UNL     1      47.791   4.693  14.938  0.00  0.00    +0.000 OA
ATOM     33  H   UNL     1      47.680   5.825  17.892  0.00  0.00    +0.000 HD
ATOM     34  H   UNL     1      46.846   4.423  17.251  0.00  0.00    +0.000 HD
ENDBRANCH  27  30
ENDBRANCH  21  22
ENDBRANCH  20  21
ENDBRANCH   7  20
TORSDOF 7
ENDMDL
MODEL 7
REMARK VINA RESULT:    -6.679      2.638      8.559
REMARK INTER + INTRA:          -9.094
REMARK INTER:                  -8.808
REMARK INTRA:                  -0.286
REMARK UNBOUND:                -0.267
REMARK  Name = 
REMARK  8 active torsions:
REMARK  status: ('A' for Active; 'I' for Inactive)
REMARK    1  A    between atoms: C_1  and  C_2
REMARK    2  A    between atoms: C_2  and  O_3
REMARK    3  A    between atoms: C_8  and  C_9
REMARK    4  A    between atoms: C_9  and  C_10
REMARK    5  A    between atoms: C_10  and  N_11
REMARK    6  A    between atoms: C_16  and  C_17
REMARK    7  A    between atoms: C_25  and  O_26
REMARK    8  A    between atoms: C_27  and  O_28
REMARK                            x       y       z     vdW  Elec       q    Type
REMARK                         _______ _______ _______ _____ _____    ______ ____
ROOT
ATOM      1  C   UNL     1      43.427   3.108  12.907  0.00  0.00    +0.000 C 
ATOM      2  C   UNL     1      43.931   3.452  11.498  0.00  0.00    +0.000 C 
ATOM      3  C   UNL     1      45.443   3.745  11.511  0.00  0.00    +0.000 C 
ATOM      4  N   UNL     1      45.757   5.055  12.062  0.00  0.00    +0.000 N 
ATOM      5  C   UNL     1      46.480   5.120  13.239  0.00  0.00    +0.000 A 
ATOM      6  C   UNL     1      47.294   6.228  13.468  0.00  0.00    +0.000 A 
ATOM      7  C   UNL     1      48.027   6.364  14.648  0.00  0.00    +0.000 A 
ATOM      8  C   UNL     1      47.931   5.331  15.576  0.00  0.00    +0.000 A 
ATOM      9  C   UNL     1      47.123   4.244  15.275  0.00  0.00    +0.000 A 
ATOM     10  N   UNL     1      46.410   4.118  14.132  0.00  0.00    +0.000 NA
ATOM     11  C   UNL     1      44.978   6.225  11.650  0.00  0.00    +0.000 C 
ATOM     12  C   UNL     1      43.468   5.958  11.658  0.00  0.00    +0.000 C 
ATOM     13  C   UNL     1      43.151   4.657  10.910  0.00  0.00    +0.000 C 
ENDROOT
BRANCH   2  14
ATOM     14  O   UNL     1      43.692   2.309  10.657  0.00  0.00    +0.000 OA
ATOM     15  H   UNL     1      42.943   1.816  11.027  0.00  0.00    +0.000 HD
ENDBRANCH   2  14
BRANCH  12  16
ATOM     16  O   UNL     1      42.798   7.050  11.011  0.00  0.00    +0.000 OA
ATOM     17  H   UNL     1      42.959   7.826  11.589  0.00  0.00    +0.000 HD
ENDBRANCH  12  16
BRANCH  13  18
ATOM     18  O   UNL     1      43.426   4.909   9.510  0.00  0.00    +0.000 OA
ATOM     19  H   UNL     1      42.586   5.120   9.066  0.00  0.00    +0.000 HD
ENDBRANCH  13  18
BRANCH   7  20
ATOM     20  C   UNL     1      48.879   7.583  14.935  0.00  0.00    +0.000 C 
BRANCH  20  21
ATOM     21  C   UNL     1      49.450   7.645  16.362  0.00  0.00    +0.000 C 
BRANCH  21  22
ATOM     22  N   UNL     1      48.443   8.042  17.329  0.00  0.00    +0.000 N 
ATOM     23  C   UNL     1      48.532   7.352  18.538  0.00  0.00    +0.000 A 
ATOM     24  N   UNL     1      47.374   7.155  19.175  0.00  0.00    +0.000 NA
ATOM     25  C   UNL     1      47.414   6.499  20.352  0.00  0.00    +0.000 A 
ATOM     26  C   UNL     1      48.568   6.016  20.907  0.00  0.00    +0.000 A 
ATOM     27  C   UNL     1      49.699   6.258  20.172  0.00  0.00    +0.000 A 
ATOM     28  N   UNL     1      49.718   6.915  18.989  0.00  0.00    +0.000 NA
ATOM     29  H   UNL     1      47.479   7.944  17.031  0.00  0.00    +0.000 HD
BRANCH  27  30
ATOM     30  C   UNL     1      51.022   5.782  20.685  0.00  0.00    +0.000 C 
ATOM     31  N   UNL     1      51.243   4.435  20.617  0.00  0.00    +0.000 N 
ATOM     32  O   UNL     1      51.863   6.552  21.137  0.00  0.00    +0.000 OA
ATOM     33  H   UNL     1      50.559   3.833  20.175  0.00  0.00    +0.000 HD
ATOM     34  H   UNL     1      52.146   4.068  20.882  0.00  0.00    +0.000 HD
ENDBRANCH  27  30
ENDBRANCH  21  22
ENDBRANCH  20  21
ENDBRANCH   7  20
TORSDOF 7
ENDMDL
MODEL 8
REMARK VINA RESULT:    -6.441      3.279      5.102
REMARK INTER + INTRA:          -8.778
REMARK INTER:                  -8.397
REMARK INTRA:                  -0.381
REMARK UNBOUND:                -0.267
REMARK  Name = 
REMARK  8 active torsions:
REMARK  status: ('A' for Active; 'I' for Inactive)
REMARK    1  A    between atoms: C_1  and  C_2
REMARK    2  A    between atoms: C_2  and  O_3
REMARK    3  A    between atoms: C_8  and  C_9
REMARK    4  A    between atoms: C_9  and  C_10
REMARK    5  A    between atoms: C_10  and  N_11
REMARK    6  A    between atoms: C_16  and  C_17
REMARK    7  A    between atoms: C_25  and  O_26
REMARK    8  A    between atoms: C_27  and  O_28
REMARK                            x       y       z     vdW  Elec       q    Type
REMARK                         _______ _______ _______ _____ _____    ______ ____
ROOT
ATOM      1  C   UNL     1      54.872   3.907  17.067  0.00  0.00    +0.000 C 
ATOM      2  C   UNL     1      54.646   5.100  18.005  0.00  0.00    +0.000 C 
ATOM      3  C   UNL     1      53.319   4.952  18.773  0.00  0.00    +0.000 C 
ATOM      4  N   UNL     1      52.156   5.242  17.948  0.00  0.00    +0.000 N 
ATOM      5  C   UNL     1      51.265   4.218  17.680  0.00  0.00    +0.000 A 
ATOM      6  C   UNL     1      49.926   4.533  17.456  0.00  0.00    +0.000 A 
ATOM      7  C   UNL     1      48.984   3.547  17.155  0.00  0.00    +0.000 A 
ATOM      8  C   UNL     1      49.436   2.231  17.115  0.00  0.00    +0.000 A 
ATOM      9  C   UNL     1      50.777   1.983  17.372  0.00  0.00    +0.000 A 
ATOM     10  N   UNL     1      51.688   2.942  17.659  0.00  0.00    +0.000 NA
ATOM     11  C   UNL     1      52.155   6.420  17.077  0.00  0.00    +0.000 C 
ATOM     12  C   UNL     1      53.459   6.566  16.284  0.00  0.00    +0.000 C 
ATOM     13  C   UNL     1      54.669   6.436  17.217  0.00  0.00    +0.000 C 
ENDROOT
BRANCH   2  14
ATOM     14  O   UNL     1      55.726   5.120  18.956  0.00  0.00    +0.000 OA
ATOM     15  H   UNL     1      56.438   5.668  18.589  0.00  0.00    +0.000 HD
ENDBRANCH   2  14
BRANCH  12  16
ATOM     16  O   UNL     1      53.482   7.858  15.658  0.00  0.00    +0.000 OA
ATOM     17  H   UNL     1      54.223   7.817  15.017  0.00  0.00    +0.000 HD
ENDBRANCH  12  16
BRANCH  13  18
ATOM     18  O   UNL     1      54.670   7.616  18.059  0.00  0.00    +0.000 OA
ATOM     19  H   UNL     1      54.638   7.330  18.988  0.00  0.00    +0.000 HD
ENDBRANCH  13  18
BRANCH   7  20
ATOM     20  C   UNL     1      47.536   3.876  16.862  0.00  0.00    +0.000 C 
BRANCH  20  21
ATOM     21  C   UNL     1      47.159   3.839  15.371  0.00  0.00    +0.000 C 
BRANCH  21  22
ATOM     22  N   UNL     1      46.982   5.173  14.826  0.00  0.00    +0.000 N 
ATOM     23  C   UNL     1      46.376   5.185  13.571  0.00  0.00    +0.000 A 
ATOM     24  N   UNL     1      46.748   6.181  12.761  0.00  0.00    +0.000 NA
ATOM     25  C   UNL     1      46.180   6.235  11.539  0.00  0.00    +0.000 A 
ATOM     26  C   UNL     1      45.268   5.319  11.090  0.00  0.00    +0.000 A 
ATOM     27  C   UNL     1      44.962   4.330  11.990  0.00  0.00    +0.000 A 
ATOM     28  N   UNL     1      45.497   4.230  13.228  0.00  0.00    +0.000 NA
ATOM     29  H   UNL     1      47.826   5.726  14.725  0.00  0.00    +0.000 HD
BRANCH  27  30
ATOM     30  C   UNL     1      43.970   3.277  11.610  0.00  0.00    +0.000 C 
ATOM     31  N   UNL     1      43.717   2.321  12.555  0.00  0.00    +0.000 N 
ATOM     32  O   UNL     1      43.410   3.269  10.518  0.00  0.00    +0.000 OA
ATOM     33  H   UNL     1      44.141   2.393  13.471  0.00  0.00    +0.000 HD
ATOM     34  H   UNL     1      43.003   1.629  12.379  0.00  0.00    +0.000 HD
ENDBRANCH  27  30
ENDBRANCH  21  22
ENDBRANCH  20  21
ENDBRANCH   7  20
TORSDOF 7
ENDMDL
MODEL 9
REMARK VINA RESULT:    -6.266      3.334      4.929
REMARK INTER + INTRA:          -8.547
REMARK INTER:                  -8.209
REMARK INTRA:                  -0.338
REMARK UNBOUND:                -0.267
REMARK  Name = 
REMARK  8 active torsions:
REMARK  status: ('A' for Active; 'I' for Inactive)
REMARK    1  A    between atoms: C_1  and  C_2
REMARK    2  A    between atoms: C_2  and  O_3
REMARK    3  A    between atoms: C_8  and  C_9
REMARK    4  A    between atoms: C_9  and  C_10
REMARK    5  A    between atoms: C_10  and  N_11
REMARK    6  A    between atoms: C_16  and  C_17
REMARK    7  A    between atoms: C_25  and  O_26
REMARK    8  A    between atoms: C_27  and  O_28
REMARK                            x       y       z     vdW  Elec       q    Type
REMARK                         _______ _______ _______ _____ _____    ______ ____
ROOT
ATOM      1  C   UNL     1      54.570   4.003  17.816  0.00  0.00    +0.000 C 
ATOM      2  C   UNL     1      54.155   4.833  19.039  0.00  0.00    +0.000 C 
ATOM      3  C   UNL     1      52.775   4.392  19.560  0.00  0.00    +0.000 C 
ATOM      4  N   UNL     1      51.680   4.870  18.728  0.00  0.00    +0.000 N 
ATOM      5  C   UNL     1      50.906   3.941  18.057  0.00  0.00    +0.000 A 
ATOM      6  C   UNL     1      49.575   4.247  17.780  0.00  0.00    +0.000 A 
ATOM      7  C   UNL     1      48.752   3.362  17.082  0.00  0.00    +0.000 A 
ATOM      8  C   UNL     1      49.311   2.146  16.698  0.00  0.00    +0.000 A 
ATOM      9  C   UNL     1      50.634   1.893  17.027  0.00  0.00    +0.000 A 
ATOM     10  N   UNL     1      51.431   2.755  17.699  0.00  0.00    +0.000 NA
ATOM     11  C   UNL     1      51.670   6.260  18.265  0.00  0.00    +0.000 C 
ATOM     12  C   UNL     1      53.031   6.705  17.716  0.00  0.00    +0.000 C 
ATOM     13  C   UNL     1      54.148   6.348  18.704  0.00  0.00    +0.000 C 
ENDROOT
BRANCH   2  14
ATOM     14  O   UNL     1      55.130   4.606  20.073  0.00  0.00    +0.000 OA
ATOM     15  H   UNL     1      54.782   4.977  20.900  0.00  0.00    +0.000 HD
ENDBRANCH   2  14
BRANCH  12  16
ATOM     16  O   UNL     1      53.011   8.128  17.521  0.00  0.00    +0.000 OA
ATOM     17  H   UNL     1      52.305   8.457  18.116  0.00  0.00    +0.000 HD
ENDBRANCH  12  16
BRANCH  13  18
ATOM     18  O   UNL     1      53.969   7.205  19.858  0.00  0.00    +0.000 OA
ATOM     19  H   UNL     1      54.293   8.094  19.633  0.00  0.00    +0.000 HD
ENDBRANCH  13  18
BRANCH   7  20
ATOM     20  C   UNL     1      47.318   3.698  16.731  0.00  0.00    +0.000 C 
BRANCH  20  21
ATOM     21  C   UNL     1      47.141   4.442  15.396  0.00  0.00    +0.000 C 
BRANCH  21  22
ATOM     22  N   UNL     1      47.050   3.524  14.276  0.00  0.00    +0.000 N 
ATOM     23  C   UNL     1      46.174   3.950  13.278  0.00  0.00    +0.000 A 
ATOM     24  N   UNL     1      45.551   2.978  12.605  0.00  0.00    +0.000 NA
ATOM     25  C   UNL     1      44.700   3.346  11.626  0.00  0.00    +0.000 A 
ATOM     26  C   UNL     1      44.434   4.650  11.308  0.00  0.00    +0.000 A 
ATOM     27  C   UNL     1      45.113   5.571  12.063  0.00  0.00    +0.000 A 
ATOM     28  N   UNL     1      45.981   5.259  13.053  0.00  0.00    +0.000 NA
ATOM     29  H   UNL     1      46.766   2.577  14.500  0.00  0.00    +0.000 HD
BRANCH  27  30
ATOM     30  C   UNL     1      44.907   7.029  11.799  0.00  0.00    +0.000 C 
ATOM     31  N   UNL     1      43.644   7.400  11.426  0.00  0.00    +0.000 N 
ATOM     32  O   UNL     1      45.812   7.849  11.914  0.00  0.00    +0.000 OA
ATOM     33  H   UNL     1      42.902   6.712  11.407  0.00  0.00    +0.000 HD
ATOM     34  H   UNL     1      43.432   8.380  11.307  0.00  0.00    +0.000 HD
ENDBRANCH  27  30
ENDBRANCH  21  22
ENDBRANCH  20  21
ENDBRANCH   7  20
TORSDOF 7
ENDMDL
