MODEL 1
REMARK VINA RESULT:    -8.672      0.000      0.000
REMARK INTER + INTRA:         -13.435
REMARK INTER:                 -12.474
REMARK INTRA:                  -0.961
REMARK UNBOUND:                -0.961
REMARK  Name = 
REMARK  8 active torsions:
REMARK  status: ('A' for Active; 'I' for Inactive)
REMARK    1  A    between atoms: C_2  and  C_21
REMARK    2  A    between atoms: N_3  and  C_4
REMARK    3  A    between atoms: C_4  and  C_5
REMARK    4  A    between atoms: C_8  and  C_9
REMARK    5  A    between atoms: C_9  and  O_10
REMARK    6  A    between atoms: C_9  and  C_11
REMARK    7  A    between atoms: C_11  and  C_12
REMARK    8  A    between atoms: C_12  and  C_13
REMARK                            x       y       z     vdW  Elec       q    Type
REMARK                         _______ _______ _______ _____ _____    ______ ____
ROOT
ATOM      1  C   UNL     1      47.087   5.914  13.153  0.00  0.00    +0.000 A 
ATOM      2  C   UNL     1      46.476   4.867  13.835  0.00  0.00    +0.000 A 
ATOM      3  N   UNL     1      45.475   4.113  13.306  0.00  0.00    +0.000 NA
ATOM      4  C   UNL     1      45.085   4.447  12.043  0.00  0.00    +0.000 A 
ATOM      5  C   UNL     1      45.703   5.486  11.356  0.00  0.00    +0.000 A 
ATOM      6  N   UNL     1      46.702   6.234  11.889  0.00  0.00    +0.000 NA
ENDROOT
BRANCH   1   7
ATOM      7  C   UNL     1      48.147   6.762  13.813  0.00  0.00    +0.000 C 
BRANCH   7  10
ATOM      8  O   UNL     1      50.296   6.545  15.555  0.00  0.00    +0.000 OA
ATOM      9  C   UNL     1      49.181   6.712  16.040  0.00  0.00    +0.000 C 
ATOM     10  N   UNL     1      48.049   6.745  15.260  0.00  0.00    +0.000 N 
ATOM     11  H   UNL     1      47.208   7.157  15.652  0.00  0.00    +0.000 HD
BRANCH   9  12
ATOM     12  C   UNL     1      48.988   6.843  17.491  0.00  0.00    +0.000 A 
ATOM     13  C   UNL     1      48.847   8.100  18.065  0.00  0.00    +0.000 A 
ATOM     14  S   UNL     1      48.629   8.057  19.757  0.00  0.00    +0.000 S 
ATOM     15  C   UNL     1      48.665   6.358  19.776  0.00  0.00    +0.000 A 
ATOM     16  N   UNL     1      48.488   5.664  20.934  0.00  0.00    +0.000 NA
ATOM     17  C   UNL     1      48.501   4.381  20.795  0.00  0.00    +0.000 A 
ATOM     18  N   UNL     1      48.694   3.727  19.603  0.00  0.00    +0.000 N 
ATOM     19  C   UNL     1      48.935   4.386  18.425  0.00  0.00    +0.000 A 
ATOM     20  O   UNL     1      49.202   3.772  17.395  0.00  0.00    +0.000 OA
ATOM     21  C   UNL     1      48.881   5.831  18.514  0.00  0.00    +0.000 A 
ATOM     22  H   UNL     1      48.723   2.720  19.567  0.00  0.00    +0.000 HD
ENDBRANCH   9  12
ENDBRANCH   7  10
ENDBRANCH   1   7
BRANCH   4  23
ATOM     23  C   UNL     1      43.894   3.714  11.453  0.00  0.00    +0.000 C 
BRANCH  23  24
ATOM     24  O   UNL     1      43.815   2.409  12.045  0.00  0.00    +0.000 OA
ATOM     25  H   UNL     1      44.146   2.525  12.961  0.00  0.00    +0.000 HD
ENDBRANCH  23  24
BRANCH  23  26
ATOM     26  C   UNL     1      43.967   3.542   9.928  0.00  0.00    +0.000 C 
BRANCH  26  27
ATOM     27  C   UNL     1      44.617   2.201   9.549  0.00  0.00    +0.000 C 
BRANCH  27  28
ATOM     28  C   UNL     1      45.614   2.318   8.420  0.00  0.00    +0.000 A 
ATOM     29  C   UNL     1      46.388   1.209   8.047  0.00  0.00    +0.000 A 
ATOM     30  C   UNL     1      47.295   1.299   6.988  0.00  0.00    +0.000 A 
ATOM     31  C   UNL     1      47.443   2.499   6.294  0.00  0.00    +0.000 A 
ATOM     32  C   UNL     1      46.682   3.608   6.660  0.00  0.00    +0.000 A 
ATOM     33  C   UNL     1      45.774   3.521   7.718  0.00  0.00    +0.000 A 
ENDBRANCH  27  28
ENDBRANCH  26  27
ENDBRANCH  23  26
ENDBRANCH   4  23
TORSDOF 8
ENDMDL
MODEL 2
REMARK VINA RESULT:    -8.179      1.816      3.129
REMARK INTER + INTRA:         -12.726
REMARK INTER:                 -11.640
REMARK INTRA:                  -1.087
REMARK UNBOUND:                -0.961
REMARK  Name = 
REMARK  8 active torsions:
REMARK  status: ('A' for Active; 'I' for Inactive)
REMARK    1  A    between atoms: C_2  and  C_21
REMARK    2  A    between atoms: N_3  and  C_4
REMARK    3  A    between atoms: C_4  and  C_5
REMARK    4  A    between atoms: C_8  and  C_9
REMARK    5  A    between atoms: C_9  and  O_10
REMARK    6  A    between atoms: C_9  and  C_11
REMARK    7  A    between atoms: C_11  and  C_12
REMARK    8  A    between atoms: C_12  and  C_13
REMARK                            x       y       z     vdW  Elec       q    Type
REMARK                         _______ _______ _______ _____ _____    ______ ____
ROOT
ATOM      1  C   UNL     1      46.464   4.293  13.915  0.00  0.00    +0.000 A 
ATOM      2  C   UNL     1      46.016   5.560  13.556  0.00  0.00    +0.000 A 
ATOM      3  N   UNL     1      45.117   5.781  12.559  0.00  0.00    +0.000 NA
ATOM      4  C   UNL     1      44.669   4.671  11.907  0.00  0.00    +0.000 A 
ATOM      5  C   UNL     1      45.108   3.403  12.273  0.00  0.00    +0.000 A 
ATOM      6  N   UNL     1      46.004   3.189  13.270  0.00  0.00    +0.000 NA
ENDROOT
BRANCH   1   7
ATOM      7  C   UNL     1      47.513   4.111  14.984  0.00  0.00    +0.000 C 
BRANCH   7  10
ATOM      8  O   UNL     1      49.602   4.673  16.722  0.00  0.00    +0.000 OA
ATOM      9  C   UNL     1      48.654   5.452  16.695  0.00  0.00    +0.000 C 
ATOM     10  N   UNL     1      47.538   5.210  15.930  0.00  0.00    +0.000 N 
ATOM     11  H   UNL     1      46.922   5.989  15.719  0.00  0.00    +0.000 HD
BRANCH   9  12
ATOM     12  C   UNL     1      48.640   6.671  17.517  0.00  0.00    +0.000 A 
ATOM     13  C   UNL     1      48.745   6.580  18.899  0.00  0.00    +0.000 A 
ATOM     14  S   UNL     1      48.713   8.093  19.687  0.00  0.00    +0.000 S 
ATOM     15  C   UNL     1      48.607   8.924  18.209  0.00  0.00    +0.000 A 
ATOM     16  N   UNL     1      48.586  10.285  18.168  0.00  0.00    +0.000 NA
ATOM     17  C   UNL     1      48.542  10.783  16.978  0.00  0.00    +0.000 A 
ATOM     18  N   UNL     1      48.498  10.041  15.823  0.00  0.00    +0.000 N 
ATOM     19  C   UNL     1      48.457   8.671  15.821  0.00  0.00    +0.000 A 
ATOM     20  O   UNL     1      48.319   8.039  14.777  0.00  0.00    +0.000 OA
ATOM     21  C   UNL     1      48.556   8.058  17.130  0.00  0.00    +0.000 A 
ATOM     22  H   UNL     1      48.435  10.492  14.924  0.00  0.00    +0.000 HD
ENDBRANCH   9  12
ENDBRANCH   7  10
ENDBRANCH   1   7
BRANCH   4  23
ATOM     23  C   UNL     1      43.757   4.871  10.711  0.00  0.00    +0.000 C 
BRANCH  23  24
ATOM     24  O   UNL     1      42.401   4.640  11.121  0.00  0.00    +0.000 OA
ATOM     25  H   UNL     1      42.381   3.705  11.417  0.00  0.00    +0.000 HD
ENDBRANCH  23  24
BRANCH  23  26
ATOM     26  C   UNL     1      44.066   3.936   9.533  0.00  0.00    +0.000 C 
BRANCH  26  27
ATOM     27  C   UNL     1      45.318   4.398   8.769  0.00  0.00    +0.000 C 
BRANCH  27  28
ATOM     28  C   UNL     1      45.982   3.291   7.983  0.00  0.00    +0.000 A 
ATOM     29  C   UNL     1      46.609   3.573   6.761  0.00  0.00    +0.000 A 
ATOM     30  C   UNL     1      47.248   2.562   6.039  0.00  0.00    +0.000 A 
ATOM     31  C   UNL     1      47.262   1.257   6.527  0.00  0.00    +0.000 A 
ATOM     32  C   UNL     1      46.638   0.964   7.739  0.00  0.00    +0.000 A 
ATOM     33  C   UNL     1      45.998   1.974   8.463  0.00  0.00    +0.000 A 
ENDBRANCH  27  28
ENDBRANCH  26  27
ENDBRANCH  23  26
ENDBRANCH   4  23
TORSDOF 8
ENDMDL
MODEL 3
REMARK VINA RESULT:    -8.087      1.938      2.625
REMARK INTER + INTRA:         -12.594
REMARK INTER:                 -11.590
REMARK INTRA:                  -1.004
REMARK UNBOUND:                -0.961
REMARK  Name = 
REMARK  8 active torsions:
REMARK  status: ('A' for Active; 'I' for Inactive)
REMARK    1  A    between atoms: C_2  and  C_21
REMARK    2  A    between atoms: N_3  and  C_4
REMARK    3  A    between atoms: C_4  and  C_5
REMARK    4  A    between atoms: C_8  and  C_9
REMARK    5  A    between atoms: C_9  and  O_10
REMARK    6  A    between atoms: C_9  and  C_11
REMARK    7  A    between atoms: C_11  and  C_12
REMARK    8  A    between atoms: C_12  and  C_13
REMARK                            x       y       z     vdW  Elec       q    Type
REMARK                         _______ _______ _______ _____ _____    ______ ____
ROOT
ATOM      1  C   UNL     1      45.313   7.005  12.496  0.00  0.00    +0.000 A 
ATOM      2  C   UNL     1      44.241   6.910  11.615  0.00  0.00    +0.000 A 
ATOM      3  N   UNL     1      43.671   5.729  11.255  0.00  0.00    +0.000 NA
ATOM      4  C   UNL     1      44.220   4.611  11.810  0.00  0.00    +0.000 A 
ATOM      5  C   UNL     1      45.283   4.706  12.701  0.00  0.00    +0.000 A 
ATOM      6  N   UNL     1      45.848   5.888  13.057  0.00  0.00    +0.000 NA
ENDROOT
BRANCH   1   7
ATOM      7  C   UNL     1      45.951   8.336  12.808  0.00  0.00    +0.000 C 
BRANCH   7  10
ATOM      8  O   UNL     1      48.491   9.421  13.078  0.00  0.00    +0.000 OA
ATOM      9  C   UNL     1      47.968   8.933  14.076  0.00  0.00    +0.000 C 
ATOM     10  N   UNL     1      46.750   8.298  14.018  0.00  0.00    +0.000 N 
ATOM     11  H   UNL     1      46.237   8.165  14.884  0.00  0.00    +0.000 HD
BRANCH   9  12
ATOM     12  C   UNL     1      48.637   8.961  15.384  0.00  0.00    +0.000 A 
ATOM     13  C   UNL     1      48.920  10.176  15.996  0.00  0.00    +0.000 A 
ATOM     14  S   UNL     1      49.695  10.014  17.508  0.00  0.00    +0.000 S 
ATOM     15  C   UNL     1      49.635   8.319  17.421  0.00  0.00    +0.000 A 
ATOM     16  N   UNL     1      50.105   7.546  18.439  0.00  0.00    +0.000 NA
ATOM     17  C   UNL     1      49.961   6.276  18.256  0.00  0.00    +0.000 A 
ATOM     18  N   UNL     1      49.408   5.707  17.136  0.00  0.00    +0.000 N 
ATOM     19  C   UNL     1      48.979   6.445  16.062  0.00  0.00    +0.000 A 
ATOM     20  O   UNL     1      48.579   5.902  15.035  0.00  0.00    +0.000 OA
ATOM     21  C   UNL     1      49.069   7.880  16.236  0.00  0.00    +0.000 A 
ATOM     22  H   UNL     1      49.352   4.705  17.041  0.00  0.00    +0.000 HD
ENDBRANCH   9  12
ENDBRANCH   7  10
ENDBRANCH   1   7
BRANCH   4  23
ATOM     23  C   UNL     1      43.697   3.262  11.351  0.00  0.00    +0.000 C 
BRANCH  23  24
ATOM     24  O   UNL     1      43.576   2.401  12.493  0.00  0.00    +0.000 OA
ATOM     25  H   UNL     1      44.197   1.661  12.320  0.00  0.00    +0.000 HD
ENDBRANCH  23  24
BRANCH  23  26
ATOM     26  C   UNL     1      44.600   2.567  10.322  0.00  0.00    +0.000 C 
BRANCH  26  27
ATOM     27  C   UNL     1      44.704   3.389   9.026  0.00  0.00    +0.000 C 
BRANCH  27  28
ATOM     28  C   UNL     1      45.681   2.812   8.029  0.00  0.00    +0.000 A 
ATOM     29  C   UNL     1      46.070   3.563   6.910  0.00  0.00    +0.000 A 
ATOM     30  C   UNL     1      46.993   3.050   5.995  0.00  0.00    +0.000 A 
ATOM     31  C   UNL     1      47.532   1.779   6.185  0.00  0.00    +0.000 A 
ATOM     32  C   UNL     1      47.149   1.022   7.291  0.00  0.00    +0.000 A 
ATOM     33  C   UNL     1      46.227   1.534   8.207  0.00  0.00    +0.000 A 
ENDBRANCH  27  28
ENDBRANCH  26  27
ENDBRANCH  23  26
ENDBRANCH   4  23
TORSDOF 8
ENDMDL
MODEL 4
REMARK VINA RESULT:    -7.944      2.941      4.720
REMARK INTER + INTRA:         -12.388
REMARK INTER:                 -11.516
REMARK INTRA:                  -0.871
REMARK UNBOUND:                -0.961
REMARK  Name = 
REMARK  8 active torsions:
REMARK  status: ('A' for Active; 'I' for Inactive)
REMARK    1  A    between atoms: C_2  and  C_21
REMARK    2  A    between atoms: N_3  and  C_4
REMARK    3  A    between atoms: C_4  and  C_5
REMARK    4  A    between atoms: C_8  and  C_9
REMARK    5  A    between atoms: C_9  and  O_10
REMARK    6  A    between atoms: C_9  and  C_11
REMARK    7  A    between atoms: C_11  and  C_12
REMARK    8  A    between atoms: C_12  and  C_13
REMARK                            x       y       z     vdW  Elec       q    Type
REMARK                         _______ _______ _______ _____ _____    ______ ____
ROOT
ATOM      1  C   UNL     1      46.521   4.926  13.795  0.00  0.00    +0.000 A 
ATOM      2  C   UNL     1      45.638   5.823  13.204  0.00  0.00    +0.000 A 
ATOM      3  N   UNL     1      44.704   5.457  12.286  0.00  0.00    +0.000 NA
ATOM      4  C   UNL     1      44.679   4.133  11.959  0.00  0.00    +0.000 A 
ATOM      5  C   UNL     1      45.554   3.234  12.558  0.00  0.00    +0.000 A 
ATOM      6  N   UNL     1      46.483   3.605  13.475  0.00  0.00    +0.000 NA
ENDROOT
BRANCH   1   7
ATOM      7  C   UNL     1      47.583   5.396  14.759  0.00  0.00    +0.000 C 
BRANCH   7  10
ATOM      8  O   UNL     1      50.039   6.548  15.342  0.00  0.00    +0.000 OA
ATOM      9  C   UNL     1      49.182   7.259  14.826  0.00  0.00    +0.000 C 
ATOM     10  N   UNL     1      47.910   6.798  14.582  0.00  0.00    +0.000 N 
ATOM     11  H   UNL     1      47.335   7.306  13.916  0.00  0.00    +0.000 HD
BRANCH   9  12
ATOM     12  C   UNL     1      49.454   8.662  14.482  0.00  0.00    +0.000 A 
ATOM     13  C   UNL     1      49.295   9.657  15.437  0.00  0.00    +0.000 A 
ATOM     14  S   UNL     1      49.659  11.221  14.860  0.00  0.00    +0.000 S 
ATOM     15  C   UNL     1      50.088  10.619  13.331  0.00  0.00    +0.000 A 
ATOM     16  N   UNL     1      50.543  11.448  12.351  0.00  0.00    +0.000 NA
ATOM     17  C   UNL     1      50.869  10.851  11.254  0.00  0.00    +0.000 A 
ATOM     18  N   UNL     1      50.760   9.499  11.040  0.00  0.00    +0.000 N 
ATOM     19  C   UNL     1      50.251   8.637  11.977  0.00  0.00    +0.000 A 
ATOM     20  O   UNL     1      50.075   7.449  11.720  0.00  0.00    +0.000 OA
ATOM     21  C   UNL     1      49.917   9.248  13.247  0.00  0.00    +0.000 A 
ATOM     22  H   UNL     1      51.004   9.098  10.148  0.00  0.00    +0.000 HD
ENDBRANCH   9  12
ENDBRANCH   7  10
ENDBRANCH   1   7
BRANCH   4  23
ATOM     23  C   UNL     1      43.736   3.694  10.854  0.00  0.00    +0.000 C 
BRANCH  23  24
ATOM     24  O   UNL     1      42.641   2.974  11.440  0.00  0.00    +0.000 OA
ATOM     25  H   UNL     1      43.055   2.215  11.902  0.00  0.00    +0.000 HD
ENDBRANCH  23  24
BRANCH  23  26
ATOM     26  C   UNL     1      44.394   2.789   9.802  0.00  0.00    +0.000 C 
BRANCH  26  27
ATOM     27  C   UNL     1      44.737   3.576   8.526  0.00  0.00    +0.000 C 
BRANCH  27  28
ATOM     28  C   UNL     1      45.822   2.928   7.698  0.00  0.00    +0.000 A 
ATOM     29  C   UNL     1      46.318   1.664   8.051  0.00  0.00    +0.000 A 
ATOM     30  C   UNL     1      47.302   1.044   7.277  0.00  0.00    +0.000 A 
ATOM     31  C   UNL     1      47.807   1.683   6.146  0.00  0.00    +0.000 A 
ATOM     32  C   UNL     1      47.325   2.941   5.788  0.00  0.00    +0.000 A 
ATOM     33  C   UNL     1      46.340   3.563   6.560  0.00  0.00    +0.000 A 
ENDBRANCH  27  28
ENDBRANCH  26  27
ENDBRANCH  23  26
ENDBRANCH   4  23
TORSDOF 8
ENDMDL
MODEL 5
REMARK VINA RESULT:    -7.566      1.637      2.266
REMARK INTER + INTRA:         -11.844
REMARK INTER:                 -10.955
REMARK INTRA:                  -0.889
REMARK UNBOUND:                -0.961
REMARK  Name = 
REMARK  8 active torsions:
REMARK  status: ('A' for Active; 'I' for Inactive)
REMARK    1  A    between atoms: C_2  and  C_21
REMARK    2  A    between atoms: N_3  and  C_4
REMARK    3  A    between atoms: C_4  and  C_5
REMARK    4  A    between atoms: C_8  and  C_9
REMARK    5  A    between atoms: C_9  and  O_10
REMARK    6  A    between atoms: C_9  and  C_11
REMARK    7  A    between atoms: C_11  and  C_12
REMARK    8  A    between atoms: C_12  and  C_13
REMARK                            x       y       z     vdW  Elec       q    Type
REMARK                         _______ _______ _______ _____ _____    ______ ____
ROOT
ATOM      1  C   UNL     1      46.676   4.636  13.793  0.00  0.00    +0.000 A 
ATOM      2  C   UNL     1      46.133   3.496  13.209  0.00  0.00    +0.000 A 
ATOM      3  N   UNL     1      45.204   3.535  12.217  0.00  0.00    +0.000 NA
ATOM      4  C   UNL     1      44.816   4.778  11.814  0.00  0.00    +0.000 A 
ATOM      5  C   UNL     1      45.367   5.918  12.388  0.00  0.00    +0.000 A 
ATOM      6  N   UNL     1      46.295   5.873  13.378  0.00  0.00    +0.000 NA
ENDROOT
BRANCH   1   7
ATOM      7  C   UNL     1      47.654   4.536  14.938  0.00  0.00    +0.000 C 
BRANCH   7  10
ATOM      8  O   UNL     1      49.566   5.126  16.861  0.00  0.00    +0.000 OA
ATOM      9  C   UNL     1      48.705   5.970  16.631  0.00  0.00    +0.000 C 
ATOM     10  N   UNL     1      47.669   5.731  15.759  0.00  0.00    +0.000 N 
ATOM     11  H   UNL     1      47.157   6.528  15.392  0.00  0.00    +0.000 HD
BRANCH   9  12
ATOM     12  C   UNL     1      48.707   7.273  17.313  0.00  0.00    +0.000 A 
ATOM     13  C   UNL     1      48.954   8.435  16.595  0.00  0.00    +0.000 A 
ATOM     14  S   UNL     1      48.913   9.849  17.549  0.00  0.00    +0.000 S 
ATOM     15  C   UNL     1      48.516   8.964  18.944  0.00  0.00    +0.000 A 
ATOM     16  N   UNL     1      48.293   9.590  20.133  0.00  0.00    +0.000 NA
ATOM     17  C   UNL     1      47.962   8.799  21.098  0.00  0.00    +0.000 A 
ATOM     18  N   UNL     1      47.854   7.435  20.987  0.00  0.00    +0.000 N 
ATOM     19  C   UNL     1      48.129   6.760  19.826  0.00  0.00    +0.000 A 
ATOM     20  O   UNL     1      48.118   5.532  19.785  0.00  0.00    +0.000 OA
ATOM     21  C   UNL     1      48.455   7.604  18.695  0.00  0.00    +0.000 A 
ATOM     22  H   UNL     1      47.620   6.870  21.789  0.00  0.00    +0.000 HD
ENDBRANCH   9  12
ENDBRANCH   7  10
ENDBRANCH   1   7
BRANCH   4  23
ATOM     23  C   UNL     1      43.697   4.875  10.793  0.00  0.00    +0.000 C 
BRANCH  23  24
ATOM     24  O   UNL     1      42.467   4.482  11.417  0.00  0.00    +0.000 OA
ATOM     25  H   UNL     1      42.729   3.852  12.122  0.00  0.00    +0.000 HD
ENDBRANCH  23  24
BRANCH  23  26
ATOM     26  C   UNL     1      43.909   3.989   9.556  0.00  0.00    +0.000 C 
BRANCH  26  27
ATOM     27  C   UNL     1      45.120   4.462   8.733  0.00  0.00    +0.000 C 
BRANCH  27  28
ATOM     28  C   UNL     1      45.883   3.329   8.087  0.00  0.00    +0.000 A 
ATOM     29  C   UNL     1      46.765   3.588   7.028  0.00  0.00    +0.000 A 
ATOM     30  C   UNL     1      47.495   2.553   6.440  0.00  0.00    +0.000 A 
ATOM     31  C   UNL     1      47.347   1.245   6.900  0.00  0.00    +0.000 A 
ATOM     32  C   UNL     1      46.469   0.975   7.949  0.00  0.00    +0.000 A 
ATOM     33  C   UNL     1      45.739   2.010   8.538  0.00  0.00    +0.000 A 
ENDBRANCH  27  28
ENDBRANCH  26  27
ENDBRANCH  23  26
ENDBRANCH   4  23
TORSDOF 8
ENDMDL
MODEL 6
REMARK VINA RESULT:    -7.076      2.659      3.427
REMARK INTER + INTRA:         -11.140
REMARK INTER:                 -10.181
REMARK INTRA:                  -0.959
REMARK UNBOUND:                -0.961
REMARK  Name = 
REMARK  8 active torsions:
REMARK  status: ('A' for Active; 'I' for Inactive)
REMARK    1  A    between atoms: C_2  and  C_21
REMARK    2  A    between atoms: N_3  and  C_4
REMARK    3  A    between atoms: C_4  and  C_5
REMARK    4  A    between atoms: C_8  and  C_9
REMARK    5  A    between atoms: C_9  and  O_10
REMARK    6  A    between atoms: C_9  and  C_11
REMARK    7  A    between atoms: C_11  and  C_12
REMARK    8  A    between atoms: C_12  and  C_13
REMARK                            x       y       z     vdW  Elec       q    Type
REMARK                         _______ _______ _______ _____ _____    ______ ____
ROOT
ATOM      1  C   UNL     1      47.802   7.248  13.970  0.00  0.00    +0.000 A 
ATOM      2  C   UNL     1      46.896   8.123  13.379  0.00  0.00    +0.000 A 
ATOM      3  N   UNL     1      46.022   7.748  12.406  0.00  0.00    +0.000 NA
ATOM      4  C   UNL     1      46.081   6.441  12.025  0.00  0.00    +0.000 A 
ATOM      5  C   UNL     1      46.978   5.563  12.623  0.00  0.00    +0.000 A 
ATOM      6  N   UNL     1      47.848   5.942  13.594  0.00  0.00    +0.000 NA
ENDROOT
BRANCH   1   7
ATOM      7  C   UNL     1      48.797   7.731  14.997  0.00  0.00    +0.000 C 
BRANCH   7  10
ATOM      8  O   UNL     1      48.329   6.491  17.434  0.00  0.00    +0.000 OA
ATOM      9  C   UNL     1      49.232   6.048  16.731  0.00  0.00    +0.000 C 
ATOM     10  N   UNL     1      49.592   6.652  15.549  0.00  0.00    +0.000 N 
ATOM     11  H   UNL     1      50.131   6.111  14.879  0.00  0.00    +0.000 HD
BRANCH   9  12
ATOM     12  C   UNL     1      50.014   4.871  17.137  0.00  0.00    +0.000 A 
ATOM     13  C   UNL     1      49.390   3.640  17.289  0.00  0.00    +0.000 A 
ATOM     14  S   UNL     1      50.453   2.391  17.760  0.00  0.00    +0.000 S 
ATOM     15  C   UNL     1      51.789   3.439  17.731  0.00  0.00    +0.000 A 
ATOM     16  N   UNL     1      53.045   2.986  18.002  0.00  0.00    +0.000 NA
ATOM     17  C   UNL     1      53.969   3.882  17.905  0.00  0.00    +0.000 A 
ATOM     18  N   UNL     1      53.748   5.198  17.581  0.00  0.00    +0.000 N 
ATOM     19  C   UNL     1      52.496   5.709  17.360  0.00  0.00    +0.000 A 
ATOM     20  O   UNL     1      52.322   6.910  17.169  0.00  0.00    +0.000 OA
ATOM     21  C   UNL     1      51.425   4.734  17.405  0.00  0.00    +0.000 A 
ATOM     22  H   UNL     1      54.512   5.856  17.552  0.00  0.00    +0.000 HD
ENDBRANCH   9  12
ENDBRANCH   7  10
ENDBRANCH   1   7
BRANCH   4  23
ATOM     23  C   UNL     1      45.209   6.002  10.863  0.00  0.00    +0.000 C 
BRANCH  23  24
ATOM     24  O   UNL     1      43.977   6.735  10.907  0.00  0.00    +0.000 OA
ATOM     25  H   UNL     1      43.796   6.871  11.862  0.00  0.00    +0.000 HD
ENDBRANCH  23  24
BRANCH  23  26
ATOM     26  C   UNL     1      44.873   4.503  10.874  0.00  0.00    +0.000 C 
BRANCH  26  27
ATOM     27  C   UNL     1      44.275   4.056   9.529  0.00  0.00    +0.000 C 
BRANCH  27  28
ATOM     28  C   UNL     1      45.244   3.275   8.673  0.00  0.00    +0.000 A 
ATOM     29  C   UNL     1      46.019   3.934   7.707  0.00  0.00    +0.000 A 
ATOM     30  C   UNL     1      46.937   3.226   6.927  0.00  0.00    +0.000 A 
ATOM     31  C   UNL     1      47.087   1.851   7.101  0.00  0.00    +0.000 A 
ATOM     32  C   UNL     1      46.319   1.186   8.055  0.00  0.00    +0.000 A 
ATOM     33  C   UNL     1      45.401   1.892   8.836  0.00  0.00    +0.000 A 
ENDBRANCH  27  28
ENDBRANCH  26  27
ENDBRANCH  23  26
ENDBRANCH   4  23
TORSDOF 8
ENDMDL
MODEL 7
REMARK VINA RESULT:    -6.699      3.662      8.726
REMARK INTER + INTRA:         -10.597
REMARK INTER:                  -9.415
REMARK INTRA:                  -1.182
REMARK UNBOUND:                -0.961
REMARK  Name = 
REMARK  8 active torsions:
REMARK  status: ('A' for Active; 'I' for Inactive)
REMARK    1  A    between atoms: C_2  and  C_21
REMARK    2  A    between atoms: N_3  and  C_4
REMARK    3  A    between atoms: C_4  and  C_5
REMARK    4  A    between atoms: C_8  and  C_9
REMARK    5  A    between atoms: C_9  and  O_10
REMARK    6  A    between atoms: C_9  and  C_11
REMARK    7  A    between atoms: C_11  and  C_12
REMARK    8  A    between atoms: C_12  and  C_13
REMARK                            x       y       z     vdW  Elec       q    Type
REMARK                         _______ _______ _______ _____ _____    ______ ____
ROOT
ATOM      1  C   UNL     1      49.113   7.944  13.254  0.00  0.00    +0.000 A 
ATOM      2  C   UNL     1      48.786   6.919  14.136  0.00  0.00    +0.000 A 
ATOM      3  N   UNL     1      49.522   6.622  15.241  0.00  0.00    +0.000 NA
ATOM      4  C   UNL     1      50.626   7.394  15.445  0.00  0.00    +0.000 A 
ATOM      5  C   UNL     1      50.946   8.426  14.570  0.00  0.00    +0.000 A 
ATOM      6  N   UNL     1      50.208   8.719  13.469  0.00  0.00    +0.000 NA
ENDROOT
BRANCH   1   7
ATOM      7  C   UNL     1      48.300   8.188  12.006  0.00  0.00    +0.000 C 
BRANCH   7  10
ATOM      8  O   UNL     1      45.546   7.950  11.755  0.00  0.00    +0.000 OA
ATOM      9  C   UNL     1      46.238   7.004  11.390  0.00  0.00    +0.000 C 
ATOM     10  N   UNL     1      47.603   6.998  11.557  0.00  0.00    +0.000 N 
ATOM     11  H   UNL     1      48.151   6.346  11.003  0.00  0.00    +0.000 HD
BRANCH   9  12
ATOM     12  C   UNL     1      45.640   5.800  10.796  0.00  0.00    +0.000 A 
ATOM     13  C   UNL     1      45.870   5.494   9.461  0.00  0.00    +0.000 A 
ATOM     14  S   UNL     1      45.100   4.062   8.946  0.00  0.00    +0.000 S 
ATOM     15  C   UNL     1      44.473   3.773  10.498  0.00  0.00    +0.000 A 
ATOM     16  N   UNL     1      43.736   2.659  10.763  0.00  0.00    +0.000 NA
ATOM     17  C   UNL     1      43.357   2.549  11.992  0.00  0.00    +0.000 A 
ATOM     18  N   UNL     1      43.632   3.464  12.978  0.00  0.00    +0.000 N 
ATOM     19  C   UNL     1      44.319   4.627  12.742  0.00  0.00    +0.000 A 
ATOM     20  O   UNL     1      44.464   5.471  13.623  0.00  0.00    +0.000 OA
ATOM     21  C   UNL     1      44.813   4.778  11.389  0.00  0.00    +0.000 A 
ATOM     22  H   UNL     1      43.281   3.333  13.915  0.00  0.00    +0.000 HD
ENDBRANCH   9  12
ENDBRANCH   7  10
ENDBRANCH   1   7
BRANCH   4  23
ATOM     23  C   UNL     1      51.544   7.028  16.597  0.00  0.00    +0.000 C 
BRANCH  23  24
ATOM     24  O   UNL     1      52.828   7.629  16.374  0.00  0.00    +0.000 OA
ATOM     25  H   UNL     1      52.987   8.189  17.163  0.00  0.00    +0.000 HD
ENDBRANCH  23  24
BRANCH  23  26
ATOM     26  C   UNL     1      51.749   5.515  16.769  0.00  0.00    +0.000 C 
BRANCH  26  27
ATOM     27  C   UNL     1      51.083   5.006  18.058  0.00  0.00    +0.000 C 
BRANCH  27  28
ATOM     28  C   UNL     1      49.741   4.353  17.820  0.00  0.00    +0.000 A 
ATOM     29  C   UNL     1      48.560   5.017  18.183  0.00  0.00    +0.000 A 
ATOM     30  C   UNL     1      47.314   4.434  17.944  0.00  0.00    +0.000 A 
ATOM     31  C   UNL     1      47.233   3.178  17.345  0.00  0.00    +0.000 A 
ATOM     32  C   UNL     1      48.400   2.506  16.985  0.00  0.00    +0.000 A 
ATOM     33  C   UNL     1      49.648   3.088  17.222  0.00  0.00    +0.000 A 
ENDBRANCH  27  28
ENDBRANCH  26  27
ENDBRANCH  23  26
ENDBRANCH   4  23
TORSDOF 8
ENDMDL
MODEL 8
REMARK VINA RESULT:    -6.438      3.333      9.292
REMARK INTER + INTRA:         -10.221
REMARK INTER:                  -9.161
REMARK INTRA:                  -1.060
REMARK UNBOUND:                -0.961
REMARK  Name = 
REMARK  8 active torsions:
REMARK  status: ('A' for Active; 'I' for Inactive)
REMARK    1  A    between atoms: C_2  and  C_21
REMARK    2  A    between atoms: N_3  and  C_4
REMARK    3  A    between atoms: C_4  and  C_5
REMARK    4  A    between atoms: C_8  and  C_9
REMARK    5  A    between atoms: C_9  and  O_10
REMARK    6  A    between atoms: C_9  and  C_11
REMARK    7  A    between atoms: C_11  and  C_12
REMARK    8  A    between atoms: C_12  and  C_13
REMARK                            x       y       z     vdW  Elec       q    Type
REMARK                         _______ _______ _______ _____ _____    ______ ____
ROOT
ATOM      1  C   UNL     1      48.874   7.652  13.396  0.00  0.00    +0.000 A 
ATOM      2  C   UNL     1      48.684   6.803  14.481  0.00  0.00    +0.000 A 
ATOM      3  N   UNL     1      49.561   6.706  15.515  0.00  0.00    +0.000 NA
ATOM      4  C   UNL     1      50.668   7.497  15.432  0.00  0.00    +0.000 A 
ATOM      5  C   UNL     1      50.853   8.354  14.354  0.00  0.00    +0.000 A 
ATOM      6  N   UNL     1      49.973   8.448  13.324  0.00  0.00    +0.000 NA
ENDROOT
BRANCH   1   7
ATOM      7  C   UNL     1      47.901   7.672  12.241  0.00  0.00    +0.000 C 
BRANCH   7  10
ATOM      8  O   UNL     1      45.177   7.535  11.733  0.00  0.00    +0.000 OA
ATOM      9  C   UNL     1      45.798   6.480  11.810  0.00  0.00    +0.000 C 
ATOM     10  N   UNL     1      47.132   6.447  12.144  0.00  0.00    +0.000 N 
ATOM     11  H   UNL     1      47.660   5.608  11.925  0.00  0.00    +0.000 HD
BRANCH   9  12
ATOM     12  C   UNL     1      45.139   5.184  11.595  0.00  0.00    +0.000 A 
ATOM     13  C   UNL     1      44.450   4.571  12.634  0.00  0.00    +0.000 A 
ATOM     14  S   UNL     1      43.748   3.078  12.201  0.00  0.00    +0.000 S 
ATOM     15  C   UNL     1      44.295   3.221  10.599  0.00  0.00    +0.000 A 
ATOM     16  N   UNL     1      43.994   2.275   9.666  0.00  0.00    +0.000 NA
ATOM     17  C   UNL     1      44.441   2.530   8.482  0.00  0.00    +0.000 A 
ATOM     18  N   UNL     1      45.182   3.638   8.151  0.00  0.00    +0.000 N 
ATOM     19  C   UNL     1      45.559   4.583   9.070  0.00  0.00    +0.000 A 
ATOM     20  O   UNL     1      46.304   5.510   8.763  0.00  0.00    +0.000 OA
ATOM     21  C   UNL     1      45.040   4.372  10.406  0.00  0.00    +0.000 A 
ATOM     22  H   UNL     1      45.528   3.764   7.212  0.00  0.00    +0.000 HD
ENDBRANCH   9  12
ENDBRANCH   7  10
ENDBRANCH   1   7
BRANCH   4  23
ATOM     23  C   UNL     1      51.734   7.339  16.502  0.00  0.00    +0.000 C 
BRANCH  23  24
ATOM     24  O   UNL     1      52.823   8.224  16.202  0.00  0.00    +0.000 OA
ATOM     25  H   UNL     1      52.912   8.796  16.994  0.00  0.00    +0.000 HD
ENDBRANCH  23  24
BRANCH  23  26
ATOM     26  C   UNL     1      52.294   5.913  16.611  0.00  0.00    +0.000 C 
BRANCH  26  27
ATOM     27  C   UNL     1      51.992   5.300  17.989  0.00  0.00    +0.000 C 
BRANCH  27  28
ATOM     28  C   UNL     1      50.715   4.493  18.018  0.00  0.00    +0.000 A 
ATOM     29  C   UNL     1      49.587   4.983  18.693  0.00  0.00    +0.000 A 
ATOM     30  C   UNL     1      48.394   4.257  18.704  0.00  0.00    +0.000 A 
ATOM     31  C   UNL     1      48.316   3.031  18.045  0.00  0.00    +0.000 A 
ATOM     32  C   UNL     1      49.432   2.533  17.375  0.00  0.00    +0.000 A 
ATOM     33  C   UNL     1      50.626   3.257  17.362  0.00  0.00    +0.000 A 
ENDBRANCH  27  28
ENDBRANCH  26  27
ENDBRANCH  23  26
ENDBRANCH   4  23
TORSDOF 8
ENDMDL
MODEL 9
REMARK VINA RESULT:    -6.265      3.811      8.419
REMARK INTER + INTRA:          -9.972
REMARK INTER:                  -8.263
REMARK INTRA:                  -1.709
REMARK UNBOUND:                -0.961
REMARK  Name = 
REMARK  8 active torsions:
REMARK  status: ('A' for Active; 'I' for Inactive)
REMARK    1  A    between atoms: C_2  and  C_21
REMARK    2  A    between atoms: N_3  and  C_4
REMARK    3  A    between atoms: C_4  and  C_5
REMARK    4  A    between atoms: C_8  and  C_9
REMARK    5  A    between atoms: C_9  and  O_10
REMARK    6  A    between atoms: C_9  and  C_11
REMARK    7  A    between atoms: C_11  and  C_12
REMARK    8  A    between atoms: C_12  and  C_13
REMARK                            x       y       z     vdW  Elec       q    Type
REMARK                         _______ _______ _______ _____ _____    ______ ____
ROOT
ATOM      1  C   UNL     1      48.838   8.599  16.590  0.00  0.00    +0.000 A 
ATOM      2  C   UNL     1      49.947   7.765  16.494  0.00  0.00    +0.000 A 
ATOM      3  N   UNL     1      50.527   7.167  17.569  0.00  0.00    +0.000 NA
ATOM      4  C   UNL     1      49.957   7.436  18.778  0.00  0.00    +0.000 A 
ATOM      5  C   UNL     1      48.842   8.260  18.873  0.00  0.00    +0.000 A 
ATOM      6  N   UNL     1      48.266   8.853  17.796  0.00  0.00    +0.000 NA
ENDROOT
BRANCH   1   7
ATOM      7  C   UNL     1      48.275   9.291  15.372  0.00  0.00    +0.000 C 
BRANCH   7  10
ATOM      8  O   UNL     1      48.085   8.931  12.627  0.00  0.00    +0.000 OA
ATOM      9  C   UNL     1      47.298   8.317  13.341  0.00  0.00    +0.000 C 
ATOM     10  N   UNL     1      47.262   8.498  14.703  0.00  0.00    +0.000 N 
ATOM     11  H   UNL     1      46.810   7.787  15.270  0.00  0.00    +0.000 HD
BRANCH   9  12
ATOM     12  C   UNL     1      46.315   7.382  12.772  0.00  0.00    +0.000 A 
ATOM     13  C   UNL     1      45.327   7.848  11.914  0.00  0.00    +0.000 A 
ATOM     14  S   UNL     1      44.280   6.624  11.351  0.00  0.00    +0.000 S 
ATOM     15  C   UNL     1      45.139   5.424  12.193  0.00  0.00    +0.000 A 
ATOM     16  N   UNL     1      44.784   4.112  12.104  0.00  0.00    +0.000 NA
ATOM     17  C   UNL     1      45.546   3.306  12.764  0.00  0.00    +0.000 A 
ATOM     18  N   UNL     1      46.622   3.696  13.523  0.00  0.00    +0.000 N 
ATOM     19  C   UNL     1      46.978   5.009  13.688  0.00  0.00    +0.000 A 
ATOM     20  O   UNL     1      47.884   5.333  14.451  0.00  0.00    +0.000 OA
ATOM     21  C   UNL     1      46.186   5.954  12.927  0.00  0.00    +0.000 A 
ATOM     22  H   UNL     1      47.160   3.017  14.039  0.00  0.00    +0.000 HD
ENDBRANCH   9  12
ENDBRANCH   7  10
ENDBRANCH   1   7
BRANCH   4  23
ATOM     23  C   UNL     1      50.637   6.888  20.020  0.00  0.00    +0.000 C 
BRANCH  23  24
ATOM     24  O   UNL     1      51.995   7.354  20.046  0.00  0.00    +0.000 OA
ATOM     25  H   UNL     1      52.302   7.293  19.117  0.00  0.00    +0.000 HD
ENDBRANCH  23  24
BRANCH  23  26
ATOM     26  C   UNL     1      50.657   5.354  20.089  0.00  0.00    +0.000 C 
BRANCH  26  27
ATOM     27  C   UNL     1      49.234   4.775  20.013  0.00  0.00    +0.000 C 
BRANCH  27  28
ATOM     28  C   UNL     1      48.990   3.949  18.772  0.00  0.00    +0.000 A 
ATOM     29  C   UNL     1      50.055   3.280  18.150  0.00  0.00    +0.000 A 
ATOM     30  C   UNL     1      49.837   2.493  17.018  0.00  0.00    +0.000 A 
ATOM     31  C   UNL     1      48.552   2.370  16.489  0.00  0.00    +0.000 A 
ATOM     32  C   UNL     1      47.488   3.035  17.095  0.00  0.00    +0.000 A 
ATOM     33  C   UNL     1      47.704   3.822  18.229  0.00  0.00    +0.000 A 
ENDBRANCH  27  28
ENDBRANCH  26  27
ENDBRANCH  23  26
ENDBRANCH   4  23
TORSDOF 8
ENDMDL
