MODEL 1
REMARK VINA RESULT:    -9.411      0.000      0.000
REMARK INTER + INTRA:         -13.617
REMARK INTER:                 -12.437
REMARK INTRA:                  -1.180
REMARK UNBOUND:                -1.180
REMARK  Name = 
REMARK  6 active torsions:
REMARK  status: ('A' for Active; 'I' for Inactive)
REMARK    1  A    between atoms: C_2  and  C_4
REMARK    2  A    between atoms: N_8  and  C_9
REMARK    3  A    between atoms: C_9  and  C_10
REMARK    4  A    between atoms: C_10  and  C_13
REMARK    5  A    between atoms: C_15  and  N_16
REMARK    6  A    between atoms: C_19  and  O_20
REMARK                            x       y       z     vdW  Elec       q    Type
REMARK                         _______ _______ _______ _____ _____    ______ ____
ROOT
ATOM      1  C   UNL     1      42.988   5.245  12.283  0.00  0.00    +0.000 C 
ATOM      2  F   UNL     1      41.965   6.139  12.133  0.00  0.00    +0.000 F 
ATOM      3  F   UNL     1      42.650   4.494  13.375  0.00  0.00    +0.000 F 
ENDROOT
BRANCH   1   4
ATOM      4  C   UNL     1      44.332   5.950  12.455  0.00  0.00    +0.000 A 
ATOM      5  C   UNL     1      45.336   5.357  13.219  0.00  0.00    +0.000 A 
ATOM      6  C   UNL     1      46.541   6.030  13.469  0.00  0.00    +0.000 A 
ATOM      7  C   UNL     1      46.695   7.281  12.869  0.00  0.00    +0.000 A 
ATOM      8  C   UNL     1      45.668   7.807  12.110  0.00  0.00    +0.000 A 
ATOM      9  N   UNL     1      44.497   7.181  11.896  0.00  0.00    +0.000 NA
BRANCH   6  10
ATOM     10  N   UNL     1      47.517   5.474  14.277  0.00  0.00    +0.000 N 
ATOM     11  C   UNL     1      48.680   6.238  14.728  0.00  0.00    +0.000 C 
ATOM     12  C   UNL     1      48.645   6.417  16.241  0.00  0.00    +0.000 C 
ATOM     13  C   UNL     1      48.433   5.094  16.973  0.00  0.00    +0.000 C 
ATOM     14  C   UNL     1      47.237   4.319  16.426  0.00  0.00    +0.000 C 
ATOM     15  C   UNL     1      47.297   4.169  14.907  0.00  0.00    +0.000 C 
BRANCH  13  16
ATOM     16  O   UNL     1      49.614   4.295  16.923  0.00  0.00    +0.000 OA
ATOM     17  H   UNL     1      50.269   4.728  16.350  0.00  0.00    +0.000 HD
ENDBRANCH  13  16
ENDBRANCH   6  10
ENDBRANCH   1   4
BRANCH   1  18
ATOM     18  C   UNL     1      43.028   4.325  11.041  0.00  0.00    +0.000 C 
BRANCH  18  23
ATOM     19  C   UNL     1      46.386   2.354   7.716  0.00  0.00    +0.000 A 
ATOM     20  C   UNL     1      45.630   1.775   8.722  0.00  0.00    +0.000 A 
ATOM     21  C   UNL     1      44.777   2.579   9.480  0.00  0.00    +0.000 A 
ATOM     22  C   UNL     1      44.709   3.950   9.239  0.00  0.00    +0.000 A 
ATOM     23  N   UNL     1      43.882   4.786   9.946  0.00  0.00    +0.000 N 
ATOM     24  N   UNL     1      45.449   4.523   8.270  0.00  0.00    +0.000 NA
ATOM     25  C   UNL     1      46.270   3.723   7.534  0.00  0.00    +0.000 A 
ATOM     26  H   UNL     1      44.035   5.778   9.791  0.00  0.00    +0.000 HD
BRANCH  19  28
ATOM     27  N   UNL     1      48.439   2.221   6.437  0.00  0.00    +0.000 N 
ATOM     28  C   UNL     1      47.322   1.572   6.886  0.00  0.00    +0.000 C 
ATOM     29  O   UNL     1      47.119   0.393   6.625  0.00  0.00    +0.000 OA
ATOM     30  H   UNL     1      49.114   1.664   5.928  0.00  0.00    +0.000 HD
ATOM     31  H   UNL     1      48.755   3.098   6.826  0.00  0.00    +0.000 HD
ENDBRANCH  19  28
ENDBRANCH  18  23
ENDBRANCH   1  18
TORSDOF 6
ENDMDL
MODEL 2
REMARK VINA RESULT:    -9.115      2.040      2.997
REMARK INTER + INTRA:         -13.226
REMARK INTER:                 -12.142
REMARK INTRA:                  -1.083
REMARK UNBOUND:                -1.180
REMARK  Name = 
REMARK  6 active torsions:
REMARK  status: ('A' for Active; 'I' for Inactive)
REMARK    1  A    between atoms: C_2  and  C_4
REMARK    2  A    between atoms: N_8  and  C_9
REMARK    3  A    between atoms: C_9  and  C_10
REMARK    4  A    between atoms: C_10  and  C_13
REMARK    5  A    between atoms: C_15  and  N_16
REMARK    6  A    between atoms: C_19  and  O_20
REMARK                            x       y       z     vdW  Elec       q    Type
REMARK                         _______ _______ _______ _____ _____    ______ ____
ROOT
ATOM      1  C   UNL     1      43.321   5.507  12.161  0.00  0.00    +0.000 C 
ATOM      2  F   UNL     1      43.088   6.799  11.782  0.00  0.00    +0.000 F 
ATOM      3  F   UNL     1      42.325   5.211  13.051  0.00  0.00    +0.000 F 
ENDROOT
BRANCH   1   4
ATOM      4  C   UNL     1      44.712   5.339  12.768  0.00  0.00    +0.000 A 
ATOM      5  C   UNL     1      45.582   6.428  12.825  0.00  0.00    +0.000 A 
ATOM      6  C   UNL     1      46.896   6.273  13.290  0.00  0.00    +0.000 A 
ATOM      7  C   UNL     1      47.256   5.001  13.740  0.00  0.00    +0.000 A 
ATOM      8  C   UNL     1      46.341   3.969  13.673  0.00  0.00    +0.000 A 
ATOM      9  N   UNL     1      45.091   4.103  13.194  0.00  0.00    +0.000 NA
BRANCH   6  10
ATOM     10  N   UNL     1      47.785   7.334  13.291  0.00  0.00    +0.000 N 
ATOM     11  C   UNL     1      49.129   7.223  12.726  0.00  0.00    +0.000 C 
ATOM     12  C   UNL     1      49.271   8.131  11.509  0.00  0.00    +0.000 C 
ATOM     13  C   UNL     1      48.823   9.561  11.803  0.00  0.00    +0.000 C 
ATOM     14  C   UNL     1      47.436   9.611  12.438  0.00  0.00    +0.000 C 
ATOM     15  C   UNL     1      47.324   8.680  13.645  0.00  0.00    +0.000 C 
BRANCH  13  16
ATOM     16  O   UNL     1      49.777  10.229  12.628  0.00  0.00    +0.000 OA
ATOM     17  H   UNL     1      50.574   9.678  12.705  0.00  0.00    +0.000 HD
ENDBRANCH  13  16
ENDBRANCH   6  10
ENDBRANCH   1   4
BRANCH   1  18
ATOM     18  C   UNL     1      43.169   4.593  10.924  0.00  0.00    +0.000 C 
BRANCH  18  23
ATOM     19  C   UNL     1      46.418   2.348   7.665  0.00  0.00    +0.000 A 
ATOM     20  C   UNL     1      45.694   1.855   8.739  0.00  0.00    +0.000 A 
ATOM     21  C   UNL     1      44.866   2.720   9.456  0.00  0.00    +0.000 A 
ATOM     22  C   UNL     1      44.790   4.068   9.106  0.00  0.00    +0.000 A 
ATOM     23  N   UNL     1      43.987   4.961   9.768  0.00  0.00    +0.000 N 
ATOM     24  N   UNL     1      45.499   4.557   8.070  0.00  0.00    +0.000 NA
ATOM     25  C   UNL     1      46.296   3.697   7.376  0.00  0.00    +0.000 A 
ATOM     26  H   UNL     1      44.135   5.936   9.528  0.00  0.00    +0.000 HD
BRANCH  19  28
ATOM     27  N   UNL     1      48.501   2.065   6.462  0.00  0.00    +0.000 N 
ATOM     28  C   UNL     1      47.326   1.498   6.873  0.00  0.00    +0.000 C 
ATOM     29  O   UNL     1      47.051   0.334   6.608  0.00  0.00    +0.000 OA
ATOM     30  H   UNL     1      49.154   1.460   5.980  0.00  0.00    +0.000 HD
ATOM     31  H   UNL     1      48.863   2.921   6.859  0.00  0.00    +0.000 HD
ENDBRANCH  19  28
ENDBRANCH  18  23
ENDBRANCH   1  18
TORSDOF 6
ENDMDL
MODEL 3
REMARK VINA RESULT:    -8.292      1.808      2.450
REMARK INTER + INTRA:         -12.138
REMARK INTER:                 -11.106
REMARK INTRA:                  -1.032
REMARK UNBOUND:                -1.180
REMARK  Name = 
REMARK  6 active torsions:
REMARK  status: ('A' for Active; 'I' for Inactive)
REMARK    1  A    between atoms: C_2  and  C_4
REMARK    2  A    between atoms: N_8  and  C_9
REMARK    3  A    between atoms: C_9  and  C_10
REMARK    4  A    between atoms: C_10  and  C_13
REMARK    5  A    between atoms: C_15  and  N_16
REMARK    6  A    between atoms: C_19  and  O_20
REMARK                            x       y       z     vdW  Elec       q    Type
REMARK                         _______ _______ _______ _____ _____    ______ ____
ROOT
ATOM      1  C   UNL     1      42.817   5.523  12.000  0.00  0.00    +0.000 C 
ATOM      2  F   UNL     1      41.506   5.849  11.788  0.00  0.00    +0.000 F 
ATOM      3  F   UNL     1      42.849   4.965  13.248  0.00  0.00    +0.000 F 
ENDROOT
BRANCH   1   4
ATOM      4  C   UNL     1      43.726   6.746  11.886  0.00  0.00    +0.000 A 
ATOM      5  C   UNL     1      44.958   6.758  12.537  0.00  0.00    +0.000 A 
ATOM      6  C   UNL     1      45.765   7.905  12.524  0.00  0.00    +0.000 A 
ATOM      7  C   UNL     1      45.296   8.993  11.786  0.00  0.00    +0.000 A 
ATOM      8  C   UNL     1      44.073   8.911  11.149  0.00  0.00    +0.000 A 
ATOM      9  N   UNL     1      43.279   7.826  11.188  0.00  0.00    +0.000 NA
BRANCH   6  10
ATOM     10  N   UNL     1      46.962   7.947  13.220  0.00  0.00    +0.000 N 
ATOM     11  C   UNL     1      47.695   6.733  13.577  0.00  0.00    +0.000 C 
ATOM     12  C   UNL     1      49.032   6.686  12.846  0.00  0.00    +0.000 C 
ATOM     13  C   UNL     1      49.826   7.980  13.014  0.00  0.00    +0.000 C 
ATOM     14  C   UNL     1      48.994   9.214  12.676  0.00  0.00    +0.000 C 
ATOM     15  C   UNL     1      47.656   9.223  13.415  0.00  0.00    +0.000 C 
BRANCH  13  16
ATOM     16  O   UNL     1      50.356   8.078  14.336  0.00  0.00    +0.000 OA
ATOM     17  H   UNL     1      51.198   7.595  14.380  0.00  0.00    +0.000 HD
ENDBRANCH  13  16
ENDBRANCH   6  10
ENDBRANCH   1   4
BRANCH   1  18
ATOM     18  C   UNL     1      43.235   4.454  10.966  0.00  0.00    +0.000 C 
BRANCH  18  23
ATOM     19  C   UNL     1      46.534   2.510   7.567  0.00  0.00    +0.000 A 
ATOM     20  C   UNL     1      45.763   1.917   8.554  0.00  0.00    +0.000 A 
ATOM     21  C   UNL     1      44.933   2.716   9.341  0.00  0.00    +0.000 A 
ATOM     22  C   UNL     1      44.902   4.097   9.148  0.00  0.00    +0.000 A 
ATOM     23  N   UNL     1      44.100   4.929   9.886  0.00  0.00    +0.000 N 
ATOM     24  N   UNL     1      45.657   4.683   8.199  0.00  0.00    +0.000 NA
ATOM     25  C   UNL     1      46.455   3.886   7.433  0.00  0.00    +0.000 A 
ATOM     26  H   UNL     1      44.279   5.922   9.765  0.00  0.00    +0.000 HD
BRANCH  19  28
ATOM     27  N   UNL     1      48.469   2.418   6.113  0.00  0.00    +0.000 N 
ATOM     28  C   UNL     1      47.446   1.732   6.708  0.00  0.00    +0.000 C 
ATOM     29  O   UNL     1      47.308   0.526   6.547  0.00  0.00    +0.000 OA
ATOM     30  H   UNL     1      49.136   1.871   5.582  0.00  0.00    +0.000 HD
ATOM     31  H   UNL     1      48.754   3.341   6.410  0.00  0.00    +0.000 HD
ENDBRANCH  19  28
ENDBRANCH  18  23
ENDBRANCH   1  18
TORSDOF 6
ENDMDL
MODEL 4
REMARK VINA RESULT:    -7.637      1.451      2.050
REMARK INTER + INTRA:         -11.272
REMARK INTER:                 -11.058
REMARK INTRA:                  -0.214
REMARK UNBOUND:                -1.180
REMARK  Name = 
REMARK  6 active torsions:
REMARK  status: ('A' for Active; 'I' for Inactive)
REMARK    1  A    between atoms: C_2  and  C_4
REMARK    2  A    between atoms: N_8  and  C_9
REMARK    3  A    between atoms: C_9  and  C_10
REMARK    4  A    between atoms: C_10  and  C_13
REMARK    5  A    between atoms: C_15  and  N_16
REMARK    6  A    between atoms: C_19  and  O_20
REMARK                            x       y       z     vdW  Elec       q    Type
REMARK                         _______ _______ _______ _____ _____    ______ ____
ROOT
ATOM      1  C   UNL     1      44.382   4.125  12.554  0.00  0.00    +0.000 C 
ATOM      2  F   UNL     1      43.411   3.976  13.504  0.00  0.00    +0.000 F 
ATOM      3  F   UNL     1      44.644   2.859  12.109  0.00  0.00    +0.000 F 
ENDROOT
BRANCH   1   4
ATOM      4  C   UNL     1      45.624   4.810  13.121  0.00  0.00    +0.000 A 
ATOM      5  C   UNL     1      46.147   4.399  14.346  0.00  0.00    +0.000 A 
ATOM      6  C   UNL     1      47.228   5.077  14.929  0.00  0.00    +0.000 A 
ATOM      7  C   UNL     1      47.776   6.131  14.196  0.00  0.00    +0.000 A 
ATOM      8  C   UNL     1      47.221   6.478  12.980  0.00  0.00    +0.000 A 
ATOM      9  N   UNL     1      46.162   5.854  12.432  0.00  0.00    +0.000 NA
BRANCH   6  10
ATOM     10  N   UNL     1      47.713   4.714  16.174  0.00  0.00    +0.000 N 
ATOM     11  C   UNL     1      47.577   3.354  16.694  0.00  0.00    +0.000 C 
ATOM     12  C   UNL     1      48.947   2.703  16.846  0.00  0.00    +0.000 C 
ATOM     13  C   UNL     1      49.921   3.586  17.624  0.00  0.00    +0.000 C 
ATOM     14  C   UNL     1      49.981   5.005  17.067  0.00  0.00    +0.000 C 
ATOM     15  C   UNL     1      48.592   5.622  16.916  0.00  0.00    +0.000 C 
BRANCH  13  16
ATOM     16  O   UNL     1      49.585   3.605  19.012  0.00  0.00    +0.000 OA
ATOM     17  H   UNL     1      48.630   3.457  19.111  0.00  0.00    +0.000 HD
ENDBRANCH  13  16
ENDBRANCH   6  10
ENDBRANCH   1   4
BRANCH   1  18
ATOM     18  C   UNL     1      43.808   4.954  11.383  0.00  0.00    +0.000 C 
BRANCH  18  23
ATOM     19  C   UNL     1      46.336   3.010   7.378  0.00  0.00    +0.000 A 
ATOM     20  C   UNL     1      45.411   2.456   8.247  0.00  0.00    +0.000 A 
ATOM     21  C   UNL     1      44.874   3.246   9.264  0.00  0.00    +0.000 A 
ATOM     22  C   UNL     1      45.285   4.570   9.413  0.00  0.00    +0.000 A 
ATOM     23  N   UNL     1      44.785   5.396  10.388  0.00  0.00    +0.000 N 
ATOM     24  N   UNL     1      46.193   5.114   8.579  0.00  0.00    +0.000 NA
ATOM     25  C   UNL     1      46.701   4.330   7.586  0.00  0.00    +0.000 A 
ATOM     26  H   UNL     1      45.272   6.280  10.497  0.00  0.00    +0.000 HD
BRANCH  19  28
ATOM     27  N   UNL     1      47.227   2.900   5.128  0.00  0.00    +0.000 N 
ATOM     28  C   UNL     1      46.959   2.232   6.291  0.00  0.00    +0.000 C 
ATOM     29  O   UNL     1      47.239   1.047   6.426  0.00  0.00    +0.000 OA
ATOM     30  H   UNL     1      47.719   2.383   4.410  0.00  0.00    +0.000 HD
ATOM     31  H   UNL     1      47.236   3.908   5.066  0.00  0.00    +0.000 HD
ENDBRANCH  19  28
ENDBRANCH  18  23
ENDBRANCH   1  18
TORSDOF 6
ENDMDL
MODEL 5
REMARK VINA RESULT:    -7.343      2.034      7.978
REMARK INTER + INTRA:         -10.883
REMARK INTER:                  -9.815
REMARK INTRA:                  -1.068
REMARK UNBOUND:                -1.180
REMARK  Name = 
REMARK  6 active torsions:
REMARK  status: ('A' for Active; 'I' for Inactive)
REMARK    1  A    between atoms: C_2  and  C_4
REMARK    2  A    between atoms: N_8  and  C_9
REMARK    3  A    between atoms: C_9  and  C_10
REMARK    4  A    between atoms: C_10  and  C_13
REMARK    5  A    between atoms: C_15  and  N_16
REMARK    6  A    between atoms: C_19  and  O_20
REMARK                            x       y       z     vdW  Elec       q    Type
REMARK                         _______ _______ _______ _____ _____    ______ ____
ROOT
ATOM      1  C   UNL     1      45.405   6.315  12.388  0.00  0.00    +0.000 C 
ATOM      2  F   UNL     1      44.530   6.902  13.259  0.00  0.00    +0.000 F 
ATOM      3  F   UNL     1      45.605   7.243  11.403  0.00  0.00    +0.000 F 
ENDROOT
BRANCH   1   4
ATOM      4  C   UNL     1      44.857   4.997  11.842  0.00  0.00    +0.000 A 
ATOM      5  C   UNL     1      45.235   4.559  10.574  0.00  0.00    +0.000 A 
ATOM      6  C   UNL     1      44.670   3.403  10.017  0.00  0.00    +0.000 A 
ATOM      7  C   UNL     1      43.769   2.697  10.816  0.00  0.00    +0.000 A 
ATOM      8  C   UNL     1      43.449   3.176  12.071  0.00  0.00    +0.000 A 
ATOM      9  N   UNL     1      43.960   4.304  12.597  0.00  0.00    +0.000 NA
BRANCH   6  10
ATOM     10  N   UNL     1      44.993   2.995   8.734  0.00  0.00    +0.000 N 
ATOM     11  C   UNL     1      45.367   3.946   7.688  0.00  0.00    +0.000 C 
ATOM     12  C   UNL     1      46.818   3.735   7.271  0.00  0.00    +0.000 C 
ATOM     13  C   UNL     1      47.114   2.275   6.936  0.00  0.00    +0.000 C 
ATOM     14  C   UNL     1      46.657   1.327   8.041  0.00  0.00    +0.000 C 
ATOM     15  C   UNL     1      45.203   1.574   8.443  0.00  0.00    +0.000 C 
BRANCH  13  16
ATOM     16  O   UNL     1      46.523   1.914   5.688  0.00  0.00    +0.000 OA
ATOM     17  H   UNL     1      47.220   1.620   5.077  0.00  0.00    +0.000 HD
ENDBRANCH  13  16
ENDBRANCH   6  10
ENDBRANCH   1   4
BRANCH   1  18
ATOM     18  C   UNL     1      46.744   6.070  13.119  0.00  0.00    +0.000 C 
BRANCH  18  23
ATOM     19  C   UNL     1      48.710   4.337  17.518  0.00  0.00    +0.000 A 
ATOM     20  C   UNL     1      48.698   5.596  16.941  0.00  0.00    +0.000 A 
ATOM     21  C   UNL     1      48.066   5.774  15.709  0.00  0.00    +0.000 A 
ATOM     22  C   UNL     1      47.477   4.690  15.061  0.00  0.00    +0.000 A 
ATOM     23  N   UNL     1      46.835   4.808  13.854  0.00  0.00    +0.000 N 
ATOM     24  N   UNL     1      47.495   3.460  15.609  0.00  0.00    +0.000 NA
ATOM     25  C   UNL     1      48.108   3.305  16.816  0.00  0.00    +0.000 A 
ATOM     26  H   UNL     1      46.588   3.930  13.408  0.00  0.00    +0.000 HD
BRANCH  19  28
ATOM     27  N   UNL     1      50.645   3.571  18.757  0.00  0.00    +0.000 N 
ATOM     28  C   UNL     1      49.373   4.069  18.808  0.00  0.00    +0.000 C 
ATOM     29  O   UNL     1      48.818   4.297  19.875  0.00  0.00    +0.000 OA
ATOM     30  H   UNL     1      51.124   3.454  19.641  0.00  0.00    +0.000 HD
ATOM     31  H   UNL     1      51.211   3.599  17.920  0.00  0.00    +0.000 HD
ENDBRANCH  19  28
ENDBRANCH  18  23
ENDBRANCH   1  18
TORSDOF 6
ENDMDL
MODEL 6
REMARK VINA RESULT:    -7.004      3.665      7.253
REMARK INTER + INTRA:         -10.435
REMARK INTER:                  -9.085
REMARK INTRA:                  -1.350
REMARK UNBOUND:                -1.180
REMARK  Name = 
REMARK  6 active torsions:
REMARK  status: ('A' for Active; 'I' for Inactive)
REMARK    1  A    between atoms: C_2  and  C_4
REMARK    2  A    between atoms: N_8  and  C_9
REMARK    3  A    between atoms: C_9  and  C_10
REMARK    4  A    between atoms: C_10  and  C_13
REMARK    5  A    between atoms: C_15  and  N_16
REMARK    6  A    between atoms: C_19  and  O_20
REMARK                            x       y       z     vdW  Elec       q    Type
REMARK                         _______ _______ _______ _____ _____    ______ ____
ROOT
ATOM      1  C   UNL     1      48.104   9.084  12.936  0.00  0.00    +0.000 C 
ATOM      2  F   UNL     1      48.085   9.586  14.207  0.00  0.00    +0.000 F 
ATOM      3  F   UNL     1      48.869   9.960  12.218  0.00  0.00    +0.000 F 
ENDROOT
BRANCH   1   4
ATOM      4  C   UNL     1      46.693   8.941  12.366  0.00  0.00    +0.000 A 
ATOM      5  C   UNL     1      46.149   7.673  12.169  0.00  0.00    +0.000 A 
ATOM      6  C   UNL     1      44.896   7.517  11.559  0.00  0.00    +0.000 A 
ATOM      7  C   UNL     1      44.213   8.687  11.222  0.00  0.00    +0.000 A 
ATOM      8  C   UNL     1      44.801   9.914  11.459  0.00  0.00    +0.000 A 
ATOM      9  N   UNL     1      46.018  10.069  12.011  0.00  0.00    +0.000 NA
BRANCH   6  10
ATOM     10  N   UNL     1      44.376   6.260  11.303  0.00  0.00    +0.000 N 
ATOM     11  C   UNL     1      45.224   5.131  10.922  0.00  0.00    +0.000 C 
ATOM     12  C   UNL     1      45.195   4.056  12.003  0.00  0.00    +0.000 C 
ATOM     13  C   UNL     1      43.770   3.674  12.397  0.00  0.00    +0.000 C 
ATOM     14  C   UNL     1      42.919   4.896  12.734  0.00  0.00    +0.000 C 
ATOM     15  C   UNL     1      42.981   5.957  11.637  0.00  0.00    +0.000 C 
BRANCH  13  16
ATOM     16  O   UNL     1      43.153   2.900  11.369  0.00  0.00    +0.000 OA
ATOM     17  H   UNL     1      42.777   3.498  10.701  0.00  0.00    +0.000 HD
ENDBRANCH  13  16
ENDBRANCH   6  10
ENDBRANCH   1   4
BRANCH   1  18
ATOM     18  C   UNL     1      48.809   7.709  12.957  0.00  0.00    +0.000 C 
BRANCH  18  23
ATOM     19  C   UNL     1      47.971   4.354  16.732  0.00  0.00    +0.000 A 
ATOM     20  C   UNL     1      47.301   4.599  15.545  0.00  0.00    +0.000 A 
ATOM     21  C   UNL     1      47.774   5.595  14.690  0.00  0.00    +0.000 A 
ATOM     22  C   UNL     1      48.895   6.347  15.042  0.00  0.00    +0.000 A 
ATOM     23  N   UNL     1      49.409   7.331  14.236  0.00  0.00    +0.000 N 
ATOM     24  N   UNL     1      49.546   6.122  16.199  0.00  0.00    +0.000 NA
ATOM     25  C   UNL     1      49.075   5.140  17.019  0.00  0.00    +0.000 A 
ATOM     26  H   UNL     1      50.123   7.912  14.666  0.00  0.00    +0.000 HD
BRANCH  19  28
ATOM     27  N   UNL     1      48.329   3.095  18.771  0.00  0.00    +0.000 N 
ATOM     28  C   UNL     1      47.520   3.330  17.693  0.00  0.00    +0.000 C 
ATOM     29  O   UNL     1      46.463   2.730  17.545  0.00  0.00    +0.000 OA
ATOM     30  H   UNL     1      47.984   2.444  19.465  0.00  0.00    +0.000 HD
ATOM     31  H   UNL     1      49.068   3.727  19.048  0.00  0.00    +0.000 HD
ENDBRANCH  19  28
ENDBRANCH  18  23
ENDBRANCH   1  18
TORSDOF 6
ENDMDL
MODEL 7
REMARK VINA RESULT:    -6.785      3.393      5.062
REMARK INTER + INTRA:         -10.146
REMARK INTER:                  -9.058
REMARK INTRA:                  -1.088
REMARK UNBOUND:                -1.180
REMARK  Name = 
REMARK  6 active torsions:
REMARK  status: ('A' for Active; 'I' for Inactive)
REMARK    1  A    between atoms: C_2  and  C_4
REMARK    2  A    between atoms: N_8  and  C_9
REMARK    3  A    between atoms: C_9  and  C_10
REMARK    4  A    between atoms: C_10  and  C_13
REMARK    5  A    between atoms: C_15  and  N_16
REMARK    6  A    between atoms: C_19  and  O_20
REMARK                            x       y       z     vdW  Elec       q    Type
REMARK                         _______ _______ _______ _____ _____    ______ ____
ROOT
ATOM      1  C   UNL     1      48.584   8.149  13.181  0.00  0.00    +0.000 C 
ATOM      2  F   UNL     1      48.742   7.485  11.997  0.00  0.00    +0.000 F 
ATOM      3  F   UNL     1      48.768   9.469  12.878  0.00  0.00    +0.000 F 
ENDROOT
BRANCH   1   4
ATOM      4  C   UNL     1      49.566   7.651  14.240  0.00  0.00    +0.000 A 
ATOM      5  C   UNL     1      49.134   6.768  15.228  0.00  0.00    +0.000 A 
ATOM      6  C   UNL     1      49.993   6.374  16.264  0.00  0.00    +0.000 A 
ATOM      7  C   UNL     1      51.300   6.865  16.216  0.00  0.00    +0.000 A 
ATOM      8  C   UNL     1      51.669   7.724  15.200  0.00  0.00    +0.000 A 
ATOM      9  N   UNL     1      50.839   8.133  14.223  0.00  0.00    +0.000 NA
BRANCH   6  10
ATOM     10  N   UNL     1      49.554   5.547  17.283  0.00  0.00    +0.000 N 
ATOM     11  C   UNL     1      48.198   5.633  17.824  0.00  0.00    +0.000 C 
ATOM     12  C   UNL     1      47.423   4.356  17.522  0.00  0.00    +0.000 C 
ATOM     13  C   UNL     1      48.192   3.103  17.936  0.00  0.00    +0.000 C 
ATOM     14  C   UNL     1      49.615   3.094  17.384  0.00  0.00    +0.000 C 
ATOM     15  C   UNL     1      50.359   4.392  17.694  0.00  0.00    +0.000 C 
BRANCH  13  16
ATOM     16  O   UNL     1      48.203   2.965  19.356  0.00  0.00    +0.000 OA
ATOM     17  H   UNL     1      47.411   3.390  19.725  0.00  0.00    +0.000 HD
ENDBRANCH  13  16
ENDBRANCH   6  10
ENDBRANCH   1   4
BRANCH   1  18
ATOM     18  C   UNL     1      47.131   7.950  13.670  0.00  0.00    +0.000 C 
BRANCH  18  23
ATOM     19  C   UNL     1      44.552   4.079  11.529  0.00  0.00    +0.000 A 
ATOM     20  C   UNL     1      45.486   4.117  12.552  0.00  0.00    +0.000 A 
ATOM     21  C   UNL     1      46.026   5.345  12.935  0.00  0.00    +0.000 A 
ATOM     22  C   UNL     1      45.645   6.514  12.277  0.00  0.00    +0.000 A 
ATOM     23  N   UNL     1      46.136   7.749  12.617  0.00  0.00    +0.000 N 
ATOM     24  N   UNL     1      44.746   6.485  11.274  0.00  0.00    +0.000 NA
ATOM     25  C   UNL     1      44.222   5.278  10.918  0.00  0.00    +0.000 A 
ATOM     26  H   UNL     1      45.909   8.498  11.969  0.00  0.00    +0.000 HD
BRANCH  19  28
ATOM     27  N   UNL     1      44.523   2.232   9.962  0.00  0.00    +0.000 N 
ATOM     28  C   UNL     1      43.952   2.817  11.059  0.00  0.00    +0.000 C 
ATOM     29  O   UNL     1      42.998   2.306  11.632  0.00  0.00    +0.000 OA
ATOM     30  H   UNL     1      44.155   1.331   9.684  0.00  0.00    +0.000 HD
ATOM     31  H   UNL     1      45.438   2.489   9.620  0.00  0.00    +0.000 HD
ENDBRANCH  19  28
ENDBRANCH  18  23
ENDBRANCH   1  18
TORSDOF 6
ENDMDL
MODEL 8
REMARK VINA RESULT:    -6.701      1.630      2.198
REMARK INTER + INTRA:         -10.035
REMARK INTER:                 -10.088
REMARK INTRA:                   0.052
REMARK UNBOUND:                -1.180
REMARK  Name = 
REMARK  6 active torsions:
REMARK  status: ('A' for Active; 'I' for Inactive)
REMARK    1  A    between atoms: C_2  and  C_4
REMARK    2  A    between atoms: N_8  and  C_9
REMARK    3  A    between atoms: C_9  and  C_10
REMARK    4  A    between atoms: C_10  and  C_13
REMARK    5  A    between atoms: C_15  and  N_16
REMARK    6  A    between atoms: C_19  and  O_20
REMARK                            x       y       z     vdW  Elec       q    Type
REMARK                         _______ _______ _______ _____ _____    ______ ____
ROOT
ATOM      1  C   UNL     1      44.887   4.683  12.425  0.00  0.00    +0.000 C 
ATOM      2  F   UNL     1      44.081   4.779  13.524  0.00  0.00    +0.000 F 
ATOM      3  F   UNL     1      45.312   3.383  12.405  0.00  0.00    +0.000 F 
ENDROOT
BRANCH   1   4
ATOM      4  C   UNL     1      46.048   5.673  12.490  0.00  0.00    +0.000 A 
ATOM      5  C   UNL     1      46.654   5.955  13.713  0.00  0.00    +0.000 A 
ATOM      6  C   UNL     1      47.657   6.931  13.810  0.00  0.00    +0.000 A 
ATOM      7  C   UNL     1      48.045   7.550  12.620  0.00  0.00    +0.000 A 
ATOM      8  C   UNL     1      47.416   7.214  11.438  0.00  0.00    +0.000 A 
ATOM      9  N   UNL     1      46.429   6.304  11.345  0.00  0.00    +0.000 NA
BRANCH   6  10
ATOM     10  N   UNL     1      48.220   7.260  15.031  0.00  0.00    +0.000 N 
ATOM     11  C   UNL     1      48.622   6.242  16.001  0.00  0.00    +0.000 C 
ATOM     12  C   UNL     1      50.134   6.258  16.192  0.00  0.00    +0.000 C 
ATOM     13  C   UNL     1      50.663   7.659  16.487  0.00  0.00    +0.000 C 
ATOM     14  C   UNL     1      50.170   8.686  15.472  0.00  0.00    +0.000 C 
ATOM     15  C   UNL     1      48.653   8.636  15.296  0.00  0.00    +0.000 C 
BRANCH  13  16
ATOM     16  O   UNL     1      50.319   8.059  17.813  0.00  0.00    +0.000 OA
ATOM     17  H   UNL     1      49.498   7.612  18.079  0.00  0.00    +0.000 HD
ENDBRANCH  13  16
ENDBRANCH   6  10
ENDBRANCH   1   4
BRANCH   1  18
ATOM     18  C   UNL     1      44.036   4.946  11.161  0.00  0.00    +0.000 C 
BRANCH  18  23
ATOM     19  C   UNL     1      46.564   2.441   7.481  0.00  0.00    +0.000 A 
ATOM     20  C   UNL     1      45.872   1.998   8.596  0.00  0.00    +0.000 A 
ATOM     21  C   UNL     1      45.265   2.932   9.436  0.00  0.00    +0.000 A 
ATOM     22  C   UNL     1      45.377   4.295   9.164  0.00  0.00    +0.000 A 
ATOM     23  N   UNL     1      44.793   5.257   9.949  0.00  0.00    +0.000 N 
ATOM     24  N   UNL     1      46.057   4.735   8.088  0.00  0.00    +0.000 NA
ATOM     25  C   UNL     1      46.637   3.809   7.274  0.00  0.00    +0.000 A 
ATOM     26  H   UNL     1      45.074   6.211   9.744  0.00  0.00    +0.000 HD
BRANCH  19  28
ATOM     27  N   UNL     1      48.226   2.042   5.764  0.00  0.00    +0.000 N 
ATOM     28  C   UNL     1      47.246   1.514   6.558  0.00  0.00    +0.000 C 
ATOM     29  O   UNL     1      46.962   0.324   6.516  0.00  0.00    +0.000 OA
ATOM     30  H   UNL     1      48.741   1.392   5.184  0.00  0.00    +0.000 HD
ATOM     31  H   UNL     1      48.646   2.944   5.941  0.00  0.00    +0.000 HD
ENDBRANCH  19  28
ENDBRANCH  18  23
ENDBRANCH   1  18
TORSDOF 6
ENDMDL
MODEL 9
REMARK VINA RESULT:    -6.645      3.853      8.000
REMARK INTER + INTRA:          -9.961
REMARK INTER:                  -8.816
REMARK INTRA:                  -1.145
REMARK UNBOUND:                -1.180
REMARK  Name = 
REMARK  6 active torsions:
REMARK  status: ('A' for Active; 'I' for Inactive)
REMARK    1  A    between atoms: C_2  and  C_4
REMARK    2  A    between atoms: N_8  and  C_9
REMARK    3  A    between atoms: C_9  and  C_10
REMARK    4  A    between atoms: C_10  and  C_13
REMARK    5  A    between atoms: C_15  and  N_16
REMARK    6  A    between atoms: C_19  and  O_20
REMARK                            x       y       z     vdW  Elec       q    Type
REMARK                         _______ _______ _______ _____ _____    ______ ____
ROOT
ATOM      1  C   UNL     1      49.200   7.855  12.649  0.00  0.00    +0.000 C 
ATOM      2  F   UNL     1      49.656   8.696  11.672  0.00  0.00    +0.000 F 
ATOM      3  F   UNL     1      49.760   6.641  12.365  0.00  0.00    +0.000 F 
ENDROOT
BRANCH   1   4
ATOM      4  C   UNL     1      47.673   7.800  12.676  0.00  0.00    +0.000 A 
ATOM      5  C   UNL     1      47.026   6.582  12.876  0.00  0.00    +0.000 A 
ATOM      6  C   UNL     1      45.627   6.494  12.810  0.00  0.00    +0.000 A 
ATOM      7  C   UNL     1      44.933   7.686  12.593  0.00  0.00    +0.000 A 
ATOM      8  C   UNL     1      45.635   8.863  12.418  0.00  0.00    +0.000 A 
ATOM      9  N   UNL     1      46.977   8.948  12.446  0.00  0.00    +0.000 NA
BRANCH   6  10
ATOM     10  N   UNL     1      44.980   5.278  12.946  0.00  0.00    +0.000 N 
ATOM     11  C   UNL     1      43.521   5.173  12.975  0.00  0.00    +0.000 C 
ATOM     12  C   UNL     1      43.019   4.409  11.756  0.00  0.00    +0.000 C 
ATOM     13  C   UNL     1      43.746   3.079  11.570  0.00  0.00    +0.000 C 
ATOM     14  C   UNL     1      45.263   3.244  11.599  0.00  0.00    +0.000 C 
ATOM     15  C   UNL     1      45.731   4.025  12.826  0.00  0.00    +0.000 C 
BRANCH  13  16
ATOM     16  O   UNL     1      43.325   2.132  12.552  0.00  0.00    +0.000 OA
ATOM     17  H   UNL     1      43.554   1.237  12.251  0.00  0.00    +0.000 HD
ENDBRANCH  13  16
ENDBRANCH   6  10
ENDBRANCH   1   4
BRANCH   1  18
ATOM     18  C   UNL     1      49.737   8.344  14.014  0.00  0.00    +0.000 C 
BRANCH  18  23
ATOM     19  C   UNL     1      49.300   5.171  18.009  0.00  0.00    +0.000 A 
ATOM     20  C   UNL     1      48.401   6.042  17.414  0.00  0.00    +0.000 A 
ATOM     21  C   UNL     1      48.809   6.791  16.310  0.00  0.00    +0.000 A 
ATOM     22  C   UNL     1      50.113   6.678  15.829  0.00  0.00    +0.000 A 
ATOM     23  N   UNL     1      50.565   7.383  14.742  0.00  0.00    +0.000 N 
ATOM     24  N   UNL     1      50.997   5.842  16.408  0.00  0.00    +0.000 NA
ATOM     25  C   UNL     1      50.580   5.112  17.480  0.00  0.00    +0.000 A 
ATOM     26  H   UNL     1      51.567   7.339  14.585  0.00  0.00    +0.000 HD
BRANCH  19  28
ATOM     27  N   UNL     1      48.403   3.128  18.952  0.00  0.00    +0.000 N 
ATOM     28  C   UNL     1      48.947   4.361  19.189  0.00  0.00    +0.000 C 
ATOM     29  O   UNL     1      49.146   4.762  20.328  0.00  0.00    +0.000 OA
ATOM     30  H   UNL     1      48.228   2.545  19.761  0.00  0.00    +0.000 HD
ATOM     31  H   UNL     1      48.450   2.675  18.050  0.00  0.00    +0.000 HD
ENDBRANCH  19  28
ENDBRANCH  18  23
ENDBRANCH   1  18
TORSDOF 6
ENDMDL
