MODEL 1
REMARK VINA RESULT:    -7.978      0.000      0.000
REMARK INTER + INTRA:         -10.283
REMARK INTER:                  -9.843
REMARK INTRA:                  -0.440
REMARK UNBOUND:                -0.440
REMARK  Name = 
REMARK  5 active torsions:
REMARK  status: ('A' for Active; 'I' for Inactive)
REMARK    1  A    between atoms: C_1  and  C_2
REMARK    2  A    between atoms: C_2  and  O_3
REMARK    3  A    between atoms: C_2  and  C_13
REMARK    4  A    between atoms: O_3  and  C_4
REMARK    5  A    between atoms: C_7  and  C_8
REMARK                            x       y       z     vdW  Elec       q    Type
REMARK                         _______ _______ _______ _____ _____    ______ ____
ROOT
ATOM      1  C   UNL     1      44.493   3.879   8.988  0.00  0.00    +0.000 A 
ATOM      2  N   UNL     1      44.472   2.568   9.273  0.00  0.00    +0.000 NA
ATOM      3  C   UNL     1      45.409   1.810   8.659  0.00  0.00    +0.000 A 
ATOM      4  C   UNL     1      46.335   2.311   7.771  0.00  0.00    +0.000 A 
ATOM      5  C   UNL     1      46.253   3.666   7.542  0.00  0.00    +0.000 A 
ATOM      6  N   UNL     1      45.333   4.472   8.120  0.00  0.00    +0.000 NA
ENDROOT
BRANCH   4   7
ATOM      7  C   UNL     1      47.350   1.428   7.178  0.00  0.00    +0.000 C 
ATOM      8  N   UNL     1      48.391   2.003   6.507  0.00  0.00    +0.000 N 
ATOM      9  O   UNL     1      47.253   0.211   7.264  0.00  0.00    +0.000 OA
ATOM     10  H   UNL     1      48.411   2.967   6.208  0.00  0.00    +0.000 HD
ATOM     11  H   UNL     1      49.026   1.365   6.040  0.00  0.00    +0.000 HD
ENDBRANCH   4   7
BRANCH   1  12
ATOM     12  O   UNL     1      43.600   4.635   9.709  0.00  0.00    +0.000 OA
BRANCH  12  14
ATOM     13  C   UNL     1      42.561   5.278  11.844  0.00  0.00    +0.000 C 
ATOM     14  C   UNL     1      43.655   4.467  11.132  0.00  0.00    +0.000 C 
BRANCH  14  15
ATOM     15  C   UNL     1      45.055   4.935  11.622  0.00  0.00    +0.000 C 
ATOM     16  C   UNL     1      45.301   4.615  13.111  0.00  0.00    +0.000 C 
ATOM     17  C   UNL     1      46.686   5.064  13.568  0.00  0.00    +0.000 C 
ATOM     18  C   UNL     1      46.911   6.546  13.299  0.00  0.00    +0.000 C 
ATOM     19  C   UNL     1      46.659   6.891  11.835  0.00  0.00    +0.000 C 
ATOM     20  C   UNL     1      45.270   6.441  11.376  0.00  0.00    +0.000 C 
ENDBRANCH  14  15
ENDBRANCH  12  14
ENDBRANCH   1  12
TORSDOF 4
ENDMDL
MODEL 2
REMARK VINA RESULT:    -6.502      3.637      6.213
REMARK INTER + INTRA:          -8.462
REMARK INTER:                  -7.982
REMARK INTRA:                  -0.479
REMARK UNBOUND:                -0.440
REMARK  Name = 
REMARK  5 active torsions:
REMARK  status: ('A' for Active; 'I' for Inactive)
REMARK    1  A    between atoms: C_1  and  C_2
REMARK    2  A    between atoms: C_2  and  O_3
REMARK    3  A    between atoms: C_2  and  C_13
REMARK    4  A    between atoms: O_3  and  C_4
REMARK    5  A    between atoms: C_7  and  C_8
REMARK                            x       y       z     vdW  Elec       q    Type
REMARK                         _______ _______ _______ _____ _____    ______ ____
ROOT
ATOM      1  C   UNL     1      45.785   4.710  12.991  0.00  0.00    +0.000 A 
ATOM      2  N   UNL     1      46.149   4.072  14.114  0.00  0.00    +0.000 NA
ATOM      3  C   UNL     1      47.099   4.677  14.862  0.00  0.00    +0.000 A 
ATOM      4  C   UNL     1      47.699   5.868  14.517  0.00  0.00    +0.000 A 
ATOM      5  C   UNL     1      47.259   6.425  13.337  0.00  0.00    +0.000 A 
ATOM      6  N   UNL     1      46.319   5.860  12.544  0.00  0.00    +0.000 NA
ENDROOT
BRANCH   4   7
ATOM      7  C   UNL     1      48.693   6.484  15.407  0.00  0.00    +0.000 C 
ATOM      8  N   UNL     1      48.302   6.828  16.670  0.00  0.00    +0.000 N 
ATOM      9  O   UNL     1      49.833   6.705  15.021  0.00  0.00    +0.000 OA
ATOM     10  H   UNL     1      47.340   6.883  16.972  0.00  0.00    +0.000 HD
ATOM     11  H   UNL     1      48.987   7.326  17.228  0.00  0.00    +0.000 HD
ENDBRANCH   4   7
BRANCH   1  12
ATOM     12  O   UNL     1      44.744   4.123  12.311  0.00  0.00    +0.000 OA
BRANCH  12  14
ATOM     13  C   UNL     1      42.702   5.170  11.427  0.00  0.00    +0.000 C 
ATOM     14  C   UNL     1      44.200   4.892  11.231  0.00  0.00    +0.000 C 
BRANCH  14  15
ATOM     15  C   UNL     1      44.415   4.096   9.912  0.00  0.00    +0.000 C 
ATOM     16  C   UNL     1      44.661   2.593  10.159  0.00  0.00    +0.000 C 
ATOM     17  C   UNL     1      44.850   1.826   8.852  0.00  0.00    +0.000 C 
ATOM     18  C   UNL     1      45.976   2.417   8.014  0.00  0.00    +0.000 C 
ATOM     19  C   UNL     1      45.763   3.908   7.769  0.00  0.00    +0.000 C 
ATOM     20  C   UNL     1      45.574   4.678   9.078  0.00  0.00    +0.000 C 
ENDBRANCH  14  15
ENDBRANCH  12  14
ENDBRANCH   1  12
TORSDOF 4
ENDMDL
MODEL 3
REMARK VINA RESULT:    -6.463      3.547      6.258
REMARK INTER + INTRA:          -8.414
REMARK INTER:                  -7.945
REMARK INTRA:                  -0.469
REMARK UNBOUND:                -0.440
REMARK  Name = 
REMARK  5 active torsions:
REMARK  status: ('A' for Active; 'I' for Inactive)
REMARK    1  A    between atoms: C_1  and  C_2
REMARK    2  A    between atoms: C_2  and  O_3
REMARK    3  A    between atoms: C_2  and  C_13
REMARK    4  A    between atoms: O_3  and  C_4
REMARK    5  A    between atoms: C_7  and  C_8
REMARK                            x       y       z     vdW  Elec       q    Type
REMARK                         _______ _______ _______ _____ _____    ______ ____
ROOT
ATOM      1  C   UNL     1      45.676   4.704  12.945  0.00  0.00    +0.000 A 
ATOM      2  N   UNL     1      46.134   5.889  12.514  0.00  0.00    +0.000 NA
ATOM      3  C   UNL     1      47.113   6.454  13.256  0.00  0.00    +0.000 A 
ATOM      4  C   UNL     1      47.624   5.890  14.404  0.00  0.00    +0.000 A 
ATOM      5  C   UNL     1      47.068   4.682  14.759  0.00  0.00    +0.000 A 
ATOM      6  N   UNL     1      46.082   4.074  14.062  0.00  0.00    +0.000 NA
ENDROOT
BRANCH   4   7
ATOM      7  C   UNL     1      48.720   6.547  15.130  0.00  0.00    +0.000 C 
ATOM      8  N   UNL     1      48.533   6.841  16.451  0.00  0.00    +0.000 N 
ATOM      9  O   UNL     1      49.763   6.843  14.563  0.00  0.00    +0.000 OA
ATOM     10  H   UNL     1      47.634   6.832  16.913  0.00  0.00    +0.000 HD
ATOM     11  H   UNL     1      49.274   7.368  16.899  0.00  0.00    +0.000 HD
ENDBRANCH   4   7
BRANCH   1  12
ATOM     12  O   UNL     1      44.759   4.107  12.111  0.00  0.00    +0.000 OA
BRANCH  12  14
ATOM     13  C   UNL     1      42.891   5.309  11.056  0.00  0.00    +0.000 C 
ATOM     14  C   UNL     1      44.365   4.882  10.972  0.00  0.00    +0.000 C 
BRANCH  14  15
ATOM     15  C   UNL     1      44.585   4.017   9.697  0.00  0.00    +0.000 C 
ATOM     16  C   UNL     1      44.896   2.542  10.027  0.00  0.00    +0.000 C 
ATOM     17  C   UNL     1      45.090   1.706   8.764  0.00  0.00    +0.000 C 
ATOM     18  C   UNL     1      46.174   2.290   7.867  0.00  0.00    +0.000 C 
ATOM     19  C   UNL     1      45.897   3.754   7.540  0.00  0.00    +0.000 C 
ATOM     20  C   UNL     1      45.702   4.593   8.805  0.00  0.00    +0.000 C 
ENDBRANCH  14  15
ENDBRANCH  12  14
ENDBRANCH   1  12
TORSDOF 4
ENDMDL
MODEL 4
REMARK VINA RESULT:    -6.011      2.780      5.904
REMARK INTER + INTRA:          -7.857
REMARK INTER:                  -8.355
REMARK INTRA:                   0.498
REMARK UNBOUND:                -0.440
REMARK  Name = 
REMARK  5 active torsions:
REMARK  status: ('A' for Active; 'I' for Inactive)
REMARK    1  A    between atoms: C_1  and  C_2
REMARK    2  A    between atoms: C_2  and  O_3
REMARK    3  A    between atoms: C_2  and  C_13
REMARK    4  A    between atoms: O_3  and  C_4
REMARK    5  A    between atoms: C_7  and  C_8
REMARK                            x       y       z     vdW  Elec       q    Type
REMARK                         _______ _______ _______ _____ _____    ______ ____
ROOT
ATOM      1  C   UNL     1      44.953   5.171  11.046  0.00  0.00    +0.000 A 
ATOM      2  N   UNL     1      45.954   5.978  10.666  0.00  0.00    +0.000 NA
ATOM      3  C   UNL     1      46.877   6.269  11.611  0.00  0.00    +0.000 A 
ATOM      4  C   UNL     1      46.817   5.802  12.905  0.00  0.00    +0.000 A 
ATOM      5  C   UNL     1      45.737   4.995  13.187  0.00  0.00    +0.000 A 
ATOM      6  N   UNL     1      44.781   4.677  12.285  0.00  0.00    +0.000 NA
ENDROOT
BRANCH   4   7
ATOM      7  C   UNL     1      47.884   6.128  13.863  0.00  0.00    +0.000 C 
ATOM      8  N   UNL     1      47.623   5.974  15.195  0.00  0.00    +0.000 N 
ATOM      9  O   UNL     1      48.968   6.546  13.479  0.00  0.00    +0.000 OA
ATOM     10  H   UNL     1      46.697   5.856  15.582  0.00  0.00    +0.000 HD
ATOM     11  H   UNL     1      48.349   6.287  15.829  0.00  0.00    +0.000 HD
ENDBRANCH   4   7
BRANCH   1  12
ATOM     12  O   UNL     1      44.094   4.809  10.035  0.00  0.00    +0.000 OA
BRANCH  12  14
ATOM     13  C   UNL     1      43.912   2.560  11.012  0.00  0.00    +0.000 C 
ATOM     14  C   UNL     1      44.045   3.408   9.738  0.00  0.00    +0.000 C 
BRANCH  14  15
ATOM     15  C   UNL     1      45.353   3.025   8.989  0.00  0.00    +0.000 C 
ATOM     16  C   UNL     1      45.585   3.876   7.723  0.00  0.00    +0.000 C 
ATOM     17  C   UNL     1      46.883   3.498   7.014  0.00  0.00    +0.000 C 
ATOM     18  C   UNL     1      46.923   2.015   6.671  0.00  0.00    +0.000 C 
ATOM     19  C   UNL     1      46.681   1.152   7.906  0.00  0.00    +0.000 C 
ATOM     20  C   UNL     1      45.380   1.529   8.617  0.00  0.00    +0.000 C 
ENDBRANCH  14  15
ENDBRANCH  12  14
ENDBRANCH   1  12
TORSDOF 4
ENDMDL
MODEL 5
REMARK VINA RESULT:    -5.912      4.397      6.926
REMARK INTER + INTRA:          -7.734
REMARK INTER:                  -7.326
REMARK INTRA:                  -0.408
REMARK UNBOUND:                -0.440
REMARK  Name = 
REMARK  5 active torsions:
REMARK  status: ('A' for Active; 'I' for Inactive)
REMARK    1  A    between atoms: C_1  and  C_2
REMARK    2  A    between atoms: C_2  and  O_3
REMARK    3  A    between atoms: C_2  and  C_13
REMARK    4  A    between atoms: O_3  and  C_4
REMARK    5  A    between atoms: C_7  and  C_8
REMARK                            x       y       z     vdW  Elec       q    Type
REMARK                         _______ _______ _______ _____ _____    ______ ____
ROOT
ATOM      1  C   UNL     1      46.600   4.505  14.267  0.00  0.00    +0.000 A 
ATOM      2  N   UNL     1      46.890   4.035  15.489  0.00  0.00    +0.000 NA
ATOM      3  C   UNL     1      47.787   4.750  16.205  0.00  0.00    +0.000 A 
ATOM      4  C   UNL     1      48.406   5.887  15.736  0.00  0.00    +0.000 A 
ATOM      5  C   UNL     1      48.044   6.268  14.463  0.00  0.00    +0.000 A 
ATOM      6  N   UNL     1      47.159   5.588  13.698  0.00  0.00    +0.000 NA
ENDROOT
BRANCH   4   7
ATOM      7  C   UNL     1      49.338   6.634  16.593  0.00  0.00    +0.000 C 
ATOM      8  N   UNL     1      50.559   6.968  16.079  0.00  0.00    +0.000 N 
ATOM      9  O   UNL     1      49.038   6.928  17.742  0.00  0.00    +0.000 OA
ATOM     10  H   UNL     1      50.950   6.567  15.238  0.00  0.00    +0.000 HD
ATOM     11  H   UNL     1      51.207   7.407  16.723  0.00  0.00    +0.000 HD
ENDBRANCH   4   7
BRANCH   1  12
ATOM     12  O   UNL     1      45.607   3.817  13.610  0.00  0.00    +0.000 OA
BRANCH  12  14
ATOM     13  C   UNL     1      43.331   4.452  12.926  0.00  0.00    +0.000 C 
ATOM     14  C   UNL     1      44.840   4.584  12.672  0.00  0.00    +0.000 C 
BRANCH  14  15
ATOM     15  C   UNL     1      45.175   4.075  11.241  0.00  0.00    +0.000 C 
ATOM     16  C   UNL     1      45.346   5.224  10.225  0.00  0.00    +0.000 C 
ATOM     17  C   UNL     1      45.692   4.705   8.832  0.00  0.00    +0.000 C 
ATOM     18  C   UNL     1      44.658   3.705   8.333  0.00  0.00    +0.000 C 
ATOM     19  C   UNL     1      44.461   2.566   9.328  0.00  0.00    +0.000 C 
ATOM     20  C   UNL     1      44.113   3.084  10.725  0.00  0.00    +0.000 C 
ENDBRANCH  14  15
ENDBRANCH  12  14
ENDBRANCH   1  12
TORSDOF 4
ENDMDL
MODEL 6
REMARK VINA RESULT:    -5.467      4.090      6.323
REMARK INTER + INTRA:          -7.184
REMARK INTER:                  -6.760
REMARK INTRA:                  -0.424
REMARK UNBOUND:                -0.440
REMARK  Name = 
REMARK  5 active torsions:
REMARK  status: ('A' for Active; 'I' for Inactive)
REMARK    1  A    between atoms: C_1  and  C_2
REMARK    2  A    between atoms: C_2  and  O_3
REMARK    3  A    between atoms: C_2  and  C_13
REMARK    4  A    between atoms: O_3  and  C_4
REMARK    5  A    between atoms: C_7  and  C_8
REMARK                            x       y       z     vdW  Elec       q    Type
REMARK                         _______ _______ _______ _____ _____    ______ ____
ROOT
ATOM      1  C   UNL     1      46.863   5.671  13.359  0.00  0.00    +0.000 A 
ATOM      2  N   UNL     1      46.142   4.541  13.384  0.00  0.00    +0.000 NA
ATOM      3  C   UNL     1      44.979   4.561  12.694  0.00  0.00    +0.000 A 
ATOM      4  C   UNL     1      44.516   5.663  12.010  0.00  0.00    +0.000 A 
ATOM      5  C   UNL     1      45.330   6.772  12.067  0.00  0.00    +0.000 A 
ATOM      6  N   UNL     1      46.499   6.812  12.747  0.00  0.00    +0.000 NA
ENDROOT
BRANCH   4   7
ATOM      7  C   UNL     1      43.261   5.591  11.247  0.00  0.00    +0.000 C 
ATOM      8  N   UNL     1      42.158   6.212  11.761  0.00  0.00    +0.000 N 
ATOM      9  O   UNL     1      43.200   4.973  10.193  0.00  0.00    +0.000 OA
ATOM     10  H   UNL     1      42.082   6.537  12.714  0.00  0.00    +0.000 HD
ATOM     11  H   UNL     1      41.292   6.072  11.253  0.00  0.00    +0.000 HD
ENDBRANCH   4   7
BRANCH   1  12
ATOM     12  O   UNL     1      48.088   5.582  13.979  0.00  0.00    +0.000 OA
BRANCH  12  14
ATOM     13  C   UNL     1      49.189   7.149  15.522  0.00  0.00    +0.000 C 
ATOM     14  C   UNL     1      48.131   6.052  15.332  0.00  0.00    +0.000 C 
BRANCH  14  15
ATOM     15  C   UNL     1      48.461   4.843  16.255  0.00  0.00    +0.000 C 
ATOM     16  C   UNL     1      47.196   4.111  16.750  0.00  0.00    +0.000 C 
ATOM     17  C   UNL     1      47.542   2.918  17.638  0.00  0.00    +0.000 C 
ATOM     18  C   UNL     1      48.414   3.330  18.816  0.00  0.00    +0.000 C 
ATOM     19  C   UNL     1      49.664   4.070  18.352  0.00  0.00    +0.000 C 
ATOM     20  C   UNL     1      49.319   5.266  17.463  0.00  0.00    +0.000 C 
ENDBRANCH  14  15
ENDBRANCH  12  14
ENDBRANCH   1  12
TORSDOF 4
ENDMDL
MODEL 7
REMARK VINA RESULT:    -5.416      5.379      7.838
REMARK INTER + INTRA:          -7.122
REMARK INTER:                  -6.757
REMARK INTRA:                  -0.365
REMARK UNBOUND:                -0.440
REMARK  Name = 
REMARK  5 active torsions:
REMARK  status: ('A' for Active; 'I' for Inactive)
REMARK    1  A    between atoms: C_1  and  C_2
REMARK    2  A    between atoms: C_2  and  O_3
REMARK    3  A    between atoms: C_2  and  C_13
REMARK    4  A    between atoms: O_3  and  C_4
REMARK    5  A    between atoms: C_7  and  C_8
REMARK                            x       y       z     vdW  Elec       q    Type
REMARK                         _______ _______ _______ _____ _____    ______ ____
ROOT
ATOM      1  C   UNL     1      47.425   4.546  15.286  0.00  0.00    +0.000 A 
ATOM      2  N   UNL     1      48.345   5.436  15.684  0.00  0.00    +0.000 NA
ATOM      3  C   UNL     1      48.697   5.387  16.989  0.00  0.00    +0.000 A 
ATOM      4  C   UNL     1      48.151   4.505  17.894  0.00  0.00    +0.000 A 
ATOM      5  C   UNL     1      47.205   3.648  17.378  0.00  0.00    +0.000 A 
ATOM      6  N   UNL     1      46.808   3.657  16.085  0.00  0.00    +0.000 NA
ENDROOT
BRANCH   4   7
ATOM      7  C   UNL     1      48.619   4.485  19.288  0.00  0.00    +0.000 C 
ATOM      8  N   UNL     1      48.515   3.315  19.986  0.00  0.00    +0.000 N 
ATOM      9  O   UNL     1      49.069   5.493  19.815  0.00  0.00    +0.000 OA
ATOM     10  H   UNL     1      47.956   2.527  19.692  0.00  0.00    +0.000 HD
ATOM     11  H   UNL     1      48.768   3.359  20.966  0.00  0.00    +0.000 HD
ENDBRANCH   4   7
BRANCH   1  12
ATOM     12  O   UNL     1      47.169   4.551  13.935  0.00  0.00    +0.000 OA
BRANCH  12  14
ATOM     13  C   UNL     1      45.697   3.316  12.400  0.00  0.00    +0.000 C 
ATOM     14  C   UNL     1      45.806   4.315  13.563  0.00  0.00    +0.000 C 
BRANCH  14  15
ATOM     15  C   UNL     1      45.174   5.674  13.145  0.00  0.00    +0.000 C 
ATOM     16  C   UNL     1      44.336   5.568  11.854  0.00  0.00    +0.000 C 
ATOM     17  C   UNL     1      43.710   6.907  11.472  0.00  0.00    +0.000 C 
ATOM     18  C   UNL     1      44.763   7.998  11.334  0.00  0.00    +0.000 C 
ATOM     19  C   UNL     1      45.616   8.112  12.594  0.00  0.00    +0.000 C 
ATOM     20  C   UNL     1      46.244   6.771  12.978  0.00  0.00    +0.000 C 
ENDBRANCH  14  15
ENDBRANCH  12  14
ENDBRANCH   1  12
TORSDOF 4
ENDMDL
MODEL 8
REMARK VINA RESULT:    -5.360      3.570      5.828
REMARK INTER + INTRA:          -7.053
REMARK INTER:                  -6.715
REMARK INTRA:                  -0.338
REMARK UNBOUND:                -0.440
REMARK  Name = 
REMARK  5 active torsions:
REMARK  status: ('A' for Active; 'I' for Inactive)
REMARK    1  A    between atoms: C_1  and  C_2
REMARK    2  A    between atoms: C_2  and  O_3
REMARK    3  A    between atoms: C_2  and  C_13
REMARK    4  A    between atoms: O_3  and  C_4
REMARK    5  A    between atoms: C_7  and  C_8
REMARK                            x       y       z     vdW  Elec       q    Type
REMARK                         _______ _______ _______ _____ _____    ______ ____
ROOT
ATOM      1  C   UNL     1      46.781   4.903  13.245  0.00  0.00    +0.000 A 
ATOM      2  N   UNL     1      46.032   3.791  13.239  0.00  0.00    +0.000 NA
ATOM      3  C   UNL     1      45.020   3.759  12.342  0.00  0.00    +0.000 A 
ATOM      4  C   UNL     1      44.729   4.794  11.481  0.00  0.00    +0.000 A 
ATOM      5  C   UNL     1      45.554   5.892  11.587  0.00  0.00    +0.000 A 
ATOM      6  N   UNL     1      46.575   5.983  12.470  0.00  0.00    +0.000 NA
ENDROOT
BRANCH   4   7
ATOM      7  C   UNL     1      43.639   4.665  10.504  0.00  0.00    +0.000 C 
ATOM      8  N   UNL     1      43.968   4.559   9.182  0.00  0.00    +0.000 N 
ATOM      9  O   UNL     1      42.469   4.673  10.862  0.00  0.00    +0.000 OA
ATOM     10  H   UNL     1      44.881   4.771   8.805  0.00  0.00    +0.000 HD
ATOM     11  H   UNL     1      43.192   4.556   8.530  0.00  0.00    +0.000 HD
ENDBRANCH   4   7
BRANCH   1  12
ATOM     12  O   UNL     1      47.864   4.859  14.092  0.00  0.00    +0.000 OA
BRANCH  12  14
ATOM     13  C   UNL     1      49.046   6.868  14.876  0.00  0.00    +0.000 C 
ATOM     14  C   UNL     1      47.898   5.873  15.104  0.00  0.00    +0.000 C 
BRANCH  14  15
ATOM     15  C   UNL     1      48.077   5.176  16.483  0.00  0.00    +0.000 C 
ATOM     16  C   UNL     1      49.521   5.276  17.017  0.00  0.00    +0.000 C 
ATOM     17  C   UNL     1      49.672   4.603  18.379  0.00  0.00    +0.000 C 
ATOM     18  C   UNL     1      49.220   3.149  18.338  0.00  0.00    +0.000 C 
ATOM     19  C   UNL     1      47.799   3.022  17.798  0.00  0.00    +0.000 C 
ATOM     20  C   UNL     1      47.647   3.696  16.433  0.00  0.00    +0.000 C 
ENDBRANCH  14  15
ENDBRANCH  12  14
ENDBRANCH   1  12
TORSDOF 4
ENDMDL
MODEL 9
REMARK VINA RESULT:    -5.324      3.177      5.214
REMARK INTER + INTRA:          -7.009
REMARK INTER:                  -6.584
REMARK INTRA:                  -0.425
REMARK UNBOUND:                -0.440
REMARK  Name = 
REMARK  5 active torsions:
REMARK  status: ('A' for Active; 'I' for Inactive)
REMARK    1  A    between atoms: C_1  and  C_2
REMARK    2  A    between atoms: C_2  and  O_3
REMARK    3  A    between atoms: C_2  and  C_13
REMARK    4  A    between atoms: O_3  and  C_4
REMARK    5  A    between atoms: C_7  and  C_8
REMARK                            x       y       z     vdW  Elec       q    Type
REMARK                         _______ _______ _______ _____ _____    ______ ____
ROOT
ATOM      1  C   UNL     1      45.696   6.403  12.382  0.00  0.00    +0.000 A 
ATOM      2  N   UNL     1      45.170   5.559  13.282  0.00  0.00    +0.000 NA
ATOM      3  C   UNL     1      44.610   4.432  12.786  0.00  0.00    +0.000 A 
ATOM      4  C   UNL     1      44.545   4.141  11.441  0.00  0.00    +0.000 A 
ATOM      5  C   UNL     1      45.102   5.086  10.609  0.00  0.00    +0.000 A 
ATOM      6  N   UNL     1      45.667   6.233  11.048  0.00  0.00    +0.000 NA
ENDROOT
BRANCH   4   7
ATOM      7  C   UNL     1      43.958   2.873  10.984  0.00  0.00    +0.000 C 
ATOM      8  N   UNL     1      44.544   2.236   9.927  0.00  0.00    +0.000 N 
ATOM      9  O   UNL     1      42.959   2.411  11.519  0.00  0.00    +0.000 OA
ATOM     10  H   UNL     1      45.216   2.666   9.307  0.00  0.00    +0.000 HD
ATOM     11  H   UNL     1      44.066   1.410   9.584  0.00  0.00    +0.000 HD
ENDBRANCH   4   7
BRANCH   1  12
ATOM     12  O   UNL     1      46.351   7.483  12.926  0.00  0.00    +0.000 OA
BRANCH  12  14
ATOM     13  C   UNL     1      48.564   6.981  13.874  0.00  0.00    +0.000 C 
ATOM     14  C   UNL     1      47.764   7.534  12.685  0.00  0.00    +0.000 C 
BRANCH  14  15
ATOM     15  C   UNL     1      48.159   9.018  12.434  0.00  0.00    +0.000 C 
ATOM     16  C   UNL     1      46.958   9.890  12.012  0.00  0.00    +0.000 C 
ATOM     17  C   UNL     1      47.363  11.345  11.789  0.00  0.00    +0.000 C 
ATOM     18  C   UNL     1      48.490  11.463  10.771  0.00  0.00    +0.000 C 
ATOM     19  C   UNL     1      49.684  10.597  11.159  0.00  0.00    +0.000 C 
ATOM     20  C   UNL     1      49.280   9.138  11.382  0.00  0.00    +0.000 C 
ENDBRANCH  14  15
ENDBRANCH  12  14
ENDBRANCH   1  12
TORSDOF 4
ENDMDL
