MODEL 1
REMARK VINA RESULT:    -8.996      0.000      0.000
REMARK INTER + INTRA:         -12.367
REMARK INTER:                 -11.625
REMARK INTRA:                  -0.742
REMARK UNBOUND:                -0.742
REMARK  Name = 
REMARK  5 active torsions:
REMARK  status: ('A' for Active; 'I' for Inactive)
REMARK    1  A    between atoms: C_2  and  C_4
REMARK    2  A    between atoms: C_7  and  N_8
REMARK    3  A    between atoms: N_8  and  C_9
REMARK    4  A    between atoms: C_9  and  C_10
REMARK    5  A    between atoms: C_14  and  C_15
REMARK                            x       y       z     vdW  Elec       q    Type
REMARK                         _______ _______ _______ _____ _____    ______ ____
ROOT
ATOM      1  N   UNL     1      44.010   4.861  10.181  0.00  0.00    +0.000 N 
ATOM      2  H   UNL     1      43.189   5.280   9.755  0.00  0.00    +0.000 HD
ENDROOT
BRANCH   1   6
ATOM      3  C   UNL     1      46.374   2.277   7.838  0.00  0.00    +0.000 A 
ATOM      4  C   UNL     1      45.498   1.740   8.781  0.00  0.00    +0.000 A 
ATOM      5  C   UNL     1      44.671   2.583   9.530  0.00  0.00    +0.000 A 
ATOM      6  C   UNL     1      44.689   3.972   9.357  0.00  0.00    +0.000 A 
ATOM      7  C   UNL     1      45.580   4.494   8.407  0.00  0.00    +0.000 A 
ATOM      8  C   UNL     1      46.416   3.660   7.654  0.00  0.00    +0.000 A 
BRANCH   3  10
ATOM      9  N   UNL     1      48.411   2.020   6.531  0.00  0.00    +0.000 N 
ATOM     10  C   UNL     1      47.306   1.418   7.066  0.00  0.00    +0.000 C 
ATOM     11  O   UNL     1      47.114   0.218   6.931  0.00  0.00    +0.000 OA
ATOM     12  H   UNL     1      49.084   1.412   6.086  0.00  0.00    +0.000 HD
ATOM     13  H   UNL     1      48.724   2.936   6.824  0.00  0.00    +0.000 HD
ENDBRANCH   3  10
ENDBRANCH   1   6
BRANCH   1  14
ATOM     14  C   UNL     1      43.890   4.653  11.615  0.00  0.00    +0.000 C 
BRANCH  14  15
ATOM     15  C   UNL     1      45.157   5.087  12.303  0.00  0.00    +0.000 A 
ATOM     16  C   UNL     1      46.008   6.020  11.707  0.00  0.00    +0.000 A 
ATOM     17  C   UNL     1      47.207   6.314  12.328  0.00  0.00    +0.000 A 
ATOM     18  N   UNL     1      47.615   5.741  13.482  0.00  0.00    +0.000 NA
ATOM     19  C   UNL     1      46.792   4.826  14.067  0.00  0.00    +0.000 A 
ATOM     20  C   UNL     1      45.560   4.490  13.501  0.00  0.00    +0.000 A 
BRANCH  19  21
ATOM     21  C   UNL     1      47.285   4.177  15.305  0.00  0.00    +0.000 A 
ATOM     22  C   UNL     1      47.168   4.780  16.559  0.00  0.00    +0.000 A 
ATOM     23  C   UNL     1      47.676   4.135  17.684  0.00  0.00    +0.000 A 
ATOM     24  C   UNL     1      48.289   2.900  17.539  0.00  0.00    +0.000 A 
ATOM     25  C   UNL     1      48.368   2.357  16.269  0.00  0.00    +0.000 A 
ATOM     26  N   UNL     1      47.886   2.960  15.160  0.00  0.00    +0.000 NA
ENDBRANCH  19  21
ENDBRANCH  14  15
ENDBRANCH   1  14
TORSDOF 5
ENDMDL
MODEL 2
REMARK VINA RESULT:    -8.803      1.815      3.895
REMARK INTER + INTRA:         -12.118
REMARK INTER:                 -11.143
REMARK INTRA:                  -0.975
REMARK UNBOUND:                -0.742
REMARK  Name = 
REMARK  5 active torsions:
REMARK  status: ('A' for Active; 'I' for Inactive)
REMARK    1  A    between atoms: C_2  and  C_4
REMARK    2  A    between atoms: C_7  and  N_8
REMARK    3  A    between atoms: N_8  and  C_9
REMARK    4  A    between atoms: C_9  and  C_10
REMARK    5  A    between atoms: C_14  and  C_15
REMARK                            x       y       z     vdW  Elec       q    Type
REMARK                         _______ _______ _______ _____ _____    ______ ____
ROOT
ATOM      1  N   UNL     1      43.800   4.850  10.017  0.00  0.00    +0.000 N 
ATOM      2  H   UNL     1      42.928   5.154   9.595  0.00  0.00    +0.000 HD
ENDROOT
BRANCH   1   6
ATOM      3  C   UNL     1      46.309   2.266   7.830  0.00  0.00    +0.000 A 
ATOM      4  C   UNL     1      45.390   1.730   8.733  0.00  0.00    +0.000 A 
ATOM      5  C   UNL     1      44.517   2.572   9.429  0.00  0.00    +0.000 A 
ATOM      6  C   UNL     1      44.530   3.959   9.241  0.00  0.00    +0.000 A 
ATOM      7  C   UNL     1      45.464   4.480   8.332  0.00  0.00    +0.000 A 
ATOM      8  C   UNL     1      46.346   3.647   7.633  0.00  0.00    +0.000 A 
BRANCH   3  10
ATOM      9  N   UNL     1      48.390   2.024   6.593  0.00  0.00    +0.000 N 
ATOM     10  C   UNL     1      47.288   1.408   7.118  0.00  0.00    +0.000 C 
ATOM     11  O   UNL     1      47.136   0.198   7.022  0.00  0.00    +0.000 OA
ATOM     12  H   UNL     1      49.093   1.421   6.190  0.00  0.00    +0.000 HD
ATOM     13  H   UNL     1      48.667   2.958   6.859  0.00  0.00    +0.000 HD
ENDBRANCH   3  10
ENDBRANCH   1   6
BRANCH   1  14
ATOM     14  C   UNL     1      43.752   4.756  11.467  0.00  0.00    +0.000 C 
BRANCH  14  15
ATOM     15  C   UNL     1      45.127   4.982  12.041  0.00  0.00    +0.000 A 
ATOM     16  C   UNL     1      45.660   4.099  12.981  0.00  0.00    +0.000 A 
ATOM     17  C   UNL     1      46.882   4.400  13.553  0.00  0.00    +0.000 A 
ATOM     18  N   UNL     1      47.594   5.510  13.262  0.00  0.00    +0.000 NA
ATOM     19  C   UNL     1      47.077   6.379  12.349  0.00  0.00    +0.000 A 
ATOM     20  C   UNL     1      45.854   6.132  11.722  0.00  0.00    +0.000 A 
BRANCH  19  21
ATOM     21  C   UNL     1      47.854   7.613  12.084  0.00  0.00    +0.000 A 
ATOM     22  C   UNL     1      49.220   7.585  11.795  0.00  0.00    +0.000 A 
ATOM     23  C   UNL     1      49.905   8.780  11.583  0.00  0.00    +0.000 A 
ATOM     24  C   UNL     1      49.215   9.980  11.662  0.00  0.00    +0.000 A 
ATOM     25  C   UNL     1      47.862   9.937  11.949  0.00  0.00    +0.000 A 
ATOM     26  N   UNL     1      47.174   8.793  12.160  0.00  0.00    +0.000 NA
ENDBRANCH  19  21
ENDBRANCH  14  15
ENDBRANCH   1  14
TORSDOF 5
ENDMDL
MODEL 3
REMARK VINA RESULT:    -8.209      2.123      4.396
REMARK INTER + INTRA:         -11.350
REMARK INTER:                 -10.462
REMARK INTRA:                  -0.888
REMARK UNBOUND:                -0.742
REMARK  Name = 
REMARK  5 active torsions:
REMARK  status: ('A' for Active; 'I' for Inactive)
REMARK    1  A    between atoms: C_2  and  C_4
REMARK    2  A    between atoms: C_7  and  N_8
REMARK    3  A    between atoms: N_8  and  C_9
REMARK    4  A    between atoms: C_9  and  C_10
REMARK    5  A    between atoms: C_14  and  C_15
REMARK                            x       y       z     vdW  Elec       q    Type
REMARK                         _______ _______ _______ _____ _____    ______ ____
ROOT
ATOM      1  N   UNL     1      43.587   3.911  10.217  0.00  0.00    +0.000 N 
ATOM      2  H   UNL     1      42.675   3.665   9.842  0.00  0.00    +0.000 HD
ENDROOT
BRANCH   1   6
ATOM      3  C   UNL     1      46.589   2.636   7.550  0.00  0.00    +0.000 A 
ATOM      4  C   UNL     1      46.271   3.992   7.629  0.00  0.00    +0.000 A 
ATOM      5  C   UNL     1      45.313   4.436   8.546  0.00  0.00    +0.000 A 
ATOM      6  C   UNL     1      44.654   3.549   9.405  0.00  0.00    +0.000 A 
ATOM      7  C   UNL     1      44.984   2.188   9.308  0.00  0.00    +0.000 A 
ATOM      8  C   UNL     1      45.939   1.732   8.392  0.00  0.00    +0.000 A 
BRANCH   3  10
ATOM      9  N   UNL     1      47.866   2.944   5.501  0.00  0.00    +0.000 N 
ATOM     10  C   UNL     1      47.559   2.123   6.551  0.00  0.00    +0.000 C 
ATOM     11  O   UNL     1      48.086   1.025   6.668  0.00  0.00    +0.000 OA
ATOM     12  H   UNL     1      48.593   2.625   4.878  0.00  0.00    +0.000 HD
ATOM     13  H   UNL     1      47.646   3.931   5.503  0.00  0.00    +0.000 HD
ENDBRANCH   3  10
ENDBRANCH   1   6
BRANCH   1  14
ATOM     14  C   UNL     1      43.662   3.856  11.668  0.00  0.00    +0.000 C 
BRANCH  14  15
ATOM     15  C   UNL     1      44.821   4.687  12.152  0.00  0.00    +0.000 A 
ATOM     16  C   UNL     1      45.785   4.139  13.000  0.00  0.00    +0.000 A 
ATOM     17  C   UNL     1      46.774   4.965  13.498  0.00  0.00    +0.000 A 
ATOM     18  N   UNL     1      46.862   6.284  13.221  0.00  0.00    +0.000 NA
ATOM     19  C   UNL     1      45.922   6.827  12.398  0.00  0.00    +0.000 A 
ATOM     20  C   UNL     1      44.900   6.049  11.848  0.00  0.00    +0.000 A 
BRANCH  19  21
ATOM     21  C   UNL     1      46.011   8.286  12.149  0.00  0.00    +0.000 A 
ATOM     22  C   UNL     1      47.197   9.000  12.332  0.00  0.00    +0.000 A 
ATOM     23  C   UNL     1      47.215  10.375  12.110  0.00  0.00    +0.000 A 
ATOM     24  C   UNL     1      46.051  11.012  11.707  0.00  0.00    +0.000 A 
ATOM     25  C   UNL     1      44.912  10.244  11.541  0.00  0.00    +0.000 A 
ATOM     26  N   UNL     1      44.866   8.910  11.750  0.00  0.00    +0.000 NA
ENDBRANCH  19  21
ENDBRANCH  14  15
ENDBRANCH   1  14
TORSDOF 5
ENDMDL
MODEL 4
REMARK VINA RESULT:    -8.183      3.519      7.042
REMARK INTER + INTRA:         -11.317
REMARK INTER:                 -10.360
REMARK INTRA:                  -0.957
REMARK UNBOUND:                -0.742
REMARK  Name = 
REMARK  5 active torsions:
REMARK  status: ('A' for Active; 'I' for Inactive)
REMARK    1  A    between atoms: C_2  and  C_4
REMARK    2  A    between atoms: C_7  and  N_8
REMARK    3  A    between atoms: N_8  and  C_9
REMARK    4  A    between atoms: C_9  and  C_10
REMARK    5  A    between atoms: C_14  and  C_15
REMARK                            x       y       z     vdW  Elec       q    Type
REMARK                         _______ _______ _______ _____ _____    ______ ____
ROOT
ATOM      1  N   UNL     1      43.931   6.539  12.596  0.00  0.00    +0.000 N 
ATOM      2  H   UNL     1      43.296   7.057  13.196  0.00  0.00    +0.000 HD
ENDROOT
BRANCH   1   6
ATOM      3  C   UNL     1      48.080   7.158  12.980  0.00  0.00    +0.000 A 
ATOM      4  C   UNL     1      47.263   8.214  12.575  0.00  0.00    +0.000 A 
ATOM      5  C   UNL     1      45.878   8.037  12.492  0.00  0.00    +0.000 A 
ATOM      6  C   UNL     1      45.274   6.816  12.813  0.00  0.00    +0.000 A 
ATOM      7  C   UNL     1      46.113   5.764  13.215  0.00  0.00    +0.000 A 
ATOM      8  C   UNL     1      47.501   5.929  13.298  0.00  0.00    +0.000 A 
BRANCH   3  10
ATOM      9  N   UNL     1      50.225   7.247  11.833  0.00  0.00    +0.000 N 
ATOM     10  C   UNL     1      49.557   7.293  13.026  0.00  0.00    +0.000 C 
ATOM     11  O   UNL     1      50.157   7.466  14.078  0.00  0.00    +0.000 OA
ATOM     12  H   UNL     1      51.217   7.430  11.865  0.00  0.00    +0.000 HD
ATOM     13  H   UNL     1      49.754   7.352  10.944  0.00  0.00    +0.000 HD
ENDBRANCH   3  10
ENDBRANCH   1   6
BRANCH   1  14
ATOM     14  C   UNL     1      43.398   6.269  11.270  0.00  0.00    +0.000 C 
BRANCH  14  15
ATOM     15  C   UNL     1      43.625   4.823  10.913  0.00  0.00    +0.000 A 
ATOM     16  C   UNL     1      43.117   3.802  11.718  0.00  0.00    +0.000 A 
ATOM     17  C   UNL     1      43.433   2.494  11.407  0.00  0.00    +0.000 A 
ATOM     18  N   UNL     1      44.219   2.139  10.367  0.00  0.00    +0.000 NA
ATOM     19  C   UNL     1      44.723   3.130   9.579  0.00  0.00    +0.000 A 
ATOM     20  C   UNL     1      44.434   4.473   9.829  0.00  0.00    +0.000 A 
BRANCH  19  21
ATOM     21  C   UNL     1      45.622   2.716   8.476  0.00  0.00    +0.000 A 
ATOM     22  C   UNL     1      45.976   3.584   7.440  0.00  0.00    +0.000 A 
ATOM     23  C   UNL     1      46.803   3.131   6.414  0.00  0.00    +0.000 A 
ATOM     24  C   UNL     1      47.263   1.823   6.441  0.00  0.00    +0.000 A 
ATOM     25  C   UNL     1      46.877   1.018   7.498  0.00  0.00    +0.000 A 
ATOM     26  N   UNL     1      46.076   1.430   8.505  0.00  0.00    +0.000 NA
ENDBRANCH  19  21
ENDBRANCH  14  15
ENDBRANCH   1  14
TORSDOF 5
ENDMDL
MODEL 5
REMARK VINA RESULT:    -7.957      2.576      3.355
REMARK INTER + INTRA:         -11.025
REMARK INTER:                 -10.206
REMARK INTRA:                  -0.819
REMARK UNBOUND:                -0.742
REMARK  Name = 
REMARK  5 active torsions:
REMARK  status: ('A' for Active; 'I' for Inactive)
REMARK    1  A    between atoms: C_2  and  C_4
REMARK    2  A    between atoms: C_7  and  N_8
REMARK    3  A    between atoms: N_8  and  C_9
REMARK    4  A    between atoms: C_9  and  C_10
REMARK    5  A    between atoms: C_14  and  C_15
REMARK                            x       y       z     vdW  Elec       q    Type
REMARK                         _______ _______ _______ _____ _____    ______ ____
ROOT
ATOM      1  N   UNL     1      43.854   3.339  10.402  0.00  0.00    +0.000 N 
ATOM      2  H   UNL     1      43.053   2.726  10.281  0.00  0.00    +0.000 HD
ENDROOT
BRANCH   1   6
ATOM      3  C   UNL     1      46.647   2.638   7.326  0.00  0.00    +0.000 A 
ATOM      4  C   UNL     1      46.231   3.943   7.593  0.00  0.00    +0.000 A 
ATOM      5  C   UNL     1      45.344   4.196   8.644  0.00  0.00    +0.000 A 
ATOM      6  C   UNL     1      44.855   3.165   9.455  0.00  0.00    +0.000 A 
ATOM      7  C   UNL     1      45.280   1.859   9.169  0.00  0.00    +0.000 A 
ATOM      8  C   UNL     1      46.166   1.593   8.117  0.00  0.00    +0.000 A 
BRANCH   3  10
ATOM      9  N   UNL     1      47.415   3.098   5.064  0.00  0.00    +0.000 N 
ATOM     10  C   UNL     1      47.543   2.326   6.186  0.00  0.00    +0.000 C 
ATOM     11  O   UNL     1      48.380   1.437   6.247  0.00  0.00    +0.000 OA
ATOM     12  H   UNL     1      48.089   2.938   4.328  0.00  0.00    +0.000 HD
ATOM     13  H   UNL     1      46.919   3.979   5.065  0.00  0.00    +0.000 HD
ENDBRANCH   3  10
ENDBRANCH   1   6
BRANCH   1  14
ATOM     14  C   UNL     1      44.147   3.657  11.790  0.00  0.00    +0.000 C 
BRANCH  14  15
ATOM     15  C   UNL     1      44.584   5.094  11.904  0.00  0.00    +0.000 A 
ATOM     16  C   UNL     1      43.752   6.129  11.472  0.00  0.00    +0.000 A 
ATOM     17  C   UNL     1      44.234   7.423  11.504  0.00  0.00    +0.000 A 
ATOM     18  N   UNL     1      45.476   7.752  11.923  0.00  0.00    +0.000 NA
ATOM     19  C   UNL     1      46.295   6.747  12.341  0.00  0.00    +0.000 A 
ATOM     20  C   UNL     1      45.869   5.417  12.348  0.00  0.00    +0.000 A 
BRANCH  19  21
ATOM     21  C   UNL     1      47.669   7.129  12.748  0.00  0.00    +0.000 A 
ATOM     22  C   UNL     1      48.628   7.551  11.825  0.00  0.00    +0.000 A 
ATOM     23  C   UNL     1      49.912   7.870  12.261  0.00  0.00    +0.000 A 
ATOM     24  C   UNL     1      50.214   7.765  13.611  0.00  0.00    +0.000 A 
ATOM     25  C   UNL     1      49.217   7.345  14.472  0.00  0.00    +0.000 A 
ATOM     26  N   UNL     1      47.964   7.028  14.076  0.00  0.00    +0.000 NA
ENDBRANCH  19  21
ENDBRANCH  14  15
ENDBRANCH   1  14
TORSDOF 5
ENDMDL
MODEL 6
REMARK VINA RESULT:    -7.587      3.554      7.155
REMARK INTER + INTRA:         -10.547
REMARK INTER:                  -9.705
REMARK INTRA:                  -0.842
REMARK UNBOUND:                -0.742
REMARK  Name = 
REMARK  5 active torsions:
REMARK  status: ('A' for Active; 'I' for Inactive)
REMARK    1  A    between atoms: C_2  and  C_4
REMARK    2  A    between atoms: C_7  and  N_8
REMARK    3  A    between atoms: N_8  and  C_9
REMARK    4  A    between atoms: C_9  and  C_10
REMARK    5  A    between atoms: C_14  and  C_15
REMARK                            x       y       z     vdW  Elec       q    Type
REMARK                         _______ _______ _______ _____ _____    ______ ____
ROOT
ATOM      1  N   UNL     1      45.341   6.387  13.047  0.00  0.00    +0.000 N 
ATOM      2  H   UNL     1      44.971   6.646  13.956  0.00  0.00    +0.000 HD
ENDROOT
BRANCH   1   6
ATOM      3  C   UNL     1      49.295   7.766  12.578  0.00  0.00    +0.000 A 
ATOM      4  C   UNL     1      49.017   6.788  13.534  0.00  0.00    +0.000 A 
ATOM      5  C   UNL     1      47.719   6.285  13.666  0.00  0.00    +0.000 A 
ATOM      6  C   UNL     1      46.672   6.734  12.852  0.00  0.00    +0.000 A 
ATOM      7  C   UNL     1      46.970   7.720  11.900  0.00  0.00    +0.000 A 
ATOM      8  C   UNL     1      48.265   8.235  11.761  0.00  0.00    +0.000 A 
BRANCH   3  10
ATOM      9  N   UNL     1      51.572   7.660  11.727  0.00  0.00    +0.000 N 
ATOM     10  C   UNL     1      50.647   8.363  12.449  0.00  0.00    +0.000 C 
ATOM     11  O   UNL     1      50.923   9.448  12.941  0.00  0.00    +0.000 OA
ATOM     12  H   UNL     1      52.460   8.116  11.568  0.00  0.00    +0.000 HD
ATOM     13  H   UNL     1      51.316   6.900  11.113  0.00  0.00    +0.000 HD
ENDBRANCH   3  10
ENDBRANCH   1   6
BRANCH   1  14
ATOM     14  C   UNL     1      44.361   6.439  11.975  0.00  0.00    +0.000 C 
BRANCH  14  15
ATOM     15  C   UNL     1      44.179   5.067  11.380  0.00  0.00    +0.000 A 
ATOM     16  C   UNL     1      43.343   4.131  11.992  0.00  0.00    +0.000 A 
ATOM     17  C   UNL     1      43.283   2.855  11.468  0.00  0.00    +0.000 A 
ATOM     18  N   UNL     1      43.998   2.449  10.395  0.00  0.00    +0.000 NA
ATOM     19  C   UNL     1      44.819   3.356   9.796  0.00  0.00    +0.000 A 
ATOM     20  C   UNL     1      44.919   4.668  10.265  0.00  0.00    +0.000 A 
BRANCH  19  21
ATOM     21  C   UNL     1      45.629   2.872   8.652  0.00  0.00    +0.000 A 
ATOM     22  C   UNL     1      46.005   3.710   7.600  0.00  0.00    +0.000 A 
ATOM     23  C   UNL     1      46.743   3.193   6.537  0.00  0.00    +0.000 A 
ATOM     24  C   UNL     1      47.093   1.851   6.544  0.00  0.00    +0.000 A 
ATOM     25  C   UNL     1      46.690   1.078   7.618  0.00  0.00    +0.000 A 
ATOM     26  N   UNL     1      45.974   1.552   8.661  0.00  0.00    +0.000 NA
ENDBRANCH  19  21
ENDBRANCH  14  15
ENDBRANCH   1  14
TORSDOF 5
ENDMDL
MODEL 7
REMARK VINA RESULT:    -6.981      3.481      8.416
REMARK INTER + INTRA:          -9.763
REMARK INTER:                  -9.275
REMARK INTRA:                  -0.489
REMARK UNBOUND:                -0.742
REMARK  Name = 
REMARK  5 active torsions:
REMARK  status: ('A' for Active; 'I' for Inactive)
REMARK    1  A    between atoms: C_2  and  C_4
REMARK    2  A    between atoms: C_7  and  N_8
REMARK    3  A    between atoms: N_8  and  C_9
REMARK    4  A    between atoms: C_9  and  C_10
REMARK    5  A    between atoms: C_14  and  C_15
REMARK                            x       y       z     vdW  Elec       q    Type
REMARK                         _______ _______ _______ _____ _____    ______ ____
ROOT
ATOM      1  N   UNL     1      46.683   3.929  14.281  0.00  0.00    +0.000 N 
ATOM      2  H   UNL     1      46.456   2.945  14.171  0.00  0.00    +0.000 HD
ENDROOT
BRANCH   1   6
ATOM      3  C   UNL     1      48.854   4.632  17.823  0.00  0.00    +0.000 A 
ATOM      4  C   UNL     1      48.740   5.648  16.874  0.00  0.00    +0.000 A 
ATOM      5  C   UNL     1      47.981   5.446  15.717  0.00  0.00    +0.000 A 
ATOM      6  C   UNL     1      47.314   4.238  15.479  0.00  0.00    +0.000 A 
ATOM      7  C   UNL     1      47.444   3.226  16.443  0.00  0.00    +0.000 A 
ATOM      8  C   UNL     1      48.205   3.416  17.603  0.00  0.00    +0.000 A 
BRANCH   3  10
ATOM      9  N   UNL     1      50.837   4.039  19.104  0.00  0.00    +0.000 N 
ATOM     10  C   UNL     1      49.697   4.791  19.034  0.00  0.00    +0.000 C 
ATOM     11  O   UNL     1      49.406   5.579  19.924  0.00  0.00    +0.000 OA
ATOM     12  H   UNL     1      51.448   4.220  19.887  0.00  0.00    +0.000 HD
ATOM     13  H   UNL     1      51.229   3.573  18.297  0.00  0.00    +0.000 HD
ENDBRANCH   3  10
ENDBRANCH   1   6
BRANCH   1  14
ATOM     14  C   UNL     1      45.729   4.828  13.653  0.00  0.00    +0.000 C 
BRANCH  14  15
ATOM     15  C   UNL     1      45.009   4.112  12.539  0.00  0.00    +0.000 A 
ATOM     16  C   UNL     1      43.756   3.536  12.755  0.00  0.00    +0.000 A 
ATOM     17  C   UNL     1      43.179   2.805  11.735  0.00  0.00    +0.000 A 
ATOM     18  N   UNL     1      43.762   2.604  10.533  0.00  0.00    +0.000 NA
ATOM     19  C   UNL     1      44.987   3.159  10.316  0.00  0.00    +0.000 A 
ATOM     20  C   UNL     1      45.623   3.920  11.299  0.00  0.00    +0.000 A 
BRANCH  19  21
ATOM     21  C   UNL     1      45.626   2.882   9.008  0.00  0.00    +0.000 A 
ATOM     22  C   UNL     1      45.824   3.879   8.051  0.00  0.00    +0.000 A 
ATOM     23  C   UNL     1      46.405   3.554   6.827  0.00  0.00    +0.000 A 
ATOM     24  C   UNL     1      46.778   2.241   6.581  0.00  0.00    +0.000 A 
ATOM     25  C   UNL     1      46.557   1.303   7.573  0.00  0.00    +0.000 A 
ATOM     26  N   UNL     1      45.995   1.590   8.768  0.00  0.00    +0.000 NA
ENDBRANCH  19  21
ENDBRANCH  14  15
ENDBRANCH   1  14
TORSDOF 5
ENDMDL
MODEL 8
REMARK VINA RESULT:    -6.443      2.851      3.998
REMARK INTER + INTRA:          -9.068
REMARK INTER:                  -8.197
REMARK INTRA:                  -0.871
REMARK UNBOUND:                -0.742
REMARK  Name = 
REMARK  5 active torsions:
REMARK  status: ('A' for Active; 'I' for Inactive)
REMARK    1  A    between atoms: C_2  and  C_4
REMARK    2  A    between atoms: C_7  and  N_8
REMARK    3  A    between atoms: N_8  and  C_9
REMARK    4  A    between atoms: C_9  and  C_10
REMARK    5  A    between atoms: C_14  and  C_15
REMARK                            x       y       z     vdW  Elec       q    Type
REMARK                         _______ _______ _______ _____ _____    ______ ____
ROOT
ATOM      1  N   UNL     1      46.393   7.881  12.170  0.00  0.00    +0.000 N 
ATOM      2  H   UNL     1      45.975   8.497  12.861  0.00  0.00    +0.000 HD
ENDROOT
BRANCH   1   6
ATOM      3  C   UNL     1      44.436   4.246  11.327  0.00  0.00    +0.000 A 
ATOM      4  C   UNL     1      44.240   4.862  12.564  0.00  0.00    +0.000 A 
ATOM      5  C   UNL     1      44.843   6.093  12.838  0.00  0.00    +0.000 A 
ATOM      6  C   UNL     1      45.646   6.743  11.894  0.00  0.00    +0.000 A 
ATOM      7  C   UNL     1      45.835   6.108  10.657  0.00  0.00    +0.000 A 
ATOM      8  C   UNL     1      45.240   4.873  10.372  0.00  0.00    +0.000 A 
BRANCH   3  10
ATOM      9  N   UNL     1      44.429   2.206  10.001  0.00  0.00    +0.000 N 
ATOM     10  C   UNL     1      43.858   2.914  11.022  0.00  0.00    +0.000 C 
ATOM     11  O   UNL     1      42.929   2.451  11.668  0.00  0.00    +0.000 OA
ATOM     12  H   UNL     1      44.089   1.265   9.860  0.00  0.00    +0.000 HD
ATOM     13  H   UNL     1      45.333   2.442   9.616  0.00  0.00    +0.000 HD
ENDBRANCH   3  10
ENDBRANCH   1   6
BRANCH   1  14
ATOM     14  C   UNL     1      47.846   7.868  12.195  0.00  0.00    +0.000 C 
BRANCH  14  15
ATOM     15  C   UNL     1      48.333   7.761  13.616  0.00  0.00    +0.000 A 
ATOM     16  C   UNL     1      49.061   8.799  14.200  0.00  0.00    +0.000 A 
ATOM     17  C   UNL     1      49.571   8.617  15.471  0.00  0.00    +0.000 A 
ATOM     18  N   UNL     1      49.417   7.480  16.186  0.00  0.00    +0.000 NA
ATOM     19  C   UNL     1      48.713   6.461  15.620  0.00  0.00    +0.000 A 
ATOM     20  C   UNL     1      48.157   6.581  14.344  0.00  0.00    +0.000 A 
BRANCH  19  21
ATOM     21  C   UNL     1      48.601   5.208  16.405  0.00  0.00    +0.000 A 
ATOM     22  C   UNL     1      47.398   4.507  16.519  0.00  0.00    +0.000 A 
ATOM     23  C   UNL     1      47.346   3.350  17.294  0.00  0.00    +0.000 A 
ATOM     24  C   UNL     1      48.494   2.913  17.938  0.00  0.00    +0.000 A 
ATOM     25  C   UNL     1      49.652   3.653  17.781  0.00  0.00    +0.000 A 
ATOM     26  N   UNL     1      49.731   4.778  17.037  0.00  0.00    +0.000 NA
ENDBRANCH  19  21
ENDBRANCH  14  15
ENDBRANCH   1  14
TORSDOF 5
ENDMDL
MODEL 9
REMARK VINA RESULT:    -6.120      3.960      8.378
REMARK INTER + INTRA:          -8.650
REMARK INTER:                  -8.116
REMARK INTRA:                  -0.534
REMARK UNBOUND:                -0.742
REMARK  Name = 
REMARK  5 active torsions:
REMARK  status: ('A' for Active; 'I' for Inactive)
REMARK    1  A    between atoms: C_2  and  C_4
REMARK    2  A    between atoms: C_7  and  N_8
REMARK    3  A    between atoms: N_8  and  C_9
REMARK    4  A    between atoms: C_9  and  C_10
REMARK    5  A    between atoms: C_14  and  C_15
REMARK                            x       y       z     vdW  Elec       q    Type
REMARK                         _______ _______ _______ _____ _____    ______ ____
ROOT
ATOM      1  N   UNL     1      46.979   6.687  12.845  0.00  0.00    +0.000 N 
ATOM      2  H   UNL     1      47.006   5.672  12.833  0.00  0.00    +0.000 HD
ENDROOT
BRANCH   1   6
ATOM      3  C   UNL     1      49.052   8.547  16.006  0.00  0.00    +0.000 A 
ATOM      4  C   UNL     1      49.116   7.161  15.864  0.00  0.00    +0.000 A 
ATOM      5  C   UNL     1      48.475   6.535  14.790  0.00  0.00    +0.000 A 
ATOM      6  C   UNL     1      47.763   7.267  13.834  0.00  0.00    +0.000 A 
ATOM      7  C   UNL     1      47.705   8.660  13.995  0.00  0.00    +0.000 A 
ATOM      8  C   UNL     1      48.340   9.298  15.068  0.00  0.00    +0.000 A 
BRANCH   3  10
ATOM      9  N   UNL     1      49.041   9.123  18.371  0.00  0.00    +0.000 N 
ATOM     10  C   UNL     1      49.672   9.239  17.163  0.00  0.00    +0.000 C 
ATOM     11  O   UNL     1      50.718   9.865  17.056  0.00  0.00    +0.000 OA
ATOM     12  H   UNL     1      49.517   9.520  19.167  0.00  0.00    +0.000 HD
ATOM     13  H   UNL     1      48.329   8.427  18.545  0.00  0.00    +0.000 HD
ENDBRANCH   3  10
ENDBRANCH   1   6
BRANCH   1  14
ATOM     14  C   UNL     1      45.699   7.246  12.441  0.00  0.00    +0.000 C 
BRANCH  14  15
ATOM     15  C   UNL     1      44.935   6.238  11.623  0.00  0.00    +0.000 A 
ATOM     16  C   UNL     1      43.609   5.928  11.931  0.00  0.00    +0.000 A 
ATOM     17  C   UNL     1      42.980   4.927  11.217  0.00  0.00    +0.000 A 
ATOM     18  N   UNL     1      43.578   4.215  10.237  0.00  0.00    +0.000 NA
ATOM     19  C   UNL     1      44.874   4.507   9.934  0.00  0.00    +0.000 A 
ATOM     20  C   UNL     1      45.567   5.516  10.607  0.00  0.00    +0.000 A 
BRANCH  19  21
ATOM     21  C   UNL     1      45.521   3.678   8.890  0.00  0.00    +0.000 A 
ATOM     22  C   UNL     1      45.601   2.287   8.987  0.00  0.00    +0.000 A 
ATOM     23  C   UNL     1      46.247   1.562   7.988  0.00  0.00    +0.000 A 
ATOM     24  C   UNL     1      46.799   2.237   6.910  0.00  0.00    +0.000 A 
ATOM     25  C   UNL     1      46.682   3.615   6.873  0.00  0.00    +0.000 A 
ATOM     26  N   UNL     1      46.062   4.343   7.828  0.00  0.00    +0.000 NA
ENDBRANCH  19  21
ENDBRANCH  14  15
ENDBRANCH   1  14
TORSDOF 5
ENDMDL
