MODEL 1
REMARK VINA RESULT:    -6.213      0.000      0.000
REMARK INTER + INTRA:          -8.474
REMARK INTER:                  -7.665
REMARK INTRA:                  -0.808
REMARK UNBOUND:                -0.808
REMARK  Name = 
REMARK  7 active torsions:
REMARK  status: ('A' for Active; 'I' for Inactive)
REMARK    1  A    between atoms: C_1  and  C_2
REMARK    2  A    between atoms: C_2  and  C_3
REMARK    3  A    between atoms: C_2  and  C_4
REMARK    4  A    between atoms: C_2  and  C_5
REMARK    5  A    between atoms: C_9  and  C_10
REMARK    6  A    between atoms: N_16  and  C_17
REMARK    7  A    between atoms: C_17  and  C_18
REMARK                            x       y       z     vdW  Elec       q    Type
REMARK                         _______ _______ _______ _____ _____    ______ ____
ROOT
ATOM      1  C   UNL     1      44.573   4.053  11.143  0.00  0.00    +0.000 A 
ATOM      2  N   UNL     1      44.855   2.885  10.583  0.00  0.00    +0.000 NA
ATOM      3  C   UNL     1      45.534   3.144   9.428  0.00  0.00    +0.000 A 
ATOM      4  C   UNL     1      46.037   2.234   8.482  0.00  0.00    +0.000 A 
ATOM      5  C   UNL     1      46.702   2.730   7.356  0.00  0.00    +0.000 A 
ATOM      6  C   UNL     1      46.888   4.117   7.214  0.00  0.00    +0.000 A 
ATOM      7  C   UNL     1      46.396   5.035   8.157  0.00  0.00    +0.000 A 
ATOM      8  C   UNL     1      45.702   4.507   9.254  0.00  0.00    +0.000 A 
ATOM      9  N   UNL     1      45.025   5.079  10.322  0.00  0.00    +0.000 N 
ENDROOT
BRANCH   5  10
ATOM     10  C   UNL     1      47.219   1.849   6.269  0.00  0.00    +0.000 C 
ATOM     11  N   UNL     1      47.896   2.418   5.226  0.00  0.00    +0.000 N 
ATOM     12  O   UNL     1      47.061   0.633   6.301  0.00  0.00    +0.000 OA
ATOM     13  H   UNL     1      48.077   3.402   5.112  0.00  0.00    +0.000 HD
ATOM     14  H   UNL     1      48.248   1.789   4.516  0.00  0.00    +0.000 HD
ENDBRANCH   5  10
BRANCH   1  16
ATOM     15  C   UNL     1      43.336   2.741  12.878  0.00  0.00    +0.000 C 
ATOM     16  C   UNL     1      43.863   4.150  12.494  0.00  0.00    +0.000 C 
ATOM     17  C   UNL     1      42.643   5.078  12.443  0.00  0.00    +0.000 C 
ATOM     18  C   UNL     1      44.823   4.578  13.616  0.00  0.00    +0.000 C 
ENDBRANCH   1  16
BRANCH   9  19
ATOM     19  C   UNL     1      44.884   6.519  10.505  0.00  0.00    +0.000 C 
BRANCH  19  20
ATOM     20  C   UNL     1      45.839   7.133  11.495  0.00  0.00    +0.000 A 
ATOM     21  C   UNL     1      47.153   6.702  11.695  0.00  0.00    +0.000 A 
ATOM     22  C   UNL     1      47.928   7.270  12.704  0.00  0.00    +0.000 A 
ATOM     23  C   UNL     1      47.364   8.257  13.492  0.00  0.00    +0.000 A 
ATOM     24  N   UNL     1      46.104   8.710  13.329  0.00  0.00    +0.000 NA
ATOM     25  C   UNL     1      45.376   8.138  12.345  0.00  0.00    +0.000 A 
ENDBRANCH  19  20
ENDBRANCH   9  19
TORSDOF 4
ENDMDL
MODEL 2
REMARK VINA RESULT:    -5.914      3.343      5.517
REMARK INTER + INTRA:          -8.105
REMARK INTER:                  -7.390
REMARK INTRA:                  -0.715
REMARK UNBOUND:                -0.808
REMARK  Name = 
REMARK  7 active torsions:
REMARK  status: ('A' for Active; 'I' for Inactive)
REMARK    1  A    between atoms: C_1  and  C_2
REMARK    2  A    between atoms: C_2  and  C_3
REMARK    3  A    between atoms: C_2  and  C_4
REMARK    4  A    between atoms: C_2  and  C_5
REMARK    5  A    between atoms: C_9  and  C_10
REMARK    6  A    between atoms: N_16  and  C_17
REMARK    7  A    between atoms: C_17  and  C_18
REMARK                            x       y       z     vdW  Elec       q    Type
REMARK                         _______ _______ _______ _____ _____    ______ ____
ROOT
ATOM      1  C   UNL     1      48.192   6.730  14.457  0.00  0.00    +0.000 A 
ATOM      2  N   UNL     1      47.604   5.548  14.572  0.00  0.00    +0.000 NA
ATOM      3  C   UNL     1      46.845   5.363  13.453  0.00  0.00    +0.000 A 
ATOM      4  C   UNL     1      46.028   4.270  13.116  0.00  0.00    +0.000 A 
ATOM      5  C   UNL     1      45.328   4.297  11.905  0.00  0.00    +0.000 A 
ATOM      6  C   UNL     1      45.486   5.393  11.038  0.00  0.00    +0.000 A 
ATOM      7  C   UNL     1      46.306   6.487  11.360  0.00  0.00    +0.000 A 
ATOM      8  C   UNL     1      46.963   6.445  12.597  0.00  0.00    +0.000 A 
ATOM      9  N   UNL     1      47.773   7.340  13.281  0.00  0.00    +0.000 N 
ENDROOT
BRANCH   5  10
ATOM     10  C   UNL     1      44.393   3.214  11.487  0.00  0.00    +0.000 C 
ATOM     11  N   UNL     1      43.838   2.415  12.449  0.00  0.00    +0.000 N 
ATOM     12  O   UNL     1      44.105   3.037  10.309  0.00  0.00    +0.000 OA
ATOM     13  H   UNL     1      44.012   2.482  13.438  0.00  0.00    +0.000 HD
ATOM     14  H   UNL     1      43.194   1.702  12.131  0.00  0.00    +0.000 HD
ENDBRANCH   5  10
BRANCH   1  16
ATOM     15  C   UNL     1      49.239   6.224  16.673  0.00  0.00    +0.000 C 
ATOM     16  C   UNL     1      49.173   7.250  15.509  0.00  0.00    +0.000 C 
ATOM     17  C   UNL     1      48.719   8.582  16.119  0.00  0.00    +0.000 C 
ATOM     18  C   UNL     1      50.600   7.368  14.950  0.00  0.00    +0.000 C 
ENDBRANCH   1  16
BRANCH   9  19
ATOM     19  C   UNL     1      48.113   8.665  12.773  0.00  0.00    +0.000 C 
BRANCH  19  20
ATOM     20  C   UNL     1      49.387   8.734  11.972  0.00  0.00    +0.000 A 
ATOM     21  C   UNL     1      50.040   7.623  11.432  0.00  0.00    +0.000 A 
ATOM     22  C   UNL     1      51.267   7.779  10.790  0.00  0.00    +0.000 A 
ATOM     23  C   UNL     1      51.812   9.049  10.708  0.00  0.00    +0.000 A 
ATOM     24  N   UNL     1      51.212  10.149  11.206  0.00  0.00    +0.000 NA
ATOM     25  C   UNL     1      50.025   9.966  11.827  0.00  0.00    +0.000 A 
ENDBRANCH  19  20
ENDBRANCH   9  19
TORSDOF 4
ENDMDL
MODEL 3
REMARK VINA RESULT:    -5.837      3.766      6.033
REMARK INTER + INTRA:          -8.010
REMARK INTER:                  -7.382
REMARK INTRA:                  -0.628
REMARK UNBOUND:                -0.808
REMARK  Name = 
REMARK  7 active torsions:
REMARK  status: ('A' for Active; 'I' for Inactive)
REMARK    1  A    between atoms: C_1  and  C_2
REMARK    2  A    between atoms: C_2  and  C_3
REMARK    3  A    between atoms: C_2  and  C_4
REMARK    4  A    between atoms: C_2  and  C_5
REMARK    5  A    between atoms: C_9  and  C_10
REMARK    6  A    between atoms: N_16  and  C_17
REMARK    7  A    between atoms: C_17  and  C_18
REMARK                            x       y       z     vdW  Elec       q    Type
REMARK                         _______ _______ _______ _____ _____    ______ ____
ROOT
ATOM      1  C   UNL     1      45.106   4.695  12.543  0.00  0.00    +0.000 A 
ATOM      2  N   UNL     1      45.356   4.039  13.666  0.00  0.00    +0.000 NA
ATOM      3  C   UNL     1      46.417   4.652  14.266  0.00  0.00    +0.000 A 
ATOM      4  C   UNL     1      47.059   4.319  15.471  0.00  0.00    +0.000 A 
ATOM      5  C   UNL     1      48.144   5.093  15.895  0.00  0.00    +0.000 A 
ATOM      6  C   UNL     1      48.543   6.206  15.131  0.00  0.00    +0.000 A 
ATOM      7  C   UNL     1      47.904   6.553  13.930  0.00  0.00    +0.000 A 
ATOM      8  C   UNL     1      46.845   5.734  13.515  0.00  0.00    +0.000 A 
ATOM      9  N   UNL     1      46.041   5.710  12.384  0.00  0.00    +0.000 N 
ENDROOT
BRANCH   5  10
ATOM     10  C   UNL     1      48.926   4.785  17.126  0.00  0.00    +0.000 C 
ATOM     11  N   UNL     1      48.275   4.755  18.329  0.00  0.00    +0.000 N 
ATOM     12  O   UNL     1      50.128   4.546  17.079  0.00  0.00    +0.000 OA
ATOM     13  H   UNL     1      47.295   4.936  18.469  0.00  0.00    +0.000 HD
ATOM     14  H   UNL     1      48.833   4.525  19.142  0.00  0.00    +0.000 HD
ENDBRANCH   5  10
BRANCH   1  16
ATOM     15  C   UNL     1      43.472   2.882  11.989  0.00  0.00    +0.000 C 
ATOM     16  C   UNL     1      43.935   4.320  11.632  0.00  0.00    +0.000 C 
ATOM     17  C   UNL     1      44.335   4.301  10.151  0.00  0.00    +0.000 C 
ATOM     18  C   UNL     1      42.722   5.238  11.854  0.00  0.00    +0.000 C 
ENDBRANCH   1  16
BRANCH   9  19
ATOM     19  C   UNL     1      46.190   6.644  11.273  0.00  0.00    +0.000 C 
BRANCH  19  20
ATOM     20  C   UNL     1      45.515   7.977  11.466  0.00  0.00    +0.000 A 
ATOM     21  C   UNL     1      44.220   8.275  11.032  0.00  0.00    +0.000 A 
ATOM     22  C   UNL     1      43.719   9.568  11.168  0.00  0.00    +0.000 A 
ATOM     23  C   UNL     1      44.532  10.534  11.735  0.00  0.00    +0.000 A 
ATOM     24  N   UNL     1      45.782  10.289  12.176  0.00  0.00    +0.000 NA
ATOM     25  C   UNL     1      46.243   9.027  12.027  0.00  0.00    +0.000 A 
ENDBRANCH  19  20
ENDBRANCH   9  19
TORSDOF 4
ENDMDL
MODEL 4
REMARK VINA RESULT:    -5.809      4.012      6.051
REMARK INTER + INTRA:          -7.976
REMARK INTER:                  -7.272
REMARK INTRA:                  -0.704
REMARK UNBOUND:                -0.808
REMARK  Name = 
REMARK  7 active torsions:
REMARK  status: ('A' for Active; 'I' for Inactive)
REMARK    1  A    between atoms: C_1  and  C_2
REMARK    2  A    between atoms: C_2  and  C_3
REMARK    3  A    between atoms: C_2  and  C_4
REMARK    4  A    between atoms: C_2  and  C_5
REMARK    5  A    between atoms: C_9  and  C_10
REMARK    6  A    between atoms: N_16  and  C_17
REMARK    7  A    between atoms: C_17  and  C_18
REMARK                            x       y       z     vdW  Elec       q    Type
REMARK                         _______ _______ _______ _____ _____    ______ ____
ROOT
ATOM      1  C   UNL     1      47.745   4.881  15.988  0.00  0.00    +0.000 A 
ATOM      2  N   UNL     1      46.769   4.401  15.233  0.00  0.00    +0.000 NA
ATOM      3  C   UNL     1      46.801   5.080  14.049  0.00  0.00    +0.000 A 
ATOM      4  C   UNL     1      45.960   4.939  12.932  0.00  0.00    +0.000 A 
ATOM      5  C   UNL     1      46.176   5.755  11.817  0.00  0.00    +0.000 A 
ATOM      6  C   UNL     1      47.248   6.667  11.821  0.00  0.00    +0.000 A 
ATOM      7  C   UNL     1      48.099   6.811  12.929  0.00  0.00    +0.000 A 
ATOM      8  C   UNL     1      47.832   6.004  14.044  0.00  0.00    +0.000 A 
ATOM      9  N   UNL     1      48.385   5.913  15.313  0.00  0.00    +0.000 N 
ENDROOT
BRANCH   5  10
ATOM     10  C   UNL     1      45.303   5.721  10.609  0.00  0.00    +0.000 C 
ATOM     11  N   UNL     1      43.972   6.002  10.750  0.00  0.00    +0.000 N 
ATOM     12  O   UNL     1      45.756   5.462   9.499  0.00  0.00    +0.000 OA
ATOM     13  H   UNL     1      43.509   6.226  11.616  0.00  0.00    +0.000 HD
ATOM     14  H   UNL     1      43.412   5.987   9.907  0.00  0.00    +0.000 HD
ENDBRANCH   5  10
BRANCH   1  16
ATOM     15  C   UNL     1      47.387   2.911  17.489  0.00  0.00    +0.000 C 
ATOM     16  C   UNL     1      48.049   4.311  17.375  0.00  0.00    +0.000 C 
ATOM     17  C   UNL     1      47.460   5.172  18.499  0.00  0.00    +0.000 C 
ATOM     18  C   UNL     1      49.557   4.099  17.588  0.00  0.00    +0.000 C 
ENDBRANCH   1  16
BRANCH   9  19
ATOM     19  C   UNL     1      49.474   6.766  15.777  0.00  0.00    +0.000 C 
BRANCH  19  20
ATOM     20  C   UNL     1      49.065   7.867  16.721  0.00  0.00    +0.000 A 
ATOM     21  C   UNL     1      48.223   8.928  16.377  0.00  0.00    +0.000 A 
ATOM     22  C   UNL     1      47.983   9.952  17.290  0.00  0.00    +0.000 A 
ATOM     23  C   UNL     1      48.596   9.888  18.529  0.00  0.00    +0.000 A 
ATOM     24  N   UNL     1      49.407   8.879  18.907  0.00  0.00    +0.000 NA
ATOM     25  C   UNL     1      49.625   7.903  17.998  0.00  0.00    +0.000 A 
ENDBRANCH  19  20
ENDBRANCH   9  19
TORSDOF 4
ENDMDL
MODEL 5
REMARK VINA RESULT:    -5.628      4.223      6.625
REMARK INTER + INTRA:          -7.752
REMARK INTER:                  -7.109
REMARK INTRA:                  -0.643
REMARK UNBOUND:                -0.808
REMARK  Name = 
REMARK  7 active torsions:
REMARK  status: ('A' for Active; 'I' for Inactive)
REMARK    1  A    between atoms: C_1  and  C_2
REMARK    2  A    between atoms: C_2  and  C_3
REMARK    3  A    between atoms: C_2  and  C_4
REMARK    4  A    between atoms: C_2  and  C_5
REMARK    5  A    between atoms: C_9  and  C_10
REMARK    6  A    between atoms: N_16  and  C_17
REMARK    7  A    between atoms: C_17  and  C_18
REMARK                            x       y       z     vdW  Elec       q    Type
REMARK                         _______ _______ _______ _____ _____    ______ ____
ROOT
ATOM      1  C   UNL     1      46.170   5.195  13.069  0.00  0.00    +0.000 A 
ATOM      2  N   UNL     1      46.331   4.069  13.747  0.00  0.00    +0.000 NA
ATOM      3  C   UNL     1      47.145   4.346  14.806  0.00  0.00    +0.000 A 
ATOM      4  C   UNL     1      47.614   3.477  15.806  0.00  0.00    +0.000 A 
ATOM      5  C   UNL     1      48.454   3.984  16.803  0.00  0.00    +0.000 A 
ATOM      6  C   UNL     1      48.779   5.353  16.807  0.00  0.00    +0.000 A 
ATOM      7  C   UNL     1      48.310   6.233  15.817  0.00  0.00    +0.000 A 
ATOM      8  C   UNL     1      47.501   5.684  14.812  0.00  0.00    +0.000 A 
ATOM      9  N   UNL     1      46.926   6.201  13.660  0.00  0.00    +0.000 N 
ENDROOT
BRANCH   5  10
ATOM     10  C   UNL     1      49.049   3.130  17.871  0.00  0.00    +0.000 C 
ATOM     11  N   UNL     1      48.479   3.138  19.114  0.00  0.00    +0.000 N 
ATOM     12  O   UNL     1      50.022   2.417  17.652  0.00  0.00    +0.000 OA
ATOM     13  H   UNL     1      47.682   3.687  19.389  0.00  0.00    +0.000 HD
ATOM     14  H   UNL     1      48.898   2.534  19.810  0.00  0.00    +0.000 HD
ENDBRANCH   5  10
BRANCH   1  16
ATOM     15  C   UNL     1      44.867   3.834  11.422  0.00  0.00    +0.000 C 
ATOM     16  C   UNL     1      45.263   5.277  11.840  0.00  0.00    +0.000 C 
ATOM     17  C   UNL     1      45.972   5.907  10.635  0.00  0.00    +0.000 C 
ATOM     18  C   UNL     1      43.951   6.018  12.147  0.00  0.00    +0.000 C 
ENDBRANCH   1  16
BRANCH   9  19
ATOM     19  C   UNL     1      47.100   7.582  13.225  0.00  0.00    +0.000 C 
BRANCH  19  20
ATOM     20  C   UNL     1      48.488   7.934  12.755  0.00  0.00    +0.000 A 
ATOM     21  C   UNL     1      49.106   7.372  11.635  0.00  0.00    +0.000 A 
ATOM     22  C   UNL     1      50.430   7.688  11.337  0.00  0.00    +0.000 A 
ATOM     23  C   UNL     1      51.104   8.560  12.174  0.00  0.00    +0.000 A 
ATOM     24  N   UNL     1      50.544   9.132  13.258  0.00  0.00    +0.000 NA
ATOM     25  C   UNL     1      49.260   8.804  13.524  0.00  0.00    +0.000 A 
ENDBRANCH  19  20
ENDBRANCH   9  19
TORSDOF 4
ENDMDL
MODEL 6
REMARK VINA RESULT:    -5.606      4.303      6.130
REMARK INTER + INTRA:          -7.725
REMARK INTER:                  -7.088
REMARK INTRA:                  -0.637
REMARK UNBOUND:                -0.808
REMARK  Name = 
REMARK  7 active torsions:
REMARK  status: ('A' for Active; 'I' for Inactive)
REMARK    1  A    between atoms: C_1  and  C_2
REMARK    2  A    between atoms: C_2  and  C_3
REMARK    3  A    between atoms: C_2  and  C_4
REMARK    4  A    between atoms: C_2  and  C_5
REMARK    5  A    between atoms: C_9  and  C_10
REMARK    6  A    between atoms: N_16  and  C_17
REMARK    7  A    between atoms: C_17  and  C_18
REMARK                            x       y       z     vdW  Elec       q    Type
REMARK                         _______ _______ _______ _____ _____    ______ ____
ROOT
ATOM      1  C   UNL     1      47.956   4.627  16.195  0.00  0.00    +0.000 A 
ATOM      2  N   UNL     1      47.203   3.893  15.389  0.00  0.00    +0.000 NA
ATOM      3  C   UNL     1      46.958   4.639  14.272  0.00  0.00    +0.000 A 
ATOM      4  C   UNL     1      46.199   4.300  13.138  0.00  0.00    +0.000 A 
ATOM      5  C   UNL     1      46.076   5.234  12.104  0.00  0.00    +0.000 A 
ATOM      6  C   UNL     1      46.741   6.470  12.203  0.00  0.00    +0.000 A 
ATOM      7  C   UNL     1      47.508   6.816  13.328  0.00  0.00    +0.000 A 
ATOM      8  C   UNL     1      47.580   5.872  14.362  0.00  0.00    +0.000 A 
ATOM      9  N   UNL     1      48.158   5.878  15.623  0.00  0.00    +0.000 N 
ENDROOT
BRANCH   5  10
ATOM     10  C   UNL     1      45.247   4.991  10.889  0.00  0.00    +0.000 C 
ATOM     11  N   UNL     1      45.554   5.661   9.738  0.00  0.00    +0.000 N 
ATOM     12  O   UNL     1      44.311   4.198  10.901  0.00  0.00    +0.000 OA
ATOM     13  H   UNL     1      46.300   6.328   9.629  0.00  0.00    +0.000 HD
ATOM     14  H   UNL     1      44.982   5.459   8.928  0.00  0.00    +0.000 HD
ENDBRANCH   5  10
BRANCH   1  16
ATOM     15  C   UNL     1      47.653   2.829  17.908  0.00  0.00    +0.000 C 
ATOM     16  C   UNL     1      48.479   4.087  17.526  0.00  0.00    +0.000 C 
ATOM     17  C   UNL     1      48.305   5.094  18.670  0.00  0.00    +0.000 C 
ATOM     18  C   UNL     1      49.944   3.633  17.422  0.00  0.00    +0.000 C 
ENDBRANCH   1  16
BRANCH   9  19
ATOM     19  C   UNL     1      48.872   7.024  16.174  0.00  0.00    +0.000 C 
BRANCH  19  20
ATOM     20  C   UNL     1      50.329   7.109  15.800  0.00  0.00    +0.000 A 
ATOM     21  C   UNL     1      51.364   6.508  16.521  0.00  0.00    +0.000 A 
ATOM     22  C   UNL     1      52.690   6.727  16.152  0.00  0.00    +0.000 A 
ATOM     23  C   UNL     1      52.946   7.547  15.067  0.00  0.00    +0.000 A 
ATOM     24  N   UNL     1      51.979   8.139  14.338  0.00  0.00    +0.000 NA
ATOM     25  C   UNL     1      50.703   7.912  14.722  0.00  0.00    +0.000 A 
ENDBRANCH  19  20
ENDBRANCH   9  19
TORSDOF 4
ENDMDL
MODEL 7
REMARK VINA RESULT:    -5.273      4.148      6.537
REMARK INTER + INTRA:          -7.315
REMARK INTER:                  -6.566
REMARK INTRA:                  -0.749
REMARK UNBOUND:                -0.808
REMARK  Name = 
REMARK  7 active torsions:
REMARK  status: ('A' for Active; 'I' for Inactive)
REMARK    1  A    between atoms: C_1  and  C_2
REMARK    2  A    between atoms: C_2  and  C_3
REMARK    3  A    between atoms: C_2  and  C_4
REMARK    4  A    between atoms: C_2  and  C_5
REMARK    5  A    between atoms: C_9  and  C_10
REMARK    6  A    between atoms: N_16  and  C_17
REMARK    7  A    between atoms: C_17  and  C_18
REMARK                            x       y       z     vdW  Elec       q    Type
REMARK                         _______ _______ _______ _____ _____    ______ ____
ROOT
ATOM      1  C   UNL     1      47.689   8.675  12.540  0.00  0.00    +0.000 A 
ATOM      2  N   UNL     1      46.470   8.413  12.094  0.00  0.00    +0.000 NA
ATOM      3  C   UNL     1      46.133   7.169  12.542  0.00  0.00    +0.000 A 
ATOM      4  C   UNL     1      44.947   6.447  12.322  0.00  0.00    +0.000 A 
ATOM      5  C   UNL     1      44.821   5.170  12.880  0.00  0.00    +0.000 A 
ATOM      6  C   UNL     1      45.860   4.655  13.676  0.00  0.00    +0.000 A 
ATOM      7  C   UNL     1      47.046   5.370  13.908  0.00  0.00    +0.000 A 
ATOM      8  C   UNL     1      47.156   6.630  13.304  0.00  0.00    +0.000 A 
ATOM      9  N   UNL     1      48.170   7.575  13.239  0.00  0.00    +0.000 N 
ENDROOT
BRANCH   5  10
ATOM     10  C   UNL     1      43.628   4.304  12.656  0.00  0.00    +0.000 C 
ATOM     11  N   UNL     1      42.617   4.769  11.861  0.00  0.00    +0.000 N 
ATOM     12  O   UNL     1      43.544   3.188  13.156  0.00  0.00    +0.000 OA
ATOM     13  H   UNL     1      42.594   5.668  11.407  0.00  0.00    +0.000 HD
ATOM     14  H   UNL     1      41.830   4.149  11.716  0.00  0.00    +0.000 HD
ENDBRANCH   5  10
BRANCH   1  16
ATOM     15  C   UNL     1      47.402  10.919  11.470  0.00  0.00    +0.000 C 
ATOM     16  C   UNL     1      48.374  10.018  12.280  0.00  0.00    +0.000 C 
ATOM     17  C   UNL     1      49.645   9.868  11.434  0.00  0.00    +0.000 C 
ATOM     18  C   UNL     1      48.677  10.768  13.587  0.00  0.00    +0.000 C 
ENDBRANCH   1  16
BRANCH   9  19
ATOM     19  C   UNL     1      49.479   7.390  13.855  0.00  0.00    +0.000 C 
BRANCH  19  20
ATOM     20  C   UNL     1      49.491   7.445  15.360  0.00  0.00    +0.000 A 
ATOM     21  C   UNL     1      48.703   8.311  16.123  0.00  0.00    +0.000 A 
ATOM     22  C   UNL     1      48.857   8.357  17.508  0.00  0.00    +0.000 A 
ATOM     23  C   UNL     1      49.802   7.533  18.094  0.00  0.00    +0.000 A 
ATOM     24  N   UNL     1      50.576   6.675  17.398  0.00  0.00    +0.000 NA
ATOM     25  C   UNL     1      50.407   6.656  16.057  0.00  0.00    +0.000 A 
ENDBRANCH  19  20
ENDBRANCH   9  19
TORSDOF 4
ENDMDL
MODEL 8
REMARK VINA RESULT:    -5.271      4.117      6.603
REMARK INTER + INTRA:          -7.312
REMARK INTER:                  -6.577
REMARK INTRA:                  -0.736
REMARK UNBOUND:                -0.808
REMARK  Name = 
REMARK  7 active torsions:
REMARK  status: ('A' for Active; 'I' for Inactive)
REMARK    1  A    between atoms: C_1  and  C_2
REMARK    2  A    between atoms: C_2  and  C_3
REMARK    3  A    between atoms: C_2  and  C_4
REMARK    4  A    between atoms: C_2  and  C_5
REMARK    5  A    between atoms: C_9  and  C_10
REMARK    6  A    between atoms: N_16  and  C_17
REMARK    7  A    between atoms: C_17  and  C_18
REMARK                            x       y       z     vdW  Elec       q    Type
REMARK                         _______ _______ _______ _____ _____    ______ ____
ROOT
ATOM      1  C   UNL     1      47.386   9.265  12.424  0.00  0.00    +0.000 A 
ATOM      2  N   UNL     1      46.207   8.768  12.081  0.00  0.00    +0.000 NA
ATOM      3  C   UNL     1      46.150   7.492  12.561  0.00  0.00    +0.000 A 
ATOM      4  C   UNL     1      45.110   6.554  12.443  0.00  0.00    +0.000 A 
ATOM      5  C   UNL     1      45.274   5.288  13.014  0.00  0.00    +0.000 A 
ATOM      6  C   UNL     1      46.453   4.994  13.724  0.00  0.00    +0.000 A 
ATOM      7  C   UNL     1      47.496   5.926  13.855  0.00  0.00    +0.000 A 
ATOM      8  C   UNL     1      47.314   7.172  13.238  0.00  0.00    +0.000 A 
ATOM      9  N   UNL     1      48.122   8.290  13.087  0.00  0.00    +0.000 N 
ENDROOT
BRANCH   5  10
ATOM     10  C   UNL     1      44.254   4.207  12.892  0.00  0.00    +0.000 C 
ATOM     11  N   UNL     1      44.669   2.942  12.581  0.00  0.00    +0.000 N 
ATOM     12  O   UNL     1      43.062   4.428  13.078  0.00  0.00    +0.000 OA
ATOM     13  H   UNL     1      45.622   2.662  12.412  0.00  0.00    +0.000 HD
ATOM     14  H   UNL     1      43.952   2.229  12.524  0.00  0.00    +0.000 HD
ENDBRANCH   5  10
BRANCH   1  16
ATOM     15  C   UNL     1      46.489  11.512  11.785  0.00  0.00    +0.000 C 
ATOM     16  C   UNL     1      47.779  10.708  12.103  0.00  0.00    +0.000 C 
ATOM     17  C   UNL     1      48.676  10.803  10.863  0.00  0.00    +0.000 C 
ATOM     18  C   UNL     1      48.440  11.402  13.306  0.00  0.00    +0.000 C 
ENDBRANCH   1  16
BRANCH   9  19
ATOM     19  C   UNL     1      49.487   8.369  13.593  0.00  0.00    +0.000 C 
BRANCH  19  20
ATOM     20  C   UNL     1      50.564   8.272  12.544  0.00  0.00    +0.000 A 
ATOM     21  C   UNL     1      50.423   7.593  11.330  0.00  0.00    +0.000 A 
ATOM     22  C   UNL     1      51.510   7.474  10.467  0.00  0.00    +0.000 A 
ATOM     23  C   UNL     1      52.716   8.038  10.844  0.00  0.00    +0.000 A 
ATOM     24  N   UNL     1      52.895   8.709  11.999  0.00  0.00    +0.000 NA
ATOM     25  C   UNL     1      51.823   8.805  12.818  0.00  0.00    +0.000 A 
ENDBRANCH  19  20
ENDBRANCH   9  19
TORSDOF 4
ENDMDL
MODEL 9
REMARK VINA RESULT:    -5.217      3.589      6.384
REMARK INTER + INTRA:          -7.245
REMARK INTER:                  -6.694
REMARK INTRA:                  -0.551
REMARK UNBOUND:                -0.808
REMARK  Name = 
REMARK  7 active torsions:
REMARK  status: ('A' for Active; 'I' for Inactive)
REMARK    1  A    between atoms: C_1  and  C_2
REMARK    2  A    between atoms: C_2  and  C_3
REMARK    3  A    between atoms: C_2  and  C_4
REMARK    4  A    between atoms: C_2  and  C_5
REMARK    5  A    between atoms: C_9  and  C_10
REMARK    6  A    between atoms: N_16  and  C_17
REMARK    7  A    between atoms: C_17  and  C_18
REMARK                            x       y       z     vdW  Elec       q    Type
REMARK                         _______ _______ _______ _____ _____    ______ ____
ROOT
ATOM      1  C   UNL     1      48.416   8.166  12.761  0.00  0.00    +0.000 A 
ATOM      2  N   UNL     1      47.457   7.839  11.909  0.00  0.00    +0.000 NA
ATOM      3  C   UNL     1      46.900   6.674  12.351  0.00  0.00    +0.000 A 
ATOM      4  C   UNL     1      45.856   5.926  11.780  0.00  0.00    +0.000 A 
ATOM      5  C   UNL     1      45.448   4.746  12.409  0.00  0.00    +0.000 A 
ATOM      6  C   UNL     1      46.061   4.355  13.614  0.00  0.00    +0.000 A 
ATOM      7  C   UNL     1      47.100   5.098  14.198  0.00  0.00    +0.000 A 
ATOM      8  C   UNL     1      47.510   6.255  13.522  0.00  0.00    +0.000 A 
ATOM      9  N   UNL     1      48.520   7.181  13.737  0.00  0.00    +0.000 N 
ENDROOT
BRANCH   5  10
ATOM     10  C   UNL     1      44.392   3.855  11.851  0.00  0.00    +0.000 C 
ATOM     11  N   UNL     1      44.166   2.645  12.448  0.00  0.00    +0.000 N 
ATOM     12  O   UNL     1      43.718   4.190  10.882  0.00  0.00    +0.000 OA
ATOM     13  H   UNL     1      44.665   2.283  13.244  0.00  0.00    +0.000 HD
ATOM     14  H   UNL     1      43.430   2.074  12.054  0.00  0.00    +0.000 HD
ENDBRANCH   5  10
BRANCH   1  16
ATOM     15  C   UNL     1      48.784  10.444  13.730  0.00  0.00    +0.000 C 
ATOM     16  C   UNL     1      49.224   9.456  12.614  0.00  0.00    +0.000 C 
ATOM     17  C   UNL     1      48.961  10.157  11.275  0.00  0.00    +0.000 C 
ATOM     18  C   UNL     1      50.729   9.215  12.814  0.00  0.00    +0.000 C 
ENDBRANCH   1  16
BRANCH   9  19
ATOM     19  C   UNL     1      49.471   7.091  14.840  0.00  0.00    +0.000 C 
BRANCH  19  20
ATOM     20  C   UNL     1      48.895   7.375  16.203  0.00  0.00    +0.000 A 
ATOM     21  C   UNL     1      48.485   8.638  16.638  0.00  0.00    +0.000 A 
ATOM     22  C   UNL     1      48.058   8.818  17.952  0.00  0.00    +0.000 A 
ATOM     23  C   UNL     1      48.056   7.725  18.801  0.00  0.00    +0.000 A 
ATOM     24  N   UNL     1      48.434   6.488  18.421  0.00  0.00    +0.000 NA
ATOM     25  C   UNL     1      48.847   6.344  17.142  0.00  0.00    +0.000 A 
ENDBRANCH  19  20
ENDBRANCH   9  19
TORSDOF 4
ENDMDL
