MODEL 1
REMARK VINA RESULT:    -8.395      0.000      0.000
REMARK INTER + INTRA:         -11.752
REMARK INTER:                 -10.848
REMARK INTRA:                  -0.903
REMARK UNBOUND:                -0.903
REMARK  Name = 
REMARK  5 active torsions:
REMARK  status: ('A' for Active; 'I' for Inactive)
REMARK    1  A    between atoms: C_2  and  C_4
REMARK    2  A    between atoms: C_7  and  O_8
REMARK    3  A    between atoms: O_8  and  C_9
REMARK    4  A    between atoms: C_9  and  C_10
REMARK    5  A    between atoms: C_14  and  N_15
REMARK                            x       y       z     vdW  Elec       q    Type
REMARK                         _______ _______ _______ _____ _____    ______ ____
ROOT
ATOM      1  C   UNL     1      43.414   4.679  11.230  0.00  0.00    +0.000 C 
ENDROOT
BRANCH   1   2
ATOM      2  C   UNL     1      44.449   5.608  11.812  0.00  0.00    +0.000 A 
ATOM      3  C   UNL     1      44.481   6.956  11.448  0.00  0.00    +0.000 A 
ATOM      4  C   UNL     1      45.442   7.797  11.997  0.00  0.00    +0.000 A 
ATOM      5  C   UNL     1      46.372   7.294  12.910  0.00  0.00    +0.000 A 
ATOM      6  C   UNL     1      46.375   5.947  13.305  0.00  0.00    +0.000 A 
ATOM      7  C   UNL     1      45.399   5.121  12.731  0.00  0.00    +0.000 A 
BRANCH   6   8
ATOM      8  N   UNL     1      47.262   5.496  14.258  0.00  0.00    +0.000 N 
ATOM      9  C   UNL     1      47.279   4.107  14.738  0.00  0.00    +0.000 C 
ATOM     10  C   UNL     1      47.560   4.113  16.254  0.00  0.00    +0.000 C 
ATOM     11  O   UNL     1      48.768   4.825  16.578  0.00  0.00    +0.000 OA
ATOM     12  C   UNL     1      48.685   6.186  16.118  0.00  0.00    +0.000 C 
ATOM     13  C   UNL     1      48.478   6.248  14.598  0.00  0.00    +0.000 C 
ENDBRANCH   6   8
ENDBRANCH   1   2
BRANCH   1  14
ATOM     14  O   UNL     1      43.522   4.714   9.808  0.00  0.00    +0.000 OA
BRANCH  14  18
ATOM     15  C   UNL     1      46.294   2.281   7.872  0.00  0.00    +0.000 A 
ATOM     16  C   UNL     1      45.415   1.690   8.786  0.00  0.00    +0.000 A 
ATOM     17  C   UNL     1      44.467   2.471   9.458  0.00  0.00    +0.000 A 
ATOM     18  C   UNL     1      44.398   3.845   9.225  0.00  0.00    +0.000 A 
ATOM     19  C   UNL     1      45.290   4.435   8.323  0.00  0.00    +0.000 A 
ATOM     20  C   UNL     1      46.239   3.660   7.652  0.00  0.00    +0.000 A 
BRANCH  15  22
ATOM     21  N   UNL     1      48.400   2.150   6.658  0.00  0.00    +0.000 N 
ATOM     22  C   UNL     1      47.306   1.482   7.133  0.00  0.00    +0.000 C 
ATOM     23  O   UNL     1      47.192   0.272   6.990  0.00  0.00    +0.000 OA
ATOM     24  H   UNL     1      49.136   1.573   6.267  0.00  0.00    +0.000 HD
ATOM     25  H   UNL     1      48.654   3.070   6.987  0.00  0.00    +0.000 HD
ENDBRANCH  15  22
ENDBRANCH  14  18
ENDBRANCH   1  14
TORSDOF 5
ENDMDL
MODEL 2
REMARK VINA RESULT:    -8.339      2.000      3.044
REMARK INTER + INTRA:         -11.679
REMARK INTER:                 -10.743
REMARK INTRA:                  -0.936
REMARK UNBOUND:                -0.903
REMARK  Name = 
REMARK  5 active torsions:
REMARK  status: ('A' for Active; 'I' for Inactive)
REMARK    1  A    between atoms: C_2  and  C_4
REMARK    2  A    between atoms: C_7  and  O_8
REMARK    3  A    between atoms: O_8  and  C_9
REMARK    4  A    between atoms: C_9  and  C_10
REMARK    5  A    between atoms: C_14  and  N_15
REMARK                            x       y       z     vdW  Elec       q    Type
REMARK                         _______ _______ _______ _____ _____    ______ ____
ROOT
ATOM      1  C   UNL     1      43.437   4.185  11.414  0.00  0.00    +0.000 C 
ENDROOT
BRANCH   1   2
ATOM      2  C   UNL     1      44.672   4.623  12.158  0.00  0.00    +0.000 A 
ATOM      3  C   UNL     1      45.474   3.691  12.820  0.00  0.00    +0.000 A 
ATOM      4  C   UNL     1      46.610   4.115  13.499  0.00  0.00    +0.000 A 
ATOM      5  C   UNL     1      46.949   5.470  13.519  0.00  0.00    +0.000 A 
ATOM      6  C   UNL     1      46.172   6.441  12.866  0.00  0.00    +0.000 A 
ATOM      7  C   UNL     1      45.029   5.986  12.194  0.00  0.00    +0.000 A 
BRANCH   6   8
ATOM      8  N   UNL     1      46.568   7.761  12.847  0.00  0.00    +0.000 N 
ATOM      9  C   UNL     1      45.618   8.879  12.923  0.00  0.00    +0.000 C 
ATOM     10  C   UNL     1      46.102  10.001  11.983  0.00  0.00    +0.000 C 
ATOM     11  O   UNL     1      47.454  10.403  12.271  0.00  0.00    +0.000 OA
ATOM     12  C   UNL     1      48.347   9.281  12.148  0.00  0.00    +0.000 C 
ATOM     13  C   UNL     1      47.959   8.153  13.116  0.00  0.00    +0.000 C 
ENDBRANCH   6   8
ENDBRANCH   1   2
BRANCH   1  14
ATOM     14  O   UNL     1      43.604   4.501  10.032  0.00  0.00    +0.000 OA
BRANCH  14  18
ATOM     15  C   UNL     1      46.381   2.427   7.722  0.00  0.00    +0.000 A 
ATOM     16  C   UNL     1      45.572   1.699   8.602  0.00  0.00    +0.000 A 
ATOM     17  C   UNL     1      44.625   2.356   9.396  0.00  0.00    +0.000 A 
ATOM     18  C   UNL     1      44.488   3.743   9.320  0.00  0.00    +0.000 A 
ATOM     19  C   UNL     1      45.309   4.469   8.451  0.00  0.00    +0.000 A 
ATOM     20  C   UNL     1      46.257   3.818   7.659  0.00  0.00    +0.000 A 
BRANCH  15  22
ATOM     21  N   UNL     1      48.488   2.496   6.503  0.00  0.00    +0.000 N 
ATOM     22  C   UNL     1      47.390   1.762   6.857  0.00  0.00    +0.000 C 
ATOM     23  O   UNL     1      47.270   0.595   6.507  0.00  0.00    +0.000 OA
ATOM     24  H   UNL     1      49.221   1.991   6.019  0.00  0.00    +0.000 HD
ATOM     25  H   UNL     1      48.746   3.344   6.985  0.00  0.00    +0.000 HD
ENDBRANCH  15  22
ENDBRANCH  14  18
ENDBRANCH   1  14
TORSDOF 5
ENDMDL
MODEL 3
REMARK VINA RESULT:    -7.634      1.949      2.741
REMARK INTER + INTRA:         -10.769
REMARK INTER:                 -10.011
REMARK INTRA:                  -0.758
REMARK UNBOUND:                -0.903
REMARK  Name = 
REMARK  5 active torsions:
REMARK  status: ('A' for Active; 'I' for Inactive)
REMARK    1  A    between atoms: C_2  and  C_4
REMARK    2  A    between atoms: C_7  and  O_8
REMARK    3  A    between atoms: O_8  and  C_9
REMARK    4  A    between atoms: C_9  and  C_10
REMARK    5  A    between atoms: C_14  and  N_15
REMARK                            x       y       z     vdW  Elec       q    Type
REMARK                         _______ _______ _______ _____ _____    ______ ____
ROOT
ATOM      1  C   UNL     1      44.157   3.190  11.566  0.00  0.00    +0.000 C 
ENDROOT
BRANCH   1   2
ATOM      2  C   UNL     1      44.272   4.692  11.604  0.00  0.00    +0.000 A 
ATOM      3  C   UNL     1      43.186   5.499  11.257  0.00  0.00    +0.000 A 
ATOM      4  C   UNL     1      43.311   6.882  11.299  0.00  0.00    +0.000 A 
ATOM      5  C   UNL     1      44.520   7.464  11.688  0.00  0.00    +0.000 A 
ATOM      6  C   UNL     1      45.636   6.691  12.047  0.00  0.00    +0.000 A 
ATOM      7  C   UNL     1      45.483   5.299  11.989  0.00  0.00    +0.000 A 
BRANCH   6   8
ATOM      8  N   UNL     1      46.794   7.293  12.491  0.00  0.00    +0.000 N 
ATOM      9  C   UNL     1      47.116   8.701  12.218  0.00  0.00    +0.000 C 
ATOM     10  C   UNL     1      48.627   8.814  11.933  0.00  0.00    +0.000 C 
ATOM     11  O   UNL     1      49.422   8.260  12.998  0.00  0.00    +0.000 OA
ATOM     12  C   UNL     1      49.093   6.874  13.200  0.00  0.00    +0.000 C 
ATOM     13  C   UNL     1      47.610   6.701  13.561  0.00  0.00    +0.000 C 
ENDBRANCH   6   8
ENDBRANCH   1   2
BRANCH   1  14
ATOM     14  O   UNL     1      43.695   2.802  10.273  0.00  0.00    +0.000 OA
BRANCH  14  18
ATOM     15  C   UNL     1      46.539   2.517   7.244  0.00  0.00    +0.000 A 
ATOM     16  C   UNL     1      45.894   3.744   7.437  0.00  0.00    +0.000 A 
ATOM     17  C   UNL     1      44.933   3.884   8.445  0.00  0.00    +0.000 A 
ATOM     18  C   UNL     1      44.606   2.797   9.258  0.00  0.00    +0.000 A 
ATOM     19  C   UNL     1      45.240   1.568   9.050  0.00  0.00    +0.000 A 
ATOM     20  C   UNL     1      46.198   1.423   8.045  0.00  0.00    +0.000 A 
BRANCH  15  22
ATOM     21  N   UNL     1      47.445   3.090   5.058  0.00  0.00    +0.000 N 
ATOM     22  C   UNL     1      47.572   2.335   6.191  0.00  0.00    +0.000 C 
ATOM     23  O   UNL     1      48.519   1.576   6.342  0.00  0.00    +0.000 OA
ATOM     24  H   UNL     1      48.220   3.046   4.407  0.00  0.00    +0.000 HD
ATOM     25  H   UNL     1      46.848   3.903   5.017  0.00  0.00    +0.000 HD
ENDBRANCH  15  22
ENDBRANCH  14  18
ENDBRANCH   1  14
TORSDOF 5
ENDMDL
MODEL 4
REMARK VINA RESULT:    -7.360      1.501      1.792
REMARK INTER + INTRA:         -10.414
REMARK INTER:                  -9.723
REMARK INTRA:                  -0.692
REMARK UNBOUND:                -0.903
REMARK  Name = 
REMARK  5 active torsions:
REMARK  status: ('A' for Active; 'I' for Inactive)
REMARK    1  A    between atoms: C_2  and  C_4
REMARK    2  A    between atoms: C_7  and  O_8
REMARK    3  A    between atoms: O_8  and  C_9
REMARK    4  A    between atoms: C_9  and  C_10
REMARK    5  A    between atoms: C_14  and  N_15
REMARK                            x       y       z     vdW  Elec       q    Type
REMARK                         _______ _______ _______ _____ _____    ______ ____
ROOT
ATOM      1  C   UNL     1      44.534   3.851  11.855  0.00  0.00    +0.000 C 
ENDROOT
BRANCH   1   2
ATOM      2  C   UNL     1      45.104   5.230  12.068  0.00  0.00    +0.000 A 
ATOM      3  C   UNL     1      44.397   6.364  11.663  0.00  0.00    +0.000 A 
ATOM      4  C   UNL     1      44.939   7.627  11.870  0.00  0.00    +0.000 A 
ATOM      5  C   UNL     1      46.188   7.761  12.481  0.00  0.00    +0.000 A 
ATOM      6  C   UNL     1      46.932   6.648  12.906  0.00  0.00    +0.000 A 
ATOM      7  C   UNL     1      46.364   5.387  12.679  0.00  0.00    +0.000 A 
BRANCH   6   8
ATOM      8  N   UNL     1      48.130   6.815  13.566  0.00  0.00    +0.000 N 
ATOM      9  C   UNL     1      48.393   6.248  14.897  0.00  0.00    +0.000 C 
ATOM     10  C   UNL     1      49.212   7.268  15.713  0.00  0.00    +0.000 C 
ATOM     11  O   UNL     1      50.417   7.663  15.032  0.00  0.00    +0.000 OA
ATOM     12  C   UNL     1      50.102   8.242  13.753  0.00  0.00    +0.000 C 
ATOM     13  C   UNL     1      49.346   7.246  12.862  0.00  0.00    +0.000 C 
ENDBRANCH   6   8
ENDBRANCH   1   2
BRANCH   1  14
ATOM     14  O   UNL     1      43.977   3.789  10.543  0.00  0.00    +0.000 OA
BRANCH  14  18
ATOM     15  C   UNL     1      46.504   2.820   7.376  0.00  0.00    +0.000 A 
ATOM     16  C   UNL     1      46.001   1.781   8.167  0.00  0.00    +0.000 A 
ATOM     17  C   UNL     1      45.147   2.062   9.240  0.00  0.00    +0.000 A 
ATOM     18  C   UNL     1      44.799   3.382   9.532  0.00  0.00    +0.000 A 
ATOM     19  C   UNL     1      45.317   4.419   8.749  0.00  0.00    +0.000 A 
ATOM     20  C   UNL     1      46.170   4.144   7.679  0.00  0.00    +0.000 A 
BRANCH  15  22
ATOM     21  N   UNL     1      48.659   2.098   6.505  0.00  0.00    +0.000 N 
ATOM     22  C   UNL     1      47.403   2.558   6.222  0.00  0.00    +0.000 C 
ATOM     23  O   UNL     1      47.029   2.706   5.067  0.00  0.00    +0.000 OA
ATOM     24  H   UNL     1      49.214   1.808   5.708  0.00  0.00    +0.000 HD
ATOM     25  H   UNL     1      48.901   1.714   7.406  0.00  0.00    +0.000 HD
ENDBRANCH  15  22
ENDBRANCH  14  18
ENDBRANCH   1  14
TORSDOF 5
ENDMDL
MODEL 5
REMARK VINA RESULT:    -6.497      1.844      7.365
REMARK INTER + INTRA:          -9.299
REMARK INTER:                  -8.734
REMARK INTRA:                  -0.565
REMARK UNBOUND:                -0.903
REMARK  Name = 
REMARK  5 active torsions:
REMARK  status: ('A' for Active; 'I' for Inactive)
REMARK    1  A    between atoms: C_2  and  C_4
REMARK    2  A    between atoms: C_7  and  O_8
REMARK    3  A    between atoms: O_8  and  C_9
REMARK    4  A    between atoms: C_9  and  C_10
REMARK    5  A    between atoms: C_14  and  N_15
REMARK                            x       y       z     vdW  Elec       q    Type
REMARK                         _______ _______ _______ _____ _____    ______ ____
ROOT
ATOM      1  C   UNL     1      46.113   7.145  11.929  0.00  0.00    +0.000 C 
ENDROOT
BRANCH   1   2
ATOM      2  C   UNL     1      45.216   6.072  11.366  0.00  0.00    +0.000 A 
ATOM      3  C   UNL     1      43.903   5.930  11.820  0.00  0.00    +0.000 A 
ATOM      4  C   UNL     1      43.091   4.936  11.286  0.00  0.00    +0.000 A 
ATOM      5  C   UNL     1      43.588   4.082  10.299  0.00  0.00    +0.000 A 
ATOM      6  C   UNL     1      44.901   4.190   9.812  0.00  0.00    +0.000 A 
ATOM      7  C   UNL     1      45.698   5.198  10.372  0.00  0.00    +0.000 A 
BRANCH   6   8
ATOM      8  N   UNL     1      45.341   3.377   8.790  0.00  0.00    +0.000 N 
ATOM      9  C   UNL     1      44.998   1.951   8.702  0.00  0.00    +0.000 C 
ATOM     10  C   UNL     1      46.231   1.178   8.194  0.00  0.00    +0.000 C 
ATOM     11  O   UNL     1      46.726   1.706   6.950  0.00  0.00    +0.000 OA
ATOM     12  C   UNL     1      47.080   3.093   7.100  0.00  0.00    +0.000 C 
ATOM     13  C   UNL     1      45.870   3.932   7.536  0.00  0.00    +0.000 C 
ENDBRANCH   6   8
ENDBRANCH   1   2
BRANCH   1  14
ATOM     14  O   UNL     1      47.385   6.567  12.216  0.00  0.00    +0.000 OA
BRANCH  14  18
ATOM     15  C   UNL     1      47.850   4.997  16.046  0.00  0.00    +0.000 A 
ATOM     16  C   UNL     1      48.525   6.181  15.726  0.00  0.00    +0.000 A 
ATOM     17  C   UNL     1      48.395   6.744  14.451  0.00  0.00    +0.000 A 
ATOM     18  C   UNL     1      47.598   6.122  13.488  0.00  0.00    +0.000 A 
ATOM     19  C   UNL     1      46.939   4.930  13.807  0.00  0.00    +0.000 A 
ATOM     20  C   UNL     1      47.067   4.364  15.077  0.00  0.00    +0.000 A 
BRANCH  15  22
ATOM     21  N   UNL     1      47.112   3.338  17.667  0.00  0.00    +0.000 N 
ATOM     22  C   UNL     1      47.957   4.377  17.392  0.00  0.00    +0.000 C 
ATOM     23  O   UNL     1      48.789   4.748  18.208  0.00  0.00    +0.000 OA
ATOM     24  H   UNL     1      47.281   2.848  18.538  0.00  0.00    +0.000 HD
ATOM     25  H   UNL     1      46.617   2.841  16.942  0.00  0.00    +0.000 HD
ENDBRANCH  15  22
ENDBRANCH  14  18
ENDBRANCH   1  14
TORSDOF 5
ENDMDL
MODEL 6
REMARK VINA RESULT:    -6.307      3.496      8.327
REMARK INTER + INTRA:          -9.054
REMARK INTER:                  -8.397
REMARK INTRA:                  -0.657
REMARK UNBOUND:                -0.903
REMARK  Name = 
REMARK  5 active torsions:
REMARK  status: ('A' for Active; 'I' for Inactive)
REMARK    1  A    between atoms: C_2  and  C_4
REMARK    2  A    between atoms: C_7  and  O_8
REMARK    3  A    between atoms: O_8  and  C_9
REMARK    4  A    between atoms: C_9  and  C_10
REMARK    5  A    between atoms: C_14  and  N_15
REMARK                            x       y       z     vdW  Elec       q    Type
REMARK                         _______ _______ _______ _____ _____    ______ ____
ROOT
ATOM      1  C   UNL     1      47.825   4.305  16.622  0.00  0.00    +0.000 C 
ENDROOT
BRANCH   1   2
ATOM      2  C   UNL     1      47.540   5.018  15.325  0.00  0.00    +0.000 A 
ATOM      3  C   UNL     1      48.288   6.135  14.946  0.00  0.00    +0.000 A 
ATOM      4  C   UNL     1      48.011   6.778  13.746  0.00  0.00    +0.000 A 
ATOM      5  C   UNL     1      46.987   6.308  12.920  0.00  0.00    +0.000 A 
ATOM      6  C   UNL     1      46.212   5.188  13.260  0.00  0.00    +0.000 A 
ATOM      7  C   UNL     1      46.509   4.563  14.479  0.00  0.00    +0.000 A 
BRANCH   6   8
ATOM      8  N   UNL     1      45.253   4.707  12.395  0.00  0.00    +0.000 N 
ATOM      9  C   UNL     1      44.573   5.557  11.406  0.00  0.00    +0.000 C 
ATOM     10  C   UNL     1      43.093   5.132  11.328  0.00  0.00    +0.000 C 
ATOM     11  O   UNL     1      42.947   3.729  11.045  0.00  0.00    +0.000 OA
ATOM     12  C   UNL     1      43.599   2.943  12.059  0.00  0.00    +0.000 C 
ATOM     13  C   UNL     1      45.097   3.269  12.137  0.00  0.00    +0.000 C 
ENDBRANCH   6   8
ENDBRANCH   1   2
BRANCH   1  14
ATOM     14  O   UNL     1      49.003   4.867  17.199  0.00  0.00    +0.000 OA
BRANCH  14  18
ATOM     15  C   UNL     1      52.068   2.100  17.746  0.00  0.00    +0.000 A 
ATOM     16  C   UNL     1      52.359   3.458  17.922  0.00  0.00    +0.000 A 
ATOM     17  C   UNL     1      51.357   4.421  17.749  0.00  0.00    +0.000 A 
ATOM     18  C   UNL     1      50.065   4.033  17.393  0.00  0.00    +0.000 A 
ATOM     19  C   UNL     1      49.783   2.676  17.201  0.00  0.00    +0.000 A 
ATOM     20  C   UNL     1      50.779   1.712  17.370  0.00  0.00    +0.000 A 
BRANCH  15  22
ATOM     21  N   UNL     1      53.252   0.139  16.922  0.00  0.00    +0.000 N 
ATOM     22  C   UNL     1      53.103   1.050  17.930  0.00  0.00    +0.000 C 
ATOM     23  O   UNL     1      53.822   1.022  18.920  0.00  0.00    +0.000 OA
ATOM     24  H   UNL     1      54.041  -0.491  17.008  0.00  0.00    +0.000 HD
ATOM     25  H   UNL     1      52.876   0.293  15.998  0.00  0.00    +0.000 HD
ENDBRANCH  15  22
ENDBRANCH  14  18
ENDBRANCH   1  14
TORSDOF 5
ENDMDL
MODEL 7
REMARK VINA RESULT:    -6.158      3.112      7.742
REMARK INTER + INTRA:          -8.861
REMARK INTER:                  -8.132
REMARK INTRA:                  -0.729
REMARK UNBOUND:                -0.903
REMARK  Name = 
REMARK  5 active torsions:
REMARK  status: ('A' for Active; 'I' for Inactive)
REMARK    1  A    between atoms: C_2  and  C_4
REMARK    2  A    between atoms: C_7  and  O_8
REMARK    3  A    between atoms: O_8  and  C_9
REMARK    4  A    between atoms: C_9  and  C_10
REMARK    5  A    between atoms: C_14  and  N_15
REMARK                            x       y       z     vdW  Elec       q    Type
REMARK                         _______ _______ _______ _____ _____    ______ ____
ROOT
ATOM      1  C   UNL     1      48.653   6.509  15.719  0.00  0.00    +0.000 C 
ENDROOT
BRANCH   1   2
ATOM      2  C   UNL     1      48.133   6.574  14.306  0.00  0.00    +0.000 A 
ATOM      3  C   UNL     1      48.818   7.296  13.326  0.00  0.00    +0.000 A 
ATOM      4  C   UNL     1      48.323   7.342  12.028  0.00  0.00    +0.000 A 
ATOM      5  C   UNL     1      47.143   6.668  11.705  0.00  0.00    +0.000 A 
ATOM      6  C   UNL     1      46.423   5.929  12.657  0.00  0.00    +0.000 A 
ATOM      7  C   UNL     1      46.943   5.905  13.959  0.00  0.00    +0.000 A 
BRANCH   6   8
ATOM      8  N   UNL     1      45.299   5.219  12.293  0.00  0.00    +0.000 N 
ATOM      9  C   UNL     1      45.293   4.245  11.193  0.00  0.00    +0.000 C 
ATOM     10  C   UNL     1      43.957   4.368  10.434  0.00  0.00    +0.000 C 
ATOM     11  O   UNL     1      42.822   4.224  11.308  0.00  0.00    +0.000 OA
ATOM     12  C   UNL     1      42.858   5.222  12.344  0.00  0.00    +0.000 C 
ATOM     13  C   UNL     1      44.137   5.104  13.186  0.00  0.00    +0.000 C 
ENDBRANCH   6   8
ENDBRANCH   1   2
BRANCH   1  14
ATOM     14  O   UNL     1      48.096   5.359  16.354  0.00  0.00    +0.000 OA
BRANCH  14  18
ATOM     15  C   UNL     1      50.904   2.462  17.391  0.00  0.00    +0.000 A 
ATOM     16  C   UNL     1      49.654   2.040  16.922  0.00  0.00    +0.000 A 
ATOM     17  C   UNL     1      48.682   2.980  16.562  0.00  0.00    +0.000 A 
ATOM     18  C   UNL     1      48.951   4.345  16.675  0.00  0.00    +0.000 A 
ATOM     19  C   UNL     1      50.195   4.763  17.159  0.00  0.00    +0.000 A 
ATOM     20  C   UNL     1      51.167   3.828  17.522  0.00  0.00    +0.000 A 
BRANCH  15  22
ATOM     21  N   UNL     1      51.557   0.233  18.121  0.00  0.00    +0.000 N 
ATOM     22  C   UNL     1      51.963   1.492  17.773  0.00  0.00    +0.000 C 
ATOM     23  O   UNL     1      53.149   1.787  17.739  0.00  0.00    +0.000 OA
ATOM     24  H   UNL     1      52.295  -0.447  18.258  0.00  0.00    +0.000 HD
ATOM     25  H   UNL     1      50.636  -0.115  17.901  0.00  0.00    +0.000 HD
ENDBRANCH  15  22
ENDBRANCH  14  18
ENDBRANCH   1  14
TORSDOF 5
ENDMDL
MODEL 8
REMARK VINA RESULT:    -5.996      2.829      4.516
REMARK INTER + INTRA:          -8.652
REMARK INTER:                  -7.876
REMARK INTRA:                  -0.775
REMARK UNBOUND:                -0.903
REMARK  Name = 
REMARK  5 active torsions:
REMARK  status: ('A' for Active; 'I' for Inactive)
REMARK    1  A    between atoms: C_2  and  C_4
REMARK    2  A    between atoms: C_7  and  O_8
REMARK    3  A    between atoms: O_8  and  C_9
REMARK    4  A    between atoms: C_9  and  C_10
REMARK    5  A    between atoms: C_14  and  N_15
REMARK                            x       y       z     vdW  Elec       q    Type
REMARK                         _______ _______ _______ _____ _____    ______ ____
ROOT
ATOM      1  C   UNL     1      47.998   7.577  12.598  0.00  0.00    +0.000 C 
ENDROOT
BRANCH   1   2
ATOM      2  C   UNL     1      48.292   7.657  14.074  0.00  0.00    +0.000 A 
ATOM      3  C   UNL     1      48.388   8.894  14.715  0.00  0.00    +0.000 A 
ATOM      4  C   UNL     1      48.658   8.947  16.077  0.00  0.00    +0.000 A 
ATOM      5  C   UNL     1      48.831   7.766  16.803  0.00  0.00    +0.000 A 
ATOM      6  C   UNL     1      48.740   6.502  16.200  0.00  0.00    +0.000 A 
ATOM      7  C   UNL     1      48.474   6.478  14.824  0.00  0.00    +0.000 A 
BRANCH   6   8
ATOM      8  N   UNL     1      48.849   5.354  16.954  0.00  0.00    +0.000 N 
ATOM      9  C   UNL     1      50.088   4.967  17.643  0.00  0.00    +0.000 C 
ATOM     10  C   UNL     1      50.256   3.438  17.534  0.00  0.00    +0.000 C 
ATOM     11  O   UNL     1      49.104   2.730  18.027  0.00  0.00    +0.000 OA
ATOM     12  C   UNL     1      47.927   3.119  17.297  0.00  0.00    +0.000 C 
ATOM     13  C   UNL     1      47.663   4.626  17.428  0.00  0.00    +0.000 C 
ENDBRANCH   6   8
ENDBRANCH   1   2
BRANCH   1  14
ATOM     14  O   UNL     1      46.585   7.643  12.412  0.00  0.00    +0.000 OA
BRANCH  14  18
ATOM     15  C   UNL     1      44.629   4.144  11.279  0.00  0.00    +0.000 A 
ATOM     16  C   UNL     1      45.196   4.943  10.279  0.00  0.00    +0.000 A 
ATOM     17  C   UNL     1      45.863   6.126  10.616  0.00  0.00    +0.000 A 
ATOM     18  C   UNL     1      45.961   6.520  11.952  0.00  0.00    +0.000 A 
ATOM     19  C   UNL     1      45.378   5.728  12.946  0.00  0.00    +0.000 A 
ATOM     20  C   UNL     1      44.710   4.548  12.615  0.00  0.00    +0.000 A 
BRANCH  15  22
ATOM     21  N   UNL     1      44.428   2.124   9.935  0.00  0.00    +0.000 N 
ATOM     22  C   UNL     1      43.923   2.877  10.959  0.00  0.00    +0.000 C 
ATOM     23  O   UNL     1      42.956   2.497  11.605  0.00  0.00    +0.000 OA
ATOM     24  H   UNL     1      44.012   1.208   9.812  0.00  0.00    +0.000 HD
ATOM     25  H   UNL     1      45.359   2.266   9.573  0.00  0.00    +0.000 HD
ENDBRANCH  15  22
ENDBRANCH  14  18
ENDBRANCH   1  14
TORSDOF 5
ENDMDL
MODEL 9
REMARK VINA RESULT:    -5.760      3.419      5.930
REMARK INTER + INTRA:          -8.346
REMARK INTER:                  -7.766
REMARK INTRA:                  -0.580
REMARK UNBOUND:                -0.903
REMARK  Name = 
REMARK  5 active torsions:
REMARK  status: ('A' for Active; 'I' for Inactive)
REMARK    1  A    between atoms: C_2  and  C_4
REMARK    2  A    between atoms: C_7  and  O_8
REMARK    3  A    between atoms: O_8  and  C_9
REMARK    4  A    between atoms: C_9  and  C_10
REMARK    5  A    between atoms: C_14  and  N_15
REMARK                            x       y       z     vdW  Elec       q    Type
REMARK                         _______ _______ _______ _____ _____    ______ ____
ROOT
ATOM      1  C   UNL     1      47.885   6.090  15.244  0.00  0.00    +0.000 C 
ENDROOT
BRANCH   1   2
ATOM      2  C   UNL     1      48.230   5.114  16.340  0.00  0.00    +0.000 A 
ATOM      3  C   UNL     1      47.315   4.138  16.740  0.00  0.00    +0.000 A 
ATOM      4  C   UNL     1      47.653   3.246  17.751  0.00  0.00    +0.000 A 
ATOM      5  C   UNL     1      48.905   3.327  18.366  0.00  0.00    +0.000 A 
ATOM      6  C   UNL     1      49.855   4.291  17.994  0.00  0.00    +0.000 A 
ATOM      7  C   UNL     1      49.485   5.181  16.976  0.00  0.00    +0.000 A 
BRANCH   6   8
ATOM      8  N   UNL     1      51.106   4.303  18.572  0.00  0.00    +0.000 N 
ATOM      9  C   UNL     1      52.285   3.699  17.936  0.00  0.00    +0.000 C 
ATOM     10  C   UNL     1      53.140   3.022  19.025  0.00  0.00    +0.000 C 
ATOM     11  O   UNL     1      53.488   3.932  20.084  0.00  0.00    +0.000 OA
ATOM     12  C   UNL     1      52.301   4.467  20.696  0.00  0.00    +0.000 C 
ATOM     13  C   UNL     1      51.439   5.220  19.672  0.00  0.00    +0.000 C 
ENDBRANCH   6   8
ENDBRANCH   1   2
BRANCH   1  14
ATOM     14  O   UNL     1      48.196   5.489  13.988  0.00  0.00    +0.000 OA
BRANCH  14  18
ATOM     15  C   UNL     1      45.008   4.502  11.495  0.00  0.00    +0.000 A 
ATOM     16  C   UNL     1      45.616   5.753  11.334  0.00  0.00    +0.000 A 
ATOM     17  C   UNL     1      46.691   6.124  12.150  0.00  0.00    +0.000 A 
ATOM     18  C   UNL     1      47.158   5.251  13.134  0.00  0.00    +0.000 A 
ATOM     19  C   UNL     1      46.537   4.009  13.303  0.00  0.00    +0.000 A 
ATOM     20  C   UNL     1      45.463   3.635  12.493  0.00  0.00    +0.000 A 
BRANCH  15  22
ATOM     21  N   UNL     1      43.844   4.542   9.357  0.00  0.00    +0.000 N 
ATOM     22  C   UNL     1      43.872   4.070  10.640  0.00  0.00    +0.000 C 
ATOM     23  O   UNL     1      43.018   3.294  11.047  0.00  0.00    +0.000 OA
ATOM     24  H   UNL     1      43.136   4.142   8.753  0.00  0.00    +0.000 HD
ATOM     25  H   UNL     1      44.655   4.950   8.917  0.00  0.00    +0.000 HD
ENDBRANCH  15  22
ENDBRANCH  14  18
ENDBRANCH   1  14
TORSDOF 5
ENDMDL
