MODEL 1
REMARK VINA RESULT:    -7.865      0.000      0.000
REMARK INTER + INTRA:         -12.636
REMARK INTER:                 -11.543
REMARK INTRA:                  -1.093
REMARK UNBOUND:                -1.093
REMARK  Name = 
REMARK  9 active torsions:
REMARK  status: ('A' for Active; 'I' for Inactive)
REMARK    1  A    between atoms: C_1  and  C_2
REMARK    2  A    between atoms: C_2  and  C_3
REMARK    3  A    between atoms: C_2  and  C_15
REMARK    4  A    between atoms: C_3  and  O_4
REMARK    5  A    between atoms: O_4  and  C_5
REMARK    6  A    between atoms: C_8  and  C_9
REMARK    7  A    between atoms: C_18  and  O_19
REMARK    8  A    between atoms: O_19  and  C_20
REMARK    9  A    between atoms: C_20  and  C_21
REMARK                            x       y       z     vdW  Elec       q    Type
REMARK                         _______ _______ _______ _____ _____    ______ ____
ROOT
ATOM      1  C   UNL     1      42.994   4.930  13.243  0.00  0.00    +0.000 C 
ATOM      2  C   UNL     1      44.021   4.696  12.178  0.00  0.00    +0.000 C 
ENDROOT
BRANCH   2   3
ATOM      3  C   UNL     1      45.386   5.228  12.378  0.00  0.00    +0.000 A 
ATOM      4  C   UNL     1      45.880   6.280  11.591  0.00  0.00    +0.000 A 
ATOM      5  C   UNL     1      47.160   6.811  11.816  0.00  0.00    +0.000 A 
ATOM      6  C   UNL     1      47.956   6.291  12.833  0.00  0.00    +0.000 A 
ATOM      7  C   UNL     1      47.476   5.238  13.610  0.00  0.00    +0.000 A 
ATOM      8  C   UNL     1      46.203   4.713  13.388  0.00  0.00    +0.000 A 
BRANCH   6   9
ATOM      9  O   UNL     1      49.233   6.666  13.128  0.00  0.00    +0.000 OA
BRANCH   9  10
ATOM     10  C   UNL     1      49.529   8.065  13.091  0.00  0.00    +0.000 C 
BRANCH  10  11
ATOM     11  C   UNL     1      50.362   8.397  11.853  0.00  0.00    +0.000 C 
ATOM     12  F   UNL     1      50.596   7.321  11.070  0.00  0.00    +0.000 F 
ATOM     13  F   UNL     1      49.736   9.323  11.089  0.00  0.00    +0.000 F 
ATOM     14  F   UNL     1      51.565   8.913  12.201  0.00  0.00    +0.000 F 
ENDBRANCH  10  11
ENDBRANCH   9  10
ENDBRANCH   6   9
ENDBRANCH   2   3
BRANCH   2  15
ATOM     15  C   UNL     1      43.572   4.574  10.747  0.00  0.00    +0.000 C 
BRANCH  15  16
ATOM     16  O   UNL     1      43.608   3.216  10.291  0.00  0.00    +0.000 OA
BRANCH  16  17
ATOM     17  C   UNL     1      44.576   2.969   9.351  0.00  0.00    +0.000 A 
ATOM     18  C   UNL     1      45.083   4.051   8.641  0.00  0.00    +0.000 A 
ATOM     19  N   UNL     1      46.056   3.957   7.697  0.00  0.00    +0.000 NA
ATOM     20  C   UNL     1      46.548   2.702   7.428  0.00  0.00    +0.000 A 
ATOM     21  C   UNL     1      46.078   1.558   8.066  0.00  0.00    +0.000 A 
ATOM     22 CL   UNL     1      46.626  -0.049   7.770  0.00  0.00    +0.000 Cl
ATOM     23  C   UNL     1      45.075   1.707   9.030  0.00  0.00    +0.000 A 
BRANCH  20  24
ATOM     24  C   UNL     1      47.641   2.671   6.391  0.00  0.00    +0.000 C 
ATOM     25  N   UNL     1      47.326   3.269   5.199  0.00  0.00    +0.000 N 
ATOM     26  O   UNL     1      48.748   2.170   6.551  0.00  0.00    +0.000 OA
ATOM     27  H   UNL     1      46.416   3.690   5.071  0.00  0.00    +0.000 HD
ATOM     28  H   UNL     1      48.019   3.294   4.462  0.00  0.00    +0.000 HD
ENDBRANCH  20  24
ENDBRANCH  16  17
ENDBRANCH  15  16
ENDBRANCH   2  15
TORSDOF 8
ENDMDL
MODEL 2
REMARK VINA RESULT:    -7.727      1.635      2.062
REMARK INTER + INTRA:         -12.435
REMARK INTER:                 -11.204
REMARK INTRA:                  -1.231
REMARK UNBOUND:                -1.093
REMARK  Name = 
REMARK  9 active torsions:
REMARK  status: ('A' for Active; 'I' for Inactive)
REMARK    1  A    between atoms: C_1  and  C_2
REMARK    2  A    between atoms: C_2  and  C_3
REMARK    3  A    between atoms: C_2  and  C_15
REMARK    4  A    between atoms: C_3  and  O_4
REMARK    5  A    between atoms: O_4  and  C_5
REMARK    6  A    between atoms: C_8  and  C_9
REMARK    7  A    between atoms: C_18  and  O_19
REMARK    8  A    between atoms: O_19  and  C_20
REMARK    9  A    between atoms: C_20  and  C_21
REMARK                            x       y       z     vdW  Elec       q    Type
REMARK                         _______ _______ _______ _____ _____    ______ ____
ROOT
ATOM      1  C   UNL     1      42.877   5.312  12.082  0.00  0.00    +0.000 C 
ATOM      2  C   UNL     1      44.103   4.476  12.288  0.00  0.00    +0.000 C 
ENDROOT
BRANCH   2   3
ATOM      3  C   UNL     1      45.393   5.154  12.533  0.00  0.00    +0.000 A 
ATOM      4  C   UNL     1      46.166   4.859  13.666  0.00  0.00    +0.000 A 
ATOM      5  C   UNL     1      47.412   5.473  13.871  0.00  0.00    +0.000 A 
ATOM      6  C   UNL     1      47.894   6.389  12.939  0.00  0.00    +0.000 A 
ATOM      7  C   UNL     1      47.126   6.695  11.817  0.00  0.00    +0.000 A 
ATOM      8  C   UNL     1      45.889   6.082  11.613  0.00  0.00    +0.000 A 
BRANCH   6   9
ATOM      9  O   UNL     1      49.052   7.100  13.033  0.00  0.00    +0.000 OA
BRANCH   9  10
ATOM     10  C   UNL     1      48.948   8.527  13.014  0.00  0.00    +0.000 C 
BRANCH  10  11
ATOM     11  C   UNL     1      48.498   9.043  14.381  0.00  0.00    +0.000 C 
ATOM     12  F   UNL     1      47.158   8.996  14.549  0.00  0.00    +0.000 F 
ATOM     13  F   UNL     1      49.055   8.313  15.375  0.00  0.00    +0.000 F 
ATOM     14  F   UNL     1      48.882  10.329  14.565  0.00  0.00    +0.000 F 
ENDBRANCH  10  11
ENDBRANCH   9  10
ENDBRANCH   6   9
ENDBRANCH   2   3
BRANCH   2  15
ATOM     15  C   UNL     1      44.190   3.134  11.613  0.00  0.00    +0.000 C 
BRANCH  15  16
ATOM     16  O   UNL     1      43.627   3.162  10.296  0.00  0.00    +0.000 OA
BRANCH  16  17
ATOM     17  C   UNL     1      44.542   2.952   9.295  0.00  0.00    +0.000 A 
ATOM     18  C   UNL     1      44.889   4.034   8.495  0.00  0.00    +0.000 A 
ATOM     19  N   UNL     1      45.793   3.977   7.483  0.00  0.00    +0.000 NA
ATOM     20  C   UNL     1      46.381   2.759   7.237  0.00  0.00    +0.000 A 
ATOM     21  C   UNL     1      46.071   1.615   7.965  0.00  0.00    +0.000 A 
ATOM     22 CL   UNL     1      46.748   0.050   7.706  0.00  0.00    +0.000 Cl
ATOM     23  C   UNL     1      45.133   1.725   8.998  0.00  0.00    +0.000 A 
BRANCH  20  24
ATOM     24  C   UNL     1      47.393   2.770   6.120  0.00  0.00    +0.000 C 
ATOM     25  N   UNL     1      48.697   2.631   6.517  0.00  0.00    +0.000 N 
ATOM     26  O   UNL     1      47.124   2.882   4.929  0.00  0.00    +0.000 OA
ATOM     27  H   UNL     1      48.917   2.529   7.499  0.00  0.00    +0.000 HD
ATOM     28  H   UNL     1      49.428   2.619   5.817  0.00  0.00    +0.000 HD
ENDBRANCH  20  24
ENDBRANCH  16  17
ENDBRANCH  15  16
ENDBRANCH   2  15
TORSDOF 8
ENDMDL
MODEL 3
REMARK VINA RESULT:    -7.047      4.849      7.764
REMARK INTER + INTRA:         -11.436
REMARK INTER:                 -10.721
REMARK INTRA:                  -0.716
REMARK UNBOUND:                -1.093
REMARK  Name = 
REMARK  9 active torsions:
REMARK  status: ('A' for Active; 'I' for Inactive)
REMARK    1  A    between atoms: C_1  and  C_2
REMARK    2  A    between atoms: C_2  and  C_3
REMARK    3  A    between atoms: C_2  and  C_15
REMARK    4  A    between atoms: C_3  and  O_4
REMARK    5  A    between atoms: O_4  and  C_5
REMARK    6  A    between atoms: C_8  and  C_9
REMARK    7  A    between atoms: C_18  and  O_19
REMARK    8  A    between atoms: O_19  and  C_20
REMARK    9  A    between atoms: C_20  and  C_21
REMARK                            x       y       z     vdW  Elec       q    Type
REMARK                         _______ _______ _______ _____ _____    ______ ____
ROOT
ATOM      1  C   UNL     1      43.269   4.514  13.211  0.00  0.00    +0.000 C 
ATOM      2  C   UNL     1      44.262   5.213  12.335  0.00  0.00    +0.000 C 
ENDROOT
BRANCH   2   3
ATOM      3  C   UNL     1      44.598   4.618  11.025  0.00  0.00    +0.000 A 
ATOM      4  C   UNL     1      45.325   5.336  10.063  0.00  0.00    +0.000 A 
ATOM      5  C   UNL     1      45.681   4.749   8.838  0.00  0.00    +0.000 A 
ATOM      6  C   UNL     1      45.310   3.434   8.568  0.00  0.00    +0.000 A 
ATOM      7  C   UNL     1      44.579   2.719   9.514  0.00  0.00    +0.000 A 
ATOM      8  C   UNL     1      44.229   3.302  10.732  0.00  0.00    +0.000 A 
BRANCH   6   9
ATOM      9  O   UNL     1      45.535   2.756   7.407  0.00  0.00    +0.000 OA
BRANCH   9  10
ATOM     10  C   UNL     1      46.442   3.346   6.470  0.00  0.00    +0.000 C 
BRANCH  10  11
ATOM     11  C   UNL     1      47.548   2.354   6.108  0.00  0.00    +0.000 C 
ATOM     12  F   UNL     1      48.641   2.473   6.893  0.00  0.00    +0.000 F 
ATOM     13  F   UNL     1      47.105   1.080   6.223  0.00  0.00    +0.000 F 
ATOM     14  F   UNL     1      47.951   2.524   4.826  0.00  0.00    +0.000 F 
ENDBRANCH  10  11
ENDBRANCH   9  10
ENDBRANCH   6   9
ENDBRANCH   2   3
BRANCH   2  15
ATOM     15  C   UNL     1      45.349   6.033  12.976  0.00  0.00    +0.000 C 
BRANCH  15  16
ATOM     16  O   UNL     1      46.612   5.356  12.952  0.00  0.00    +0.000 OA
BRANCH  16  17
ATOM     17  C   UNL     1      47.218   5.263  14.178  0.00  0.00    +0.000 A 
ATOM     18  C   UNL     1      48.193   6.201  14.494  0.00  0.00    +0.000 A 
ATOM     19  N   UNL     1      48.860   6.241  15.677  0.00  0.00    +0.000 NA
ATOM     20  C   UNL     1      48.549   5.275  16.604  0.00  0.00    +0.000 A 
ATOM     21  C   UNL     1      47.611   4.277  16.363  0.00  0.00    +0.000 A 
ATOM     22 CL   UNL     1      47.181   3.020  17.462  0.00  0.00    +0.000 Cl
ATOM     23  C   UNL     1      46.951   4.278  15.128  0.00  0.00    +0.000 A 
BRANCH  20  24
ATOM     24  C   UNL     1      49.305   5.391  17.903  0.00  0.00    +0.000 C 
ATOM     25  N   UNL     1      48.534   5.687  18.997  0.00  0.00    +0.000 N 
ATOM     26  O   UNL     1      50.514   5.235  18.030  0.00  0.00    +0.000 OA
ATOM     27  H   UNL     1      47.536   5.807  18.893  0.00  0.00    +0.000 HD
ATOM     28  H   UNL     1      48.976   5.770  19.904  0.00  0.00    +0.000 HD
ENDBRANCH  20  24
ENDBRANCH  16  17
ENDBRANCH  15  16
ENDBRANCH   2  15
TORSDOF 8
ENDMDL
MODEL 4
REMARK VINA RESULT:    -6.640      4.460      7.257
REMARK INTER + INTRA:         -10.839
REMARK INTER:                 -10.049
REMARK INTRA:                  -0.790
REMARK UNBOUND:                -1.093
REMARK  Name = 
REMARK  9 active torsions:
REMARK  status: ('A' for Active; 'I' for Inactive)
REMARK    1  A    between atoms: C_1  and  C_2
REMARK    2  A    between atoms: C_2  and  C_3
REMARK    3  A    between atoms: C_2  and  C_15
REMARK    4  A    between atoms: C_3  and  O_4
REMARK    5  A    between atoms: O_4  and  C_5
REMARK    6  A    between atoms: C_8  and  C_9
REMARK    7  A    between atoms: C_18  and  O_19
REMARK    8  A    between atoms: O_19  and  C_20
REMARK    9  A    between atoms: C_20  and  C_21
REMARK                            x       y       z     vdW  Elec       q    Type
REMARK                         _______ _______ _______ _____ _____    ______ ____
ROOT
ATOM      1  C   UNL     1      42.682   5.222  12.670  0.00  0.00    +0.000 C 
ATOM      2  C   UNL     1      43.939   5.662  11.984  0.00  0.00    +0.000 C 
ENDROOT
BRANCH   2   3
ATOM      3  C   UNL     1      44.409   4.902  10.807  0.00  0.00    +0.000 A 
ATOM      4  C   UNL     1      45.299   5.470   9.882  0.00  0.00    +0.000 A 
ATOM      5  C   UNL     1      45.778   4.728   8.791  0.00  0.00    +0.000 A 
ATOM      6  C   UNL     1      45.369   3.408   8.618  0.00  0.00    +0.000 A 
ATOM      7  C   UNL     1      44.478   2.842   9.527  0.00  0.00    +0.000 A 
ATOM      8  C   UNL     1      44.005   3.579  10.613  0.00  0.00    +0.000 A 
BRANCH   6   9
ATOM      9  O   UNL     1      45.706   2.589   7.582  0.00  0.00    +0.000 OA
BRANCH   9  10
ATOM     10  C   UNL     1      46.412   3.178   6.486  0.00  0.00    +0.000 C 
BRANCH  10  11
ATOM     11  C   UNL     1      47.603   2.303   6.094  0.00  0.00    +0.000 C 
ATOM     12  F   UNL     1      47.371   0.983   6.271  0.00  0.00    +0.000 F 
ATOM     13  F   UNL     1      47.922   2.484   4.791  0.00  0.00    +0.000 F 
ATOM     14  F   UNL     1      48.700   2.621   6.823  0.00  0.00    +0.000 F 
ENDBRANCH  10  11
ENDBRANCH   9  10
ENDBRANCH   6   9
ENDBRANCH   2   3
BRANCH   2  15
ATOM     15  C   UNL     1      45.011   6.341  12.793  0.00  0.00    +0.000 C 
BRANCH  15  16
ATOM     16  O   UNL     1      46.178   5.521  12.926  0.00  0.00    +0.000 OA
BRANCH  16  17
ATOM     17  C   UNL     1      47.329   6.225  13.170  0.00  0.00    +0.000 A 
ATOM     18  C   UNL     1      47.959   6.037  14.394  0.00  0.00    +0.000 A 
ATOM     19  N   UNL     1      49.113   6.652  14.763  0.00  0.00    +0.000 NA
ATOM     20  C   UNL     1      49.671   7.527  13.861  0.00  0.00    +0.000 A 
ATOM     21  C   UNL     1      49.094   7.803  12.626  0.00  0.00    +0.000 A 
ATOM     22 CL   UNL     1      49.719   8.899  11.451  0.00  0.00    +0.000 Cl
ATOM     23  C   UNL     1      47.905   7.143  12.293  0.00  0.00    +0.000 A 
BRANCH  20  24
ATOM     24  C   UNL     1      50.962   8.155  14.320  0.00  0.00    +0.000 C 
ATOM     25  N   UNL     1      52.066   7.818  13.579  0.00  0.00    +0.000 N 
ATOM     26  O   UNL     1      51.073   8.922  15.269  0.00  0.00    +0.000 OA
ATOM     27  H   UNL     1      51.972   7.193  12.791  0.00  0.00    +0.000 HD
ATOM     28  H   UNL     1      52.964   8.213  13.826  0.00  0.00    +0.000 HD
ENDBRANCH  20  24
ENDBRANCH  16  17
ENDBRANCH  15  16
ENDBRANCH   2  15
TORSDOF 8
ENDMDL
MODEL 5
REMARK VINA RESULT:    -6.457      4.432      7.203
REMARK INTER + INTRA:         -10.571
REMARK INTER:                  -9.445
REMARK INTRA:                  -1.126
REMARK UNBOUND:                -1.093
REMARK  Name = 
REMARK  9 active torsions:
REMARK  status: ('A' for Active; 'I' for Inactive)
REMARK    1  A    between atoms: C_1  and  C_2
REMARK    2  A    between atoms: C_2  and  C_3
REMARK    3  A    between atoms: C_2  and  C_15
REMARK    4  A    between atoms: C_3  and  O_4
REMARK    5  A    between atoms: O_4  and  C_5
REMARK    6  A    between atoms: C_8  and  C_9
REMARK    7  A    between atoms: C_18  and  O_19
REMARK    8  A    between atoms: O_19  and  C_20
REMARK    9  A    between atoms: C_20  and  C_21
REMARK                            x       y       z     vdW  Elec       q    Type
REMARK                         _______ _______ _______ _____ _____    ______ ____
ROOT
ATOM      1  C   UNL     1      44.927   4.000  13.339  0.00  0.00    +0.000 C 
ATOM      2  C   UNL     1      44.626   4.899  12.180  0.00  0.00    +0.000 C 
ENDROOT
BRANCH   2   3
ATOM      3  C   UNL     1      44.833   4.385  10.809  0.00  0.00    +0.000 A 
ATOM      4  C   UNL     1      44.333   3.133  10.417  0.00  0.00    +0.000 A 
ATOM      5  C   UNL     1      44.493   2.671   9.102  0.00  0.00    +0.000 A 
ATOM      6  C   UNL     1      45.158   3.460   8.167  0.00  0.00    +0.000 A 
ATOM      7  C   UNL     1      45.666   4.699   8.552  0.00  0.00    +0.000 A 
ATOM      8  C   UNL     1      45.503   5.160   9.859  0.00  0.00    +0.000 A 
BRANCH   6   9
ATOM      9  O   UNL     1      45.435   3.120   6.877  0.00  0.00    +0.000 OA
BRANCH   9  10
ATOM     10  C   UNL     1      46.748   3.414   6.390  0.00  0.00    +0.000 C 
BRANCH  10  11
ATOM     11  C   UNL     1      47.558   2.126   6.240  0.00  0.00    +0.000 C 
ATOM     12  F   UNL     1      48.236   2.061   5.073  0.00  0.00    +0.000 F 
ATOM     13  F   UNL     1      48.465   2.011   7.239  0.00  0.00    +0.000 F 
ATOM     14  F   UNL     1      46.755   1.038   6.301  0.00  0.00    +0.000 F 
ENDBRANCH  10  11
ENDBRANCH   9  10
ENDBRANCH   6   9
ENDBRANCH   2   3
BRANCH   2  15
ATOM     15  C   UNL     1      44.786   6.385  12.349  0.00  0.00    +0.000 C 
BRANCH  15  16
ATOM     16  O   UNL     1      45.879   6.707  13.219  0.00  0.00    +0.000 OA
BRANCH  16  17
ATOM     17  C   UNL     1      46.776   7.594  12.680  0.00  0.00    +0.000 A 
ATOM     18  C   UNL     1      46.396   8.927  12.587  0.00  0.00    +0.000 A 
ATOM     19  N   UNL     1      47.189   9.915  12.094  0.00  0.00    +0.000 NA
ATOM     20  C   UNL     1      48.438   9.551  11.647  0.00  0.00    +0.000 A 
ATOM     21  C   UNL     1      48.890   8.236  11.671  0.00  0.00    +0.000 A 
ATOM     22 CL   UNL     1      50.429   7.697  11.112  0.00  0.00    +0.000 Cl
ATOM     23  C   UNL     1      48.036   7.255  12.188  0.00  0.00    +0.000 A 
BRANCH  20  24
ATOM     24  C   UNL     1      49.274  10.696  11.138  0.00  0.00    +0.000 C 
ATOM     25  N   UNL     1      50.401  10.962  11.873  0.00  0.00    +0.000 N 
ATOM     26  O   UNL     1      49.020  11.366  10.143  0.00  0.00    +0.000 OA
ATOM     27  H   UNL     1      50.615  10.403  12.687  0.00  0.00    +0.000 HD
ATOM     28  H   UNL     1      51.015  11.712  11.580  0.00  0.00    +0.000 HD
ENDBRANCH  20  24
ENDBRANCH  16  17
ENDBRANCH  15  16
ENDBRANCH   2  15
TORSDOF 8
ENDMDL
MODEL 6
REMARK VINA RESULT:    -5.940      5.603      8.803
REMARK INTER + INTRA:          -9.812
REMARK INTER:                  -8.624
REMARK INTRA:                  -1.188
REMARK UNBOUND:                -1.093
REMARK  Name = 
REMARK  9 active torsions:
REMARK  status: ('A' for Active; 'I' for Inactive)
REMARK    1  A    between atoms: C_1  and  C_2
REMARK    2  A    between atoms: C_2  and  C_3
REMARK    3  A    between atoms: C_2  and  C_15
REMARK    4  A    between atoms: C_3  and  O_4
REMARK    5  A    between atoms: O_4  and  C_5
REMARK    6  A    between atoms: C_8  and  C_9
REMARK    7  A    between atoms: C_18  and  O_19
REMARK    8  A    between atoms: O_19  and  C_20
REMARK    9  A    between atoms: C_20  and  C_21
REMARK                            x       y       z     vdW  Elec       q    Type
REMARK                         _______ _______ _______ _____ _____    ______ ____
ROOT
ATOM      1  C   UNL     1      49.192   8.758  11.839  0.00  0.00    +0.000 C 
ATOM      2  C   UNL     1      48.513   7.766  12.732  0.00  0.00    +0.000 C 
ENDROOT
BRANCH   2   3
ATOM      3  C   UNL     1      47.223   7.188  12.301  0.00  0.00    +0.000 A 
ATOM      4  C   UNL     1      47.089   6.552  11.057  0.00  0.00    +0.000 A 
ATOM      5  C   UNL     1      45.873   5.965  10.672  0.00  0.00    +0.000 A 
ATOM      6  C   UNL     1      44.779   6.011  11.533  0.00  0.00    +0.000 A 
ATOM      7  C   UNL     1      44.902   6.650  12.765  0.00  0.00    +0.000 A 
ATOM      8  C   UNL     1      46.112   7.230  13.148  0.00  0.00    +0.000 A 
BRANCH   6   9
ATOM      9  O   UNL     1      43.529   5.537  11.273  0.00  0.00    +0.000 OA
BRANCH   9  10
ATOM     10  C   UNL     1      43.422   4.181  10.828  0.00  0.00    +0.000 C 
BRANCH  10  11
ATOM     11  C   UNL     1      43.644   3.222  11.998  0.00  0.00    +0.000 C 
ATOM     12  F   UNL     1      44.949   2.948  12.217  0.00  0.00    +0.000 F 
ATOM     13  F   UNL     1      43.144   3.740  13.144  0.00  0.00    +0.000 F 
ATOM     14  F   UNL     1      43.015   2.041  11.784  0.00  0.00    +0.000 F 
ENDBRANCH  10  11
ENDBRANCH   9  10
ENDBRANCH   6   9
ENDBRANCH   2   3
BRANCH   2  15
ATOM     15  C   UNL     1      48.718   7.864  14.220  0.00  0.00    +0.000 C 
BRANCH  15  16
ATOM     16  O   UNL     1      49.527   6.791  14.718  0.00  0.00    +0.000 OA
BRANCH  16  17
ATOM     17  C   UNL     1      49.119   6.305  15.934  0.00  0.00    +0.000 A 
ATOM     18  C   UNL     1      49.506   6.998  17.074  0.00  0.00    +0.000 A 
ATOM     19  N   UNL     1      49.159   6.643  18.339  0.00  0.00    +0.000 NA
ATOM     20  C   UNL     1      48.388   5.514  18.483  0.00  0.00    +0.000 A 
ATOM     21  C   UNL     1      47.981   4.740  17.402  0.00  0.00    +0.000 A 
ATOM     22 CL   UNL     1      47.034   3.303  17.501  0.00  0.00    +0.000 Cl
ATOM     23  C   UNL     1      48.365   5.147  16.119  0.00  0.00    +0.000 A 
BRANCH  20  24
ATOM     24  C   UNL     1      48.018   5.191  19.908  0.00  0.00    +0.000 C 
ATOM     25  N   UNL     1      48.593   4.054  20.413  0.00  0.00    +0.000 N 
ATOM     26  O   UNL     1      47.271   5.863  20.611  0.00  0.00    +0.000 OA
ATOM     27  H   UNL     1      49.215   3.505  19.836  0.00  0.00    +0.000 HD
ATOM     28  H   UNL     1      48.395   3.784  21.368  0.00  0.00    +0.000 HD
ENDBRANCH  20  24
ENDBRANCH  16  17
ENDBRANCH  15  16
ENDBRANCH   2  15
TORSDOF 8
ENDMDL
MODEL 7
REMARK VINA RESULT:    -5.882      5.468      8.411
REMARK INTER + INTRA:          -9.726
REMARK INTER:                  -8.649
REMARK INTRA:                  -1.077
REMARK UNBOUND:                -1.093
REMARK  Name = 
REMARK  9 active torsions:
REMARK  status: ('A' for Active; 'I' for Inactive)
REMARK    1  A    between atoms: C_1  and  C_2
REMARK    2  A    between atoms: C_2  and  C_3
REMARK    3  A    between atoms: C_2  and  C_15
REMARK    4  A    between atoms: C_3  and  O_4
REMARK    5  A    between atoms: O_4  and  C_5
REMARK    6  A    between atoms: C_8  and  C_9
REMARK    7  A    between atoms: C_18  and  O_19
REMARK    8  A    between atoms: O_19  and  C_20
REMARK    9  A    between atoms: C_20  and  C_21
REMARK                            x       y       z     vdW  Elec       q    Type
REMARK                         _______ _______ _______ _____ _____    ______ ____
ROOT
ATOM      1  C   UNL     1      48.994  10.264  12.722  0.00  0.00    +0.000 C 
ATOM      2  C   UNL     1      48.918   8.778  12.894  0.00  0.00    +0.000 C 
ENDROOT
BRANCH   2   3
ATOM      3  C   UNL     1      47.644   8.092  12.591  0.00  0.00    +0.000 A 
ATOM      4  C   UNL     1      46.425   8.558  13.108  0.00  0.00    +0.000 A 
ATOM      5  C   UNL     1      45.213   7.929  12.779  0.00  0.00    +0.000 A 
ATOM      6  C   UNL     1      45.214   6.827  11.929  0.00  0.00    +0.000 A 
ATOM      7  C   UNL     1      46.422   6.352  11.421  0.00  0.00    +0.000 A 
ATOM      8  C   UNL     1      47.625   6.979  11.745  0.00  0.00    +0.000 A 
BRANCH   6   9
ATOM      9  O   UNL     1      44.128   6.086  11.570  0.00  0.00    +0.000 OA
BRANCH   9  10
ATOM     10  C   UNL     1      44.372   4.776  11.050  0.00  0.00    +0.000 C 
BRANCH  10  11
ATOM     11  C   UNL     1      44.006   3.717  12.091  0.00  0.00    +0.000 C 
ATOM     12  F   UNL     1      45.072   3.004  12.516  0.00  0.00    +0.000 F 
ATOM     13  F   UNL     1      43.445   4.291  13.181  0.00  0.00    +0.000 F 
ATOM     14  F   UNL     1      43.105   2.837  11.593  0.00  0.00    +0.000 F 
ENDBRANCH  10  11
ENDBRANCH   9  10
ENDBRANCH   6   9
ENDBRANCH   2   3
BRANCH   2  15
ATOM     15  C   UNL     1      49.780   8.120  13.937  0.00  0.00    +0.000 C 
BRANCH  15  16
ATOM     16  O   UNL     1      49.334   8.420  15.265  0.00  0.00    +0.000 OA
BRANCH  16  17
ATOM     17  C   UNL     1      48.890   7.327  15.964  0.00  0.00    +0.000 A 
ATOM     18  C   UNL     1      48.685   6.146  15.261  0.00  0.00    +0.000 A 
ATOM     19  N   UNL     1      48.267   4.983  15.827  0.00  0.00    +0.000 NA
ATOM     20  C   UNL     1      48.021   4.998  17.179  0.00  0.00    +0.000 A 
ATOM     21  C   UNL     1      48.168   6.142  17.957  0.00  0.00    +0.000 A 
ATOM     22 CL   UNL     1      47.860   6.247  19.650  0.00  0.00    +0.000 Cl
ATOM     23  C   UNL     1      48.600   7.315  17.328  0.00  0.00    +0.000 A 
BRANCH  20  24
ATOM     24  C   UNL     1      47.586   3.672  17.748  0.00  0.00    +0.000 C 
ATOM     25  N   UNL     1      48.400   3.167  18.728  0.00  0.00    +0.000 N 
ATOM     26  O   UNL     1      46.586   3.052  17.403  0.00  0.00    +0.000 OA
ATOM     27  H   UNL     1      49.219   3.683  19.019  0.00  0.00    +0.000 HD
ATOM     28  H   UNL     1      48.161   2.284  19.162  0.00  0.00    +0.000 HD
ENDBRANCH  20  24
ENDBRANCH  16  17
ENDBRANCH  15  16
ENDBRANCH   2  15
TORSDOF 8
ENDMDL
MODEL 8
REMARK VINA RESULT:    -5.847      5.553      8.873
REMARK INTER + INTRA:          -9.675
REMARK INTER:                  -8.679
REMARK INTRA:                  -0.996
REMARK UNBOUND:                -1.093
REMARK  Name = 
REMARK  9 active torsions:
REMARK  status: ('A' for Active; 'I' for Inactive)
REMARK    1  A    between atoms: C_1  and  C_2
REMARK    2  A    between atoms: C_2  and  C_3
REMARK    3  A    between atoms: C_2  and  C_15
REMARK    4  A    between atoms: C_3  and  O_4
REMARK    5  A    between atoms: O_4  and  C_5
REMARK    6  A    between atoms: C_8  and  C_9
REMARK    7  A    between atoms: C_18  and  O_19
REMARK    8  A    between atoms: O_19  and  C_20
REMARK    9  A    between atoms: C_20  and  C_21
REMARK                            x       y       z     vdW  Elec       q    Type
REMARK                         _______ _______ _______ _____ _____    ______ ____
ROOT
ATOM      1  C   UNL     1      49.302   8.349  11.982  0.00  0.00    +0.000 C 
ATOM      2  C   UNL     1      48.723   7.389  12.975  0.00  0.00    +0.000 C 
ENDROOT
BRANCH   2   3
ATOM      3  C   UNL     1      47.608   6.516  12.553  0.00  0.00    +0.000 A 
ATOM      4  C   UNL     1      47.244   5.385  13.301  0.00  0.00    +0.000 A 
ATOM      5  C   UNL     1      46.155   4.586  12.920  0.00  0.00    +0.000 A 
ATOM      6  C   UNL     1      45.420   4.913  11.783  0.00  0.00    +0.000 A 
ATOM      7  C   UNL     1      45.783   6.028  11.029  0.00  0.00    +0.000 A 
ATOM      8  C   UNL     1      46.863   6.824  11.411  0.00  0.00    +0.000 A 
BRANCH   6   9
ATOM      9  O   UNL     1      44.380   4.202  11.263  0.00  0.00    +0.000 OA
BRANCH   9  10
ATOM     10  C   UNL     1      44.119   4.352   9.864  0.00  0.00    +0.000 C 
BRANCH  10  11
ATOM     11  C   UNL     1      44.934   3.336   9.063  0.00  0.00    +0.000 C 
ATOM     12  F   UNL     1      45.416   2.328   9.823  0.00  0.00    +0.000 F 
ATOM     13  F   UNL     1      44.178   2.779   8.088  0.00  0.00    +0.000 F 
ATOM     14  F   UNL     1      45.992   3.928   8.461  0.00  0.00    +0.000 F 
ENDBRANCH  10  11
ENDBRANCH   9  10
ENDBRANCH   6   9
ENDBRANCH   2   3
BRANCH   2  15
ATOM     15  C   UNL     1      48.753   7.746  14.437  0.00  0.00    +0.000 C 
BRANCH  15  16
ATOM     16  O   UNL     1      49.813   7.073  15.127  0.00  0.00    +0.000 OA
BRANCH  16  17
ATOM     17  C   UNL     1      49.429   6.499  16.313  0.00  0.00    +0.000 A 
ATOM     18  C   UNL     1      49.926   7.046  17.490  0.00  0.00    +0.000 A 
ATOM     19  N   UNL     1      49.615   6.593  18.733  0.00  0.00    +0.000 NA
ATOM     20  C   UNL     1      48.767   5.514  18.813  0.00  0.00    +0.000 A 
ATOM     21  C   UNL     1      48.248   4.882  17.687  0.00  0.00    +0.000 A 
ATOM     22 CL   UNL     1      47.198   3.515  17.702  0.00  0.00    +0.000 Cl
ATOM     23  C   UNL     1      48.598   5.386  16.429  0.00  0.00    +0.000 A 
BRANCH  20  24
ATOM     24  C   UNL     1      48.443   5.079  20.218  0.00  0.00    +0.000 C 
ATOM     25  N   UNL     1      47.172   5.374  20.638  0.00  0.00    +0.000 N 
ATOM     26  O   UNL     1      49.216   4.495  20.970  0.00  0.00    +0.000 OA
ATOM     27  H   UNL     1      46.532   5.847  20.014  0.00  0.00    +0.000 HD
ATOM     28  H   UNL     1      46.884   5.100  21.569  0.00  0.00    +0.000 HD
ENDBRANCH  20  24
ENDBRANCH  16  17
ENDBRANCH  15  16
ENDBRANCH   2  15
TORSDOF 8
ENDMDL
MODEL 9
REMARK VINA RESULT:    -5.635      5.433      8.297
REMARK INTER + INTRA:          -9.364
REMARK INTER:                  -8.035
REMARK INTRA:                  -1.329
REMARK UNBOUND:                -1.093
REMARK  Name = 
REMARK  9 active torsions:
REMARK  status: ('A' for Active; 'I' for Inactive)
REMARK    1  A    between atoms: C_1  and  C_2
REMARK    2  A    between atoms: C_2  and  C_3
REMARK    3  A    between atoms: C_2  and  C_15
REMARK    4  A    between atoms: C_3  and  O_4
REMARK    5  A    between atoms: O_4  and  C_5
REMARK    6  A    between atoms: C_8  and  C_9
REMARK    7  A    between atoms: C_18  and  O_19
REMARK    8  A    between atoms: O_19  and  C_20
REMARK    9  A    between atoms: C_20  and  C_21
REMARK                            x       y       z     vdW  Elec       q    Type
REMARK                         _______ _______ _______ _____ _____    ______ ____
ROOT
ATOM      1  C   UNL     1      48.683  10.369  12.231  0.00  0.00    +0.000 C 
ATOM      2  C   UNL     1      48.767   8.885  12.415  0.00  0.00    +0.000 C 
ENDROOT
BRANCH   2   3
ATOM      3  C   UNL     1      47.526   8.086  12.329  0.00  0.00    +0.000 A 
ATOM      4  C   UNL     1      47.554   6.736  11.948  0.00  0.00    +0.000 A 
ATOM      5  C   UNL     1      46.378   5.971  11.912  0.00  0.00    +0.000 A 
ATOM      6  C   UNL     1      45.162   6.554  12.259  0.00  0.00    +0.000 A 
ATOM      7  C   UNL     1      45.125   7.897  12.627  0.00  0.00    +0.000 A 
ATOM      8  C   UNL     1      46.295   8.656  12.666  0.00  0.00    +0.000 A 
BRANCH   6   9
ATOM      9  O   UNL     1      43.939   5.954  12.216  0.00  0.00    +0.000 OA
BRANCH   9  10
ATOM     10  C   UNL     1      43.856   4.605  12.687  0.00  0.00    +0.000 C 
BRANCH  10  11
ATOM     11  C   UNL     1      43.770   3.637  11.506  0.00  0.00    +0.000 C 
ATOM     12  F   UNL     1      43.347   4.230  10.367  0.00  0.00    +0.000 F 
ATOM     13  F   UNL     1      44.979   3.086  11.249  0.00  0.00    +0.000 F 
ATOM     14  F   UNL     1      42.915   2.621  11.772  0.00  0.00    +0.000 F 
ENDBRANCH  10  11
ENDBRANCH   9  10
ENDBRANCH   6   9
ENDBRANCH   2   3
BRANCH   2  15
ATOM     15  C   UNL     1      49.845   8.320  13.300  0.00  0.00    +0.000 C 
BRANCH  15  16
ATOM     16  O   UNL     1      49.536   8.489  14.689  0.00  0.00    +0.000 OA
BRANCH  16  17
ATOM     17  C   UNL     1      49.559   7.323  15.411  0.00  0.00    +0.000 A 
ATOM     18  C   UNL     1      50.769   6.926  15.966  0.00  0.00    +0.000 A 
ATOM     19  N   UNL     1      50.934   5.806  16.718  0.00  0.00    +0.000 NA
ATOM     20  C   UNL     1      49.825   5.018  16.919  0.00  0.00    +0.000 A 
ATOM     21  C   UNL     1      48.581   5.320  16.375  0.00  0.00    +0.000 A 
ATOM     22 CL   UNL     1      47.151   4.375  16.564  0.00  0.00    +0.000 Cl
ATOM     23  C   UNL     1      48.463   6.484  15.607  0.00  0.00    +0.000 A 
BRANCH  20  24
ATOM     24  C   UNL     1      50.070   3.808  17.783  0.00  0.00    +0.000 C 
ATOM     25  N   UNL     1      49.633   3.921  19.077  0.00  0.00    +0.000 N 
ATOM     26  O   UNL     1      50.606   2.772  17.406  0.00  0.00    +0.000 OA
ATOM     27  H   UNL     1      49.182   4.772  19.384  0.00  0.00    +0.000 HD
ATOM     28  H   UNL     1      49.756   3.140  19.709  0.00  0.00    +0.000 HD
ENDBRANCH  20  24
ENDBRANCH  16  17
ENDBRANCH  15  16
ENDBRANCH   2  15
TORSDOF 8
ENDMDL
