MODEL 1
REMARK VINA RESULT:    -7.513      0.000      0.000
REMARK INTER + INTRA:          -9.664
REMARK INTER:                  -9.270
REMARK INTRA:                  -0.394
REMARK UNBOUND:                -0.394
REMARK  Name = 
REMARK  5 active torsions:
REMARK  status: ('A' for Active; 'I' for Inactive)
REMARK    1  A    between atoms: C_1  and  O_2
REMARK    2  A    between atoms: O_2  and  C_3
REMARK    3  A    between atoms: C_5  and  C_6
REMARK    4  A    between atoms: N_12  and  C_13
REMARK    5  A    between atoms: C_13  and  C_14
REMARK                            x       y       z     vdW  Elec       q    Type
REMARK                         _______ _______ _______ _____ _____    ______ ____
ROOT
ATOM      1  C   UNL     1      46.919   6.410  12.735  0.00  0.00    +0.000 A 
ATOM      2  C   UNL     1      47.237   6.035  14.047  0.00  0.00    +0.000 A 
ATOM      3  C   UNL     1      46.840   4.780  14.569  0.00  0.00    +0.000 A 
ATOM      4  N   UNL     1      46.122   3.792  13.927  0.00  0.00    +0.000 NA
ATOM      5  C   UNL     1      45.811   4.179  12.668  0.00  0.00    +0.000 A 
ATOM      6  C   UNL     1      45.110   3.448  11.751  0.00  0.00    +0.000 A 
ATOM      7  N   UNL     1      45.055   4.242  10.641  0.00  0.00    +0.000 N 
ATOM      8  N   UNL     1      45.684   5.432  10.780  0.00  0.00    +0.000 NA
ATOM      9  C   UNL     1      46.168   5.432  12.040  0.00  0.00    +0.000 A 
ENDROOT
BRANCH   3  10
ATOM     10  C   UNL     1      47.236   4.478  15.989  0.00  0.00    +0.000 C 
ATOM     11  N   UNL     1      47.968   5.443  16.624  0.00  0.00    +0.000 N 
ATOM     12  O   UNL     1      46.927   3.438  16.552  0.00  0.00    +0.000 OA
ATOM     13  H   UNL     1      48.224   6.294  16.138  0.00  0.00    +0.000 HD
ATOM     14  H   UNL     1      48.271   5.283  17.575  0.00  0.00    +0.000 HD
ENDBRANCH   3  10
BRANCH   1  16
ATOM     15  C   UNL     1      48.582   7.713  11.686  0.00  0.00    +0.000 C 
ATOM     16  O   UNL     1      47.238   7.597  12.142  0.00  0.00    +0.000 OA
ENDBRANCH   1  16
BRANCH   7  17
ATOM     17  C   UNL     1      44.469   3.894   9.349  0.00  0.00    +0.000 C 
BRANCH  17  18
ATOM     18  C   UNL     1      45.381   3.053   8.517  0.00  0.00    +0.000 A 
ATOM     19  C   UNL     1      45.594   1.709   8.759  0.00  0.00    +0.000 A 
ATOM     20  N   UNL     1      46.397   0.930   8.007  0.00  0.00    +0.000 NA
ATOM     21  C   UNL     1      47.000   1.535   6.973  0.00  0.00    +0.000 A 
ATOM     22  N   UNL     1      46.861   2.824   6.629  0.00  0.00    +0.000 NA
ATOM     23  C   UNL     1      46.045   3.554   7.414  0.00  0.00    +0.000 A 
ENDBRANCH  17  18
ENDBRANCH   7  17
TORSDOF 4
ENDMDL
MODEL 2
REMARK VINA RESULT:    -7.480      0.564      1.212
REMARK INTER + INTRA:          -9.623
REMARK INTER:                  -9.335
REMARK INTRA:                  -0.289
REMARK UNBOUND:                -0.394
REMARK  Name = 
REMARK  5 active torsions:
REMARK  status: ('A' for Active; 'I' for Inactive)
REMARK    1  A    between atoms: C_1  and  O_2
REMARK    2  A    between atoms: O_2  and  C_3
REMARK    3  A    between atoms: C_5  and  C_6
REMARK    4  A    between atoms: N_12  and  C_13
REMARK    5  A    between atoms: C_13  and  C_14
REMARK                            x       y       z     vdW  Elec       q    Type
REMARK                         _______ _______ _______ _____ _____    ______ ____
ROOT
ATOM      1  C   UNL     1      46.766   6.463  12.677  0.00  0.00    +0.000 A 
ATOM      2  C   UNL     1      47.120   6.051  13.970  0.00  0.00    +0.000 A 
ATOM      3  C   UNL     1      46.816   4.749  14.434  0.00  0.00    +0.000 A 
ATOM      4  N   UNL     1      46.165   3.743  13.751  0.00  0.00    +0.000 NA
ATOM      5  C   UNL     1      45.817   4.164  12.513  0.00  0.00    +0.000 A 
ATOM      6  C   UNL     1      45.161   3.429  11.567  0.00  0.00    +0.000 A 
ATOM      7  N   UNL     1      45.042   4.267  10.495  0.00  0.00    +0.000 N 
ATOM      8  N   UNL     1      45.586   5.490  10.686  0.00  0.00    +0.000 NA
ATOM      9  C   UNL     1      46.080   5.467  11.942  0.00  0.00    +0.000 A 
ENDROOT
BRANCH   3  10
ATOM     10  C   UNL     1      47.245   4.411  15.837  0.00  0.00    +0.000 C 
ATOM     11  N   UNL     1      47.747   5.447  16.576  0.00  0.00    +0.000 N 
ATOM     12  O   UNL     1      47.152   3.283  16.301  0.00  0.00    +0.000 OA
ATOM     13  H   UNL     1      47.826   6.372  16.171  0.00  0.00    +0.000 HD
ATOM     14  H   UNL     1      48.062   5.269  17.519  0.00  0.00    +0.000 HD
ENDBRANCH   3  10
BRANCH   1  16
ATOM     15  C   UNL     1      46.037   8.696  12.466  0.00  0.00    +0.000 C 
ATOM     16  O   UNL     1      46.996   7.695  12.139  0.00  0.00    +0.000 OA
ENDBRANCH   1  16
BRANCH   7  17
ATOM     17  C   UNL     1      44.471   3.938   9.192  0.00  0.00    +0.000 C 
BRANCH  17  18
ATOM     18  C   UNL     1      45.375   3.072   8.375  0.00  0.00    +0.000 A 
ATOM     19  C   UNL     1      46.057   3.534   7.266  0.00  0.00    +0.000 A 
ATOM     20  N   UNL     1      46.892   2.774   6.529  0.00  0.00    +0.000 NA
ATOM     21  C   UNL     1      47.042   1.505   6.937  0.00  0.00    +0.000 A 
ATOM     22  N   UNL     1      46.449   0.947   8.002  0.00  0.00    +0.000 NA
ATOM     23  C   UNL     1      45.627   1.754   8.702  0.00  0.00    +0.000 A 
ENDBRANCH  17  18
ENDBRANCH   7  17
TORSDOF 4
ENDMDL
MODEL 3
REMARK VINA RESULT:    -7.309      1.841      3.324
REMARK INTER + INTRA:          -9.412
REMARK INTER:                  -9.160
REMARK INTRA:                  -0.252
REMARK UNBOUND:                -0.394
REMARK  Name = 
REMARK  5 active torsions:
REMARK  status: ('A' for Active; 'I' for Inactive)
REMARK    1  A    between atoms: C_1  and  O_2
REMARK    2  A    between atoms: O_2  and  C_3
REMARK    3  A    between atoms: C_5  and  C_6
REMARK    4  A    between atoms: N_12  and  C_13
REMARK    5  A    between atoms: C_13  and  C_14
REMARK                            x       y       z     vdW  Elec       q    Type
REMARK                         _______ _______ _______ _____ _____    ______ ____
ROOT
ATOM      1  C   UNL     1      45.990   4.795  13.246  0.00  0.00    +0.000 A 
ATOM      2  C   UNL     1      46.006   6.173  13.503  0.00  0.00    +0.000 A 
ATOM      3  C   UNL     1      45.589   7.106  12.524  0.00  0.00    +0.000 A 
ATOM      4  N   UNL     1      45.137   6.842  11.247  0.00  0.00    +0.000 NA
ATOM      5  C   UNL     1      45.144   5.509  11.013  0.00  0.00    +0.000 A 
ATOM      6  C   UNL     1      44.758   4.892   9.857  0.00  0.00    +0.000 A 
ATOM      7  N   UNL     1      44.934   3.560  10.097  0.00  0.00    +0.000 N 
ATOM      8  N   UNL     1      45.398   3.277  11.335  0.00  0.00    +0.000 NA
ATOM      9  C   UNL     1      45.547   4.474  11.941  0.00  0.00    +0.000 A 
ENDROOT
BRANCH   3  10
ATOM     10  C   UNL     1      45.644   8.561  12.906  0.00  0.00    +0.000 C 
ATOM     11  N   UNL     1      46.515   8.884  13.909  0.00  0.00    +0.000 N 
ATOM     12  O   UNL     1      44.959   9.413  12.357  0.00  0.00    +0.000 OA
ATOM     13  H   UNL     1      47.067   8.164  14.359  0.00  0.00    +0.000 HD
ATOM     14  H   UNL     1      46.579   9.846  14.213  0.00  0.00    +0.000 HD
ENDBRANCH   3  10
BRANCH   1  16
ATOM     15  C   UNL     1      47.160   4.254  15.221  0.00  0.00    +0.000 C 
ATOM     16  O   UNL     1      46.384   3.815  14.110  0.00  0.00    +0.000 OA
ENDBRANCH   1  16
BRANCH   7  17
ATOM     17  C   UNL     1      44.602   2.460   9.194  0.00  0.00    +0.000 C 
BRANCH  17  18
ATOM     18  C   UNL     1      45.625   2.274   8.122  0.00  0.00    +0.000 A 
ATOM     19  C   UNL     1      45.890   3.230   7.161  0.00  0.00    +0.000 A 
ATOM     20  N   UNL     1      46.824   3.088   6.199  0.00  0.00    +0.000 NA
ATOM     21  C   UNL     1      47.514   1.938   6.217  0.00  0.00    +0.000 A 
ATOM     22  N   UNL     1      47.359   0.945   7.104  0.00  0.00    +0.000 NA
ATOM     23  C   UNL     1      46.414   1.141   8.044  0.00  0.00    +0.000 A 
ENDBRANCH  17  18
ENDBRANCH   7  17
TORSDOF 4
ENDMDL
MODEL 4
REMARK VINA RESULT:    -6.886      1.526      3.088
REMARK INTER + INTRA:          -8.890
REMARK INTER:                  -8.462
REMARK INTRA:                  -0.428
REMARK UNBOUND:                -0.394
REMARK  Name = 
REMARK  5 active torsions:
REMARK  status: ('A' for Active; 'I' for Inactive)
REMARK    1  A    between atoms: C_1  and  O_2
REMARK    2  A    between atoms: O_2  and  C_3
REMARK    3  A    between atoms: C_5  and  C_6
REMARK    4  A    between atoms: N_12  and  C_13
REMARK    5  A    between atoms: C_13  and  C_14
REMARK                            x       y       z     vdW  Elec       q    Type
REMARK                         _______ _______ _______ _____ _____    ______ ____
ROOT
ATOM      1  C   UNL     1      46.765   4.805  13.769  0.00  0.00    +0.000 A 
ATOM      2  C   UNL     1      47.332   6.013  14.200  0.00  0.00    +0.000 A 
ATOM      3  C   UNL     1      47.273   7.179  13.399  0.00  0.00    +0.000 A 
ATOM      4  N   UNL     1      46.697   7.315  12.153  0.00  0.00    +0.000 NA
ATOM      5  C   UNL     1      46.169   6.136  11.747  0.00  0.00    +0.000 A 
ATOM      6  C   UNL     1      45.522   5.908  10.567  0.00  0.00    +0.000 A 
ATOM      7  N   UNL     1      45.170   4.589  10.612  0.00  0.00    +0.000 N 
ATOM      8  N   UNL     1      45.541   3.956  11.748  0.00  0.00    +0.000 NA
ATOM      9  C   UNL     1      46.175   4.892  12.486  0.00  0.00    +0.000 A 
ENDROOT
BRANCH   3  10
ATOM     10  C   UNL     1      47.912   8.421  13.960  0.00  0.00    +0.000 C 
ATOM     11  N   UNL     1      47.200   9.078  14.924  0.00  0.00    +0.000 N 
ATOM     12  O   UNL     1      49.003   8.826  13.585  0.00  0.00    +0.000 OA
ATOM     13  H   UNL     1      46.293   8.733  15.214  0.00  0.00    +0.000 HD
ATOM     14  H   UNL     1      47.579   9.925  15.323  0.00  0.00    +0.000 HD
ENDBRANCH   3  10
BRANCH   1  16
ATOM     15  C   UNL     1      47.364   3.676  15.751  0.00  0.00    +0.000 C 
ATOM     16  O   UNL     1      46.781   3.625  14.452  0.00  0.00    +0.000 OA
ENDBRANCH   1  16
BRANCH   7  17
ATOM     17  C   UNL     1      44.393   3.860   9.613  0.00  0.00    +0.000 C 
BRANCH  17  18
ATOM     18  C   UNL     1      45.257   3.076   8.679  0.00  0.00    +0.000 A 
ATOM     19  C   UNL     1      45.895   3.641   7.592  0.00  0.00    +0.000 A 
ATOM     20  N   UNL     1      46.695   2.954   6.752  0.00  0.00    +0.000 NA
ATOM     21  C   UNL     1      46.854   1.651   7.028  0.00  0.00    +0.000 A 
ATOM     22  N   UNL     1      46.301   0.994   8.058  0.00  0.00    +0.000 NA
ATOM     23  C   UNL     1      45.514   1.731   8.866  0.00  0.00    +0.000 A 
ENDBRANCH  17  18
ENDBRANCH   7  17
TORSDOF 4
ENDMDL
MODEL 5
REMARK VINA RESULT:    -6.510      1.978      3.351
REMARK INTER + INTRA:          -8.426
REMARK INTER:                  -8.123
REMARK INTRA:                  -0.303
REMARK UNBOUND:                -0.394
REMARK  Name = 
REMARK  5 active torsions:
REMARK  status: ('A' for Active; 'I' for Inactive)
REMARK    1  A    between atoms: C_1  and  O_2
REMARK    2  A    between atoms: O_2  and  C_3
REMARK    3  A    between atoms: C_5  and  C_6
REMARK    4  A    between atoms: N_12  and  C_13
REMARK    5  A    between atoms: C_13  and  C_14
REMARK                            x       y       z     vdW  Elec       q    Type
REMARK                         _______ _______ _______ _____ _____    ______ ____
ROOT
ATOM      1  C   UNL     1      47.192   4.513  15.392  0.00  0.00    +0.000 A 
ATOM      2  C   UNL     1      48.180   5.447  15.733  0.00  0.00    +0.000 A 
ATOM      3  C   UNL     1      48.480   6.541  14.887  0.00  0.00    +0.000 A 
ATOM      4  N   UNL     1      47.901   6.849  13.673  0.00  0.00    +0.000 NA
ATOM      5  C   UNL     1      46.962   5.927  13.352  0.00  0.00    +0.000 A 
ATOM      6  C   UNL     1      46.193   5.921  12.224  0.00  0.00    +0.000 A 
ATOM      7  N   UNL     1      45.401   4.815  12.349  0.00  0.00    +0.000 N 
ATOM      8  N   UNL     1      45.604   4.114  13.488  0.00  0.00    +0.000 NA
ATOM      9  C   UNL     1      46.580   4.778  14.144  0.00  0.00    +0.000 A 
ENDROOT
BRANCH   3  10
ATOM     10  C   UNL     1      49.556   7.485  15.352  0.00  0.00    +0.000 C 
ATOM     11  N   UNL     1      50.815   7.237  14.879  0.00  0.00    +0.000 N 
ATOM     12  O   UNL     1      49.330   8.422  16.104  0.00  0.00    +0.000 OA
ATOM     13  H   UNL     1      50.985   6.450  14.265  0.00  0.00    +0.000 HD
ATOM     14  H   UNL     1      51.576   7.834  15.173  0.00  0.00    +0.000 HD
ENDBRANCH   3  10
BRANCH   1  16
ATOM     15  C   UNL     1      47.666   3.141  17.251  0.00  0.00    +0.000 C 
ATOM     16  O   UNL     1      46.839   3.418  16.125  0.00  0.00    +0.000 OA
ENDBRANCH   1  16
BRANCH   7  17
ATOM     17  C   UNL     1      44.346   4.390  11.432  0.00  0.00    +0.000 C 
BRANCH  17  18
ATOM     18  C   UNL     1      44.889   3.855  10.147  0.00  0.00    +0.000 A 
ATOM     19  C   UNL     1      44.989   2.503   9.879  0.00  0.00    +0.000 A 
ATOM     20  N   UNL     1      45.457   2.002   8.718  0.00  0.00    +0.000 NA
ATOM     21  C   UNL     1      45.831   2.904   7.799  0.00  0.00    +0.000 A 
ATOM     22  N   UNL     1      45.767   4.236   7.936  0.00  0.00    +0.000 NA
ATOM     23  C   UNL     1      45.290   4.681   9.115  0.00  0.00    +0.000 A 
ENDBRANCH  17  18
ENDBRANCH   7  17
TORSDOF 4
ENDMDL
MODEL 6
REMARK VINA RESULT:    -6.203      2.464      3.330
REMARK INTER + INTRA:          -8.048
REMARK INTER:                  -7.649
REMARK INTRA:                  -0.400
REMARK UNBOUND:                -0.394
REMARK  Name = 
REMARK  5 active torsions:
REMARK  status: ('A' for Active; 'I' for Inactive)
REMARK    1  A    between atoms: C_1  and  O_2
REMARK    2  A    between atoms: O_2  and  C_3
REMARK    3  A    between atoms: C_5  and  C_6
REMARK    4  A    between atoms: N_12  and  C_13
REMARK    5  A    between atoms: C_13  and  C_14
REMARK                            x       y       z     vdW  Elec       q    Type
REMARK                         _______ _______ _______ _____ _____    ______ ____
ROOT
ATOM      1  C   UNL     1      44.072   5.686  12.307  0.00  0.00    +0.000 A 
ATOM      2  C   UNL     1      44.911   6.608  12.949  0.00  0.00    +0.000 A 
ATOM      3  C   UNL     1      46.100   7.069  12.335  0.00  0.00    +0.000 A 
ATOM      4  N   UNL     1      46.601   6.715  11.099  0.00  0.00    +0.000 NA
ATOM      5  C   UNL     1      45.787   5.813  10.502  0.00  0.00    +0.000 A 
ATOM      6  C   UNL     1      45.975   5.248   9.273  0.00  0.00    +0.000 A 
ATOM      7  N   UNL     1      44.903   4.419   9.104  0.00  0.00    +0.000 N 
ATOM      8  N   UNL     1      44.032   4.420  10.139  0.00  0.00    +0.000 NA
ATOM      9  C   UNL     1      44.554   5.280  11.040  0.00  0.00    +0.000 A 
ENDROOT
BRANCH   3  10
ATOM     10  C   UNL     1      46.925   8.060  13.112  0.00  0.00    +0.000 C 
ATOM     11  N   UNL     1      47.521   7.584  14.247  0.00  0.00    +0.000 N 
ATOM     12  O   UNL     1      47.064   9.222  12.758  0.00  0.00    +0.000 OA
ATOM     13  H   UNL     1      47.386   6.621  14.529  0.00  0.00    +0.000 HD
ATOM     14  H   UNL     1      48.074   8.212  14.811  0.00  0.00    +0.000 HD
ENDBRANCH   3  10
BRANCH   1  16
ATOM     15  C   UNL     1      43.068   3.992  13.605  0.00  0.00    +0.000 C 
ATOM     16  O   UNL     1      42.917   5.167  12.814  0.00  0.00    +0.000 OA
ENDBRANCH   1  16
BRANCH   7  17
ATOM     17  C   UNL     1      44.594   3.627   7.916  0.00  0.00    +0.000 C 
BRANCH  17  18
ATOM     18  C   UNL     1      45.778   2.869   7.412  0.00  0.00    +0.000 A 
ATOM     19  C   UNL     1      46.224   1.697   7.994  0.00  0.00    +0.000 A 
ATOM     20  N   UNL     1      47.278   0.989   7.541  0.00  0.00    +0.000 NA
ATOM     21  C   UNL     1      47.896   1.485   6.459  0.00  0.00    +0.000 A 
ATOM     22  N   UNL     1      47.549   2.600   5.799  0.00  0.00    +0.000 NA
ATOM     23  C   UNL     1      46.488   3.266   6.294  0.00  0.00    +0.000 A 
ENDBRANCH  17  18
ENDBRANCH   7  17
TORSDOF 4
ENDMDL
MODEL 7
REMARK VINA RESULT:    -6.021      2.924      6.989
REMARK INTER + INTRA:          -7.823
REMARK INTER:                  -7.602
REMARK INTRA:                  -0.221
REMARK UNBOUND:                -0.394
REMARK  Name = 
REMARK  5 active torsions:
REMARK  status: ('A' for Active; 'I' for Inactive)
REMARK    1  A    between atoms: C_1  and  O_2
REMARK    2  A    between atoms: O_2  and  C_3
REMARK    3  A    between atoms: C_5  and  C_6
REMARK    4  A    between atoms: N_12  and  C_13
REMARK    5  A    between atoms: C_13  and  C_14
REMARK                            x       y       z     vdW  Elec       q    Type
REMARK                         _______ _______ _______ _____ _____    ______ ____
ROOT
ATOM      1  C   UNL     1      47.405   6.440  13.077  0.00  0.00    +0.000 A 
ATOM      2  C   UNL     1      46.452   5.909  12.196  0.00  0.00    +0.000 A 
ATOM      3  C   UNL     1      45.736   4.730  12.514  0.00  0.00    +0.000 A 
ATOM      4  N   UNL     1      45.847   3.959  13.652  0.00  0.00    +0.000 NA
ATOM      5  C   UNL     1      46.783   4.477  14.482  0.00  0.00    +0.000 A 
ATOM      6  C   UNL     1      47.151   3.971  15.696  0.00  0.00    +0.000 A 
ATOM      7  N   UNL     1      48.110   4.829  16.154  0.00  0.00    +0.000 N 
ATOM      8  N   UNL     1      48.377   5.859  15.318  0.00  0.00    +0.000 NA
ATOM      9  C   UNL     1      47.567   5.671  14.254  0.00  0.00    +0.000 A 
ENDROOT
BRANCH   3  10
ATOM     10  C   UNL     1      44.734   4.250  11.498  0.00  0.00    +0.000 C 
ATOM     11  N   UNL     1      44.506   2.902  11.473  0.00  0.00    +0.000 N 
ATOM     12  O   UNL     1      44.151   5.010  10.737  0.00  0.00    +0.000 OA
ATOM     13  H   UNL     1      45.006   2.287  12.103  0.00  0.00    +0.000 HD
ATOM     14  H   UNL     1      43.853   2.527  10.799  0.00  0.00    +0.000 HD
ENDBRANCH   3  10
BRANCH   1  16
ATOM     15  C   UNL     1      49.404   7.337  12.205  0.00  0.00    +0.000 C 
ATOM     16  O   UNL     1      48.160   7.556  12.862  0.00  0.00    +0.000 OA
ENDBRANCH   1  16
BRANCH   7  17
ATOM     17  C   UNL     1      48.784   4.772  17.449  0.00  0.00    +0.000 C 
BRANCH  17  18
ATOM     18  C   UNL     1      49.869   3.745  17.481  0.00  0.00    +0.000 A 
ATOM     19  C   UNL     1      49.666   2.426  17.125  0.00  0.00    +0.000 A 
ATOM     20  N   UNL     1      50.638   1.491  17.128  0.00  0.00    +0.000 NA
ATOM     21  C   UNL     1      51.855   1.912  17.502  0.00  0.00    +0.000 A 
ATOM     22  N   UNL     1      52.178   3.164  17.855  0.00  0.00    +0.000 NA
ATOM     23  C   UNL     1      51.169   4.057  17.831  0.00  0.00    +0.000 A 
ENDBRANCH  17  18
ENDBRANCH   7  17
TORSDOF 4
ENDMDL
MODEL 8
REMARK VINA RESULT:    -5.633      3.045      6.444
REMARK INTER + INTRA:          -7.345
REMARK INTER:                  -7.093
REMARK INTRA:                  -0.252
REMARK UNBOUND:                -0.394
REMARK  Name = 
REMARK  5 active torsions:
REMARK  status: ('A' for Active; 'I' for Inactive)
REMARK    1  A    between atoms: C_1  and  O_2
REMARK    2  A    between atoms: O_2  and  C_3
REMARK    3  A    between atoms: C_5  and  C_6
REMARK    4  A    between atoms: N_12  and  C_13
REMARK    5  A    between atoms: C_13  and  C_14
REMARK                            x       y       z     vdW  Elec       q    Type
REMARK                         _______ _______ _______ _____ _____    ______ ____
ROOT
ATOM      1  C   UNL     1      46.841   3.808  13.673  0.00  0.00    +0.000 A 
ATOM      2  C   UNL     1      45.812   3.267  12.890  0.00  0.00    +0.000 A 
ATOM      3  C   UNL     1      45.047   4.080  12.020  0.00  0.00    +0.000 A 
ATOM      4  N   UNL     1      45.169   5.438  11.813  0.00  0.00    +0.000 NA
ATOM      5  C   UNL     1      46.156   5.945  12.588  0.00  0.00    +0.000 A 
ATOM      6  C   UNL     1      46.550   7.252  12.637  0.00  0.00    +0.000 A 
ATOM      7  N   UNL     1      47.569   7.274  13.546  0.00  0.00    +0.000 N 
ATOM      8  N   UNL     1      47.862   6.066  14.079  0.00  0.00    +0.000 NA
ATOM      9  C   UNL     1      46.994   5.205  13.506  0.00  0.00    +0.000 A 
ENDROOT
BRANCH   3  10
ATOM     10  C   UNL     1      43.968   3.395  11.224  0.00  0.00    +0.000 C 
ATOM     11  N   UNL     1      43.454   2.252  11.772  0.00  0.00    +0.000 N 
ATOM     12  O   UNL     1      43.566   3.826  10.152  0.00  0.00    +0.000 OA
ATOM     13  H   UNL     1      43.807   1.905  12.655  0.00  0.00    +0.000 HD
ATOM     14  H   UNL     1      42.737   1.747  11.270  0.00  0.00    +0.000 HD
ENDBRANCH   3  10
BRANCH   1  16
ATOM     15  C   UNL     1      47.467   3.476  15.922  0.00  0.00    +0.000 C 
ATOM     16  O   UNL     1      47.624   3.120  14.552  0.00  0.00    +0.000 OA
ENDBRANCH   1  16
BRANCH   7  17
ATOM     17  C   UNL     1      48.382   8.430  13.915  0.00  0.00    +0.000 C 
BRANCH  17  18
ATOM     18  C   UNL     1      49.365   8.798  12.851  0.00  0.00    +0.000 A 
ATOM     19  C   UNL     1      49.225   9.917  12.053  0.00  0.00    +0.000 A 
ATOM     20  N   UNL     1      50.111  10.276  11.103  0.00  0.00    +0.000 NA
ATOM     21  C   UNL     1      51.177   9.473  10.962  0.00  0.00    +0.000 A 
ATOM     22  N   UNL     1      51.431   8.373  11.684  0.00  0.00    +0.000 NA
ATOM     23  C   UNL     1      50.513   8.063  12.621  0.00  0.00    +0.000 A 
ENDBRANCH  17  18
ENDBRANCH   7  17
TORSDOF 4
ENDMDL
MODEL 9
REMARK VINA RESULT:    -5.619      3.207      7.093
REMARK INTER + INTRA:          -7.327
REMARK INTER:                  -6.895
REMARK INTRA:                  -0.432
REMARK UNBOUND:                -0.394
REMARK  Name = 
REMARK  5 active torsions:
REMARK  status: ('A' for Active; 'I' for Inactive)
REMARK    1  A    between atoms: C_1  and  O_2
REMARK    2  A    between atoms: O_2  and  C_3
REMARK    3  A    between atoms: C_5  and  C_6
REMARK    4  A    between atoms: N_12  and  C_13
REMARK    5  A    between atoms: C_13  and  C_14
REMARK                            x       y       z     vdW  Elec       q    Type
REMARK                         _______ _______ _______ _____ _____    ______ ____
ROOT
ATOM      1  C   UNL     1      46.809   3.885  13.612  0.00  0.00    +0.000 A 
ATOM      2  C   UNL     1      45.587   3.437  13.090  0.00  0.00    +0.000 A 
ATOM      3  C   UNL     1      44.876   4.197  12.130  0.00  0.00    +0.000 A 
ATOM      4  N   UNL     1      45.232   5.415  11.591  0.00  0.00    +0.000 NA
ATOM      5  C   UNL     1      46.404   5.839  12.118  0.00  0.00    +0.000 A 
ATOM      6  C   UNL     1      47.052   7.001  11.811  0.00  0.00    +0.000 A 
ATOM      7  N   UNL     1      48.180   6.986  12.581  0.00  0.00    +0.000 N 
ATOM      8  N   UNL     1      48.305   5.885  13.357  0.00  0.00    +0.000 NA
ATOM      9  C   UNL     1      47.208   5.142  13.098  0.00  0.00    +0.000 A 
ENDROOT
BRANCH   3  10
ATOM     10  C   UNL     1      43.576   3.621  11.635  0.00  0.00    +0.000 C 
ATOM     11  N   UNL     1      43.445   2.263  11.738  0.00  0.00    +0.000 N 
ATOM     12  O   UNL     1      42.683   4.314  11.170  0.00  0.00    +0.000 OA
ATOM     13  H   UNL     1      44.200   1.704  12.117  0.00  0.00    +0.000 HD
ATOM     14  H   UNL     1      42.597   1.826  11.407  0.00  0.00    +0.000 HD
ENDBRANCH   3  10
BRANCH   1  16
ATOM     15  C   UNL     1      47.411   3.707  15.885  0.00  0.00    +0.000 C 
ATOM     16  O   UNL     1      47.563   3.241  14.548  0.00  0.00    +0.000 OA
ENDBRANCH   1  16
BRANCH   7  17
ATOM     17  C   UNL     1      49.252   7.978  12.576  0.00  0.00    +0.000 C 
BRANCH  17  18
ATOM     18  C   UNL     1      49.527   8.527  13.939  0.00  0.00    +0.000 A 
ATOM     19  C   UNL     1      48.610   9.282  14.644  0.00  0.00    +0.000 A 
ATOM     20  N   UNL     1      48.832   9.767  15.882  0.00  0.00    +0.000 NA
ATOM     21  C   UNL     1      50.023   9.472  16.422  0.00  0.00    +0.000 A 
ATOM     22  N   UNL     1      50.986   8.738  15.846  0.00  0.00    +0.000 NA
ATOM     23  C   UNL     1      50.708   8.277  14.610  0.00  0.00    +0.000 A 
ENDBRANCH  17  18
ENDBRANCH   7  17
TORSDOF 4
ENDMDL
