MODEL 1
REMARK VINA RESULT:    -8.676      0.000      0.000
REMARK INTER + INTRA:         -11.382
REMARK INTER:                 -11.212
REMARK INTRA:                  -0.170
REMARK UNBOUND:                -0.170
REMARK  Name = 
REMARK  5 active torsions:
REMARK  status: ('A' for Active; 'I' for Inactive)
REMARK    1  A    between atoms: C_2  and  C_3
REMARK    2  A    between atoms: C_6  and  C_7
REMARK    3  A    between atoms: C_11  and  C_12
REMARK    4  A    between atoms: C_12  and  N_13
REMARK    5  A    between atoms: C_17  and  C_18
REMARK                            x       y       z     vdW  Elec       q    Type
REMARK                         _______ _______ _______ _____ _____    ______ ____
ROOT
ATOM      1  C   UNL     1      44.336   5.427  11.304  0.00  0.00    +0.000 C 
ATOM      2  C   UNL     1      43.029   6.003  11.812  0.00  0.00    +0.000 C 
ATOM      3  C   UNL     1      43.235   4.530  11.900  0.00  0.00    +0.000 C 
ATOM      4  F   UNL     1      42.477   3.756  11.037  0.00  0.00    +0.000 F 
ENDROOT
BRANCH   1   5
ATOM      5  N   UNL     1      44.615   5.261   9.870  0.00  0.00    +0.000 N 
ATOM      6  C   UNL     1      45.171   4.142   9.261  0.00  0.00    +0.000 A 
ATOM      7  C   UNL     1      45.166   2.840   9.754  0.00  0.00    +0.000 A 
ATOM      8  N   UNL     1      45.762   1.772   9.148  0.00  0.00    +0.000 NA
ATOM      9  C   UNL     1      46.346   2.060   7.958  0.00  0.00    +0.000 A 
ATOM     10  C   UNL     1      46.320   3.341   7.424  0.00  0.00    +0.000 A 
ATOM     11  N   UNL     1      45.746   4.396   8.066  0.00  0.00    +0.000 NA
ATOM     12  H   UNL     1      44.962   6.068   9.358  0.00  0.00    +0.000 HD
BRANCH   9  13
ATOM     13  C   UNL     1      47.032   0.952   7.235  0.00  0.00    +0.000 C 
ATOM     14  N   UNL     1      46.749  -0.339   7.606  0.00  0.00    +0.000 N 
ATOM     15  O   UNL     1      47.828   1.169   6.330  0.00  0.00    +0.000 OA
ATOM     16  H   UNL     1      46.072  -0.580   8.321  0.00  0.00    +0.000 HD
ATOM     17  H   UNL     1      47.204  -1.076   7.085  0.00  0.00    +0.000 HD
ENDBRANCH   9  13
ENDBRANCH   1   5
BRANCH   1  22
ATOM     18  C   UNL     1      47.723   6.834  12.486  0.00  0.00    +0.000 A 
ATOM     19  C   UNL     1      47.896   6.146  13.694  0.00  0.00    +0.000 A 
ATOM     20  C   UNL     1      46.956   5.222  14.129  0.00  0.00    +0.000 A 
ATOM     21  C   UNL     1      45.825   4.968  13.356  0.00  0.00    +0.000 A 
ATOM     22  C   UNL     1      45.591   5.639  12.146  0.00  0.00    +0.000 A 
ATOM     23  C   UNL     1      46.566   6.560  11.739  0.00  0.00    +0.000 A 
BRANCH  18  27
ATOM     24  C   UNL     1      50.535   9.752  11.065  0.00  0.00    +0.000 A 
ATOM     25  C   UNL     1      50.882   8.393  11.074  0.00  0.00    +0.000 A 
ATOM     26  C   UNL     1      49.963   7.455  11.543  0.00  0.00    +0.000 A 
ATOM     27  C   UNL     1      48.695   7.830  12.005  0.00  0.00    +0.000 A 
ATOM     28  C   UNL     1      48.371   9.197  11.975  0.00  0.00    +0.000 A 
ATOM     29  C   UNL     1      49.280  10.148  11.513  0.00  0.00    +0.000 A 
BRANCH  24  31
ATOM     30  N   UNL     1      52.224  11.516  10.201  0.00  0.00    +0.000 NA
ATOM     31  C   UNL     1      51.475  10.714  10.593  0.00  0.00    +0.000 C 
ENDBRANCH  24  31
ENDBRANCH  18  27
ENDBRANCH   1  22
TORSDOF 5
ENDMDL
MODEL 2
REMARK VINA RESULT:    -8.526      2.815      4.710
REMARK INTER + INTRA:         -11.189
REMARK INTER:                 -11.063
REMARK INTRA:                  -0.126
REMARK UNBOUND:                -0.170
REMARK  Name = 
REMARK  5 active torsions:
REMARK  status: ('A' for Active; 'I' for Inactive)
REMARK    1  A    between atoms: C_2  and  C_3
REMARK    2  A    between atoms: C_6  and  C_7
REMARK    3  A    between atoms: C_11  and  C_12
REMARK    4  A    between atoms: C_12  and  N_13
REMARK    5  A    between atoms: C_17  and  C_18
REMARK                            x       y       z     vdW  Elec       q    Type
REMARK                         _______ _______ _______ _____ _____    ______ ____
ROOT
ATOM      1  C   UNL     1      44.154   5.048  11.398  0.00  0.00    +0.000 C 
ATOM      2  C   UNL     1      42.888   5.326  12.185  0.00  0.00    +0.000 C 
ATOM      3  C   UNL     1      43.454   3.949  12.219  0.00  0.00    +0.000 C 
ATOM      4  F   UNL     1      42.736   2.976  11.543  0.00  0.00    +0.000 F 
ENDROOT
BRANCH   1   5
ATOM      5  N   UNL     1      44.148   4.881   9.937  0.00  0.00    +0.000 N 
ATOM      6  C   UNL     1      44.884   3.955   9.209  0.00  0.00    +0.000 A 
ATOM      7  C   UNL     1      45.406   2.753   9.681  0.00  0.00    +0.000 A 
ATOM      8  N   UNL     1      46.164   1.887   8.947  0.00  0.00    +0.000 NA
ATOM      9  C   UNL     1      46.347   2.263   7.657  0.00  0.00    +0.000 A 
ATOM     10  C   UNL     1      45.795   3.431   7.151  0.00  0.00    +0.000 A 
ATOM     11  N   UNL     1      45.069   4.294   7.916  0.00  0.00    +0.000 NA
ATOM     12  H   UNL     1      44.096   5.720   9.364  0.00  0.00    +0.000 HD
BRANCH   9  13
ATOM     13  C   UNL     1      47.175   1.379   6.787  0.00  0.00    +0.000 C 
ATOM     14  N   UNL     1      48.187   1.950   6.056  0.00  0.00    +0.000 N 
ATOM     15  O   UNL     1      46.972   0.173   6.716  0.00  0.00    +0.000 OA
ATOM     16  H   UNL     1      48.425   2.934   6.104  0.00  0.00    +0.000 HD
ATOM     17  H   UNL     1      48.754   1.329   5.495  0.00  0.00    +0.000 HD
ENDBRANCH   9  13
ENDBRANCH   1   5
BRANCH   1  22
ATOM     18  C   UNL     1      47.106   5.693  13.788  0.00  0.00    +0.000 A 
ATOM     19  C   UNL     1      47.937   6.486  12.986  0.00  0.00    +0.000 A 
ATOM     20  C   UNL     1      47.559   6.836  11.696  0.00  0.00    +0.000 A 
ATOM     21  C   UNL     1      46.337   6.399  11.190  0.00  0.00    +0.000 A 
ATOM     22  C   UNL     1      45.472   5.590  11.942  0.00  0.00    +0.000 A 
ATOM     23  C   UNL     1      45.887   5.263  13.240  0.00  0.00    +0.000 A 
BRANCH  18  27
ATOM     24  C   UNL     1      48.180   4.523  17.778  0.00  0.00    +0.000 A 
ATOM     25  C   UNL     1      48.709   5.699  17.228  0.00  0.00    +0.000 A 
ATOM     26  C   UNL     1      48.357   6.066  15.930  0.00  0.00    +0.000 A 
ATOM     27  C   UNL     1      47.485   5.294  15.154  0.00  0.00    +0.000 A 
ATOM     28  C   UNL     1      46.961   4.126  15.734  0.00  0.00    +0.000 A 
ATOM     29  C   UNL     1      47.306   3.742  17.029  0.00  0.00    +0.000 A 
BRANCH  24  31
ATOM     30  N   UNL     1      48.828   3.850  20.194  0.00  0.00    +0.000 NA
ATOM     31  C   UNL     1      48.542   4.141  19.102  0.00  0.00    +0.000 C 
ENDBRANCH  24  31
ENDBRANCH  18  27
ENDBRANCH   1  22
TORSDOF 5
ENDMDL
MODEL 3
REMARK VINA RESULT:    -7.474      3.978      7.078
REMARK INTER + INTRA:          -9.829
REMARK INTER:                  -9.723
REMARK INTRA:                  -0.106
REMARK UNBOUND:                -0.170
REMARK  Name = 
REMARK  5 active torsions:
REMARK  status: ('A' for Active; 'I' for Inactive)
REMARK    1  A    between atoms: C_2  and  C_3
REMARK    2  A    between atoms: C_6  and  C_7
REMARK    3  A    between atoms: C_11  and  C_12
REMARK    4  A    between atoms: C_12  and  N_13
REMARK    5  A    between atoms: C_17  and  C_18
REMARK                            x       y       z     vdW  Elec       q    Type
REMARK                         _______ _______ _______ _____ _____    ______ ____
ROOT
ATOM      1  C   UNL     1      45.744   7.781  12.567  0.00  0.00    +0.000 C 
ATOM      2  C   UNL     1      44.952   8.985  13.039  0.00  0.00    +0.000 C 
ATOM      3  C   UNL     1      45.782   9.122  11.810  0.00  0.00    +0.000 C 
ATOM      4  F   UNL     1      46.915   9.911  11.925  0.00  0.00    +0.000 F 
ENDROOT
BRANCH   1   5
ATOM      5  N   UNL     1      46.992   7.359  13.220  0.00  0.00    +0.000 N 
ATOM      6  C   UNL     1      47.166   6.236  14.020  0.00  0.00    +0.000 A 
ATOM      7  C   UNL     1      46.383   5.084  14.015  0.00  0.00    +0.000 A 
ATOM      8  N   UNL     1      46.558   4.017  14.848  0.00  0.00    +0.000 NA
ATOM      9  C   UNL     1      47.617   4.132  15.687  0.00  0.00    +0.000 A 
ATOM     10  C   UNL     1      48.440   5.249  15.675  0.00  0.00    +0.000 A 
ATOM     11  N   UNL     1      48.223   6.315  14.855  0.00  0.00    +0.000 NA
ATOM     12  H   UNL     1      47.593   8.082  13.607  0.00  0.00    +0.000 HD
BRANCH   9  13
ATOM     13  C   UNL     1      47.872   3.014  16.640  0.00  0.00    +0.000 C 
ATOM     14  N   UNL     1      46.996   2.837  17.682  0.00  0.00    +0.000 N 
ATOM     15  O   UNL     1      48.832   2.265  16.512  0.00  0.00    +0.000 OA
ATOM     16  H   UNL     1      46.165   3.401  17.816  0.00  0.00    +0.000 HD
ATOM     17  H   UNL     1      47.171   2.057  18.301  0.00  0.00    +0.000 HD
ENDBRANCH   9  13
ENDBRANCH   1   5
BRANCH   1  22
ATOM     18  C   UNL     1      44.930   4.841  10.213  0.00  0.00    +0.000 A 
ATOM     19  C   UNL     1      43.676   4.446  10.696  0.00  0.00    +0.000 A 
ATOM     20  C   UNL     1      43.074   5.118  11.752  0.00  0.00    +0.000 A 
ATOM     21  C   UNL     1      43.720   6.203  12.339  0.00  0.00    +0.000 A 
ATOM     22  C   UNL     1      44.985   6.634  11.908  0.00  0.00    +0.000 A 
ATOM     23  C   UNL     1      45.555   5.933  10.837  0.00  0.00    +0.000 A 
BRANCH  18  27
ATOM     24  C   UNL     1      46.895   2.776   7.001  0.00  0.00    +0.000 A 
ATOM     25  C   UNL     1      46.965   4.175   7.080  0.00  0.00    +0.000 A 
ATOM     26  C   UNL     1      46.319   4.835   8.124  0.00  0.00    +0.000 A 
ATOM     27  C   UNL     1      45.599   4.141   9.105  0.00  0.00    +0.000 A 
ATOM     28  C   UNL     1      45.554   2.740   9.006  0.00  0.00    +0.000 A 
ATOM     29  C   UNL     1      46.191   2.064   7.966  0.00  0.00    +0.000 A 
BRANCH  24  31
ATOM     30  N   UNL     1      48.062   1.546   5.042  0.00  0.00    +0.000 NA
ATOM     31  C   UNL     1      47.548   2.099   5.931  0.00  0.00    +0.000 C 
ENDBRANCH  24  31
ENDBRANCH  18  27
ENDBRANCH   1  22
TORSDOF 5
ENDMDL
MODEL 4
REMARK VINA RESULT:    -7.250      1.971      2.180
REMARK INTER + INTRA:          -9.539
REMARK INTER:                  -9.085
REMARK INTRA:                  -0.454
REMARK UNBOUND:                -0.170
REMARK  Name = 
REMARK  5 active torsions:
REMARK  status: ('A' for Active; 'I' for Inactive)
REMARK    1  A    between atoms: C_2  and  C_3
REMARK    2  A    between atoms: C_6  and  C_7
REMARK    3  A    between atoms: C_11  and  C_12
REMARK    4  A    between atoms: C_12  and  N_13
REMARK    5  A    between atoms: C_17  and  C_18
REMARK                            x       y       z     vdW  Elec       q    Type
REMARK                         _______ _______ _______ _____ _____    ______ ____
ROOT
ATOM      1  C   UNL     1      44.364   5.594  11.269  0.00  0.00    +0.000 C 
ATOM      2  C   UNL     1      43.215   6.474  11.720  0.00  0.00    +0.000 C 
ATOM      3  C   UNL     1      42.985   5.006  11.620  0.00  0.00    +0.000 C 
ATOM      4  F   UNL     1      42.165   4.585  10.585  0.00  0.00    +0.000 F 
ENDROOT
BRANCH   1   5
ATOM      5  N   UNL     1      44.778   5.505   9.861  0.00  0.00    +0.000 N 
ATOM      6  C   UNL     1      45.308   4.388   9.225  0.00  0.00    +0.000 A 
ATOM      7  C   UNL     1      45.151   3.060   9.613  0.00  0.00    +0.000 A 
ATOM      8  N   UNL     1      45.724   1.991   8.987  0.00  0.00    +0.000 NA
ATOM      9  C   UNL     1      46.450   2.311   7.888  0.00  0.00    +0.000 A 
ATOM     10  C   UNL     1      46.578   3.623   7.454  0.00  0.00    +0.000 A 
ATOM     11  N   UNL     1      46.022   4.675   8.116  0.00  0.00    +0.000 NA
ATOM     12  H   UNL     1      45.238   6.314   9.450  0.00  0.00    +0.000 HD
BRANCH   9  13
ATOM     13  C   UNL     1      47.121   1.201   7.152  0.00  0.00    +0.000 C 
ATOM     14  N   UNL     1      48.018   1.525   6.165  0.00  0.00    +0.000 N 
ATOM     15  O   UNL     1      46.890   0.026   7.408  0.00  0.00    +0.000 OA
ATOM     16  H   UNL     1      48.276   2.478   5.934  0.00  0.00    +0.000 HD
ATOM     17  H   UNL     1      48.482   0.759   5.697  0.00  0.00    +0.000 HD
ENDBRANCH   9  13
ENDBRANCH   1   5
BRANCH   1  22
ATOM     18  C   UNL     1      47.417   6.213  13.537  0.00  0.00    +0.000 A 
ATOM     19  C   UNL     1      47.574   4.954  14.131  0.00  0.00    +0.000 A 
ATOM     20  C   UNL     1      46.730   3.901  13.804  0.00  0.00    +0.000 A 
ATOM     21  C   UNL     1      45.715   4.092  12.869  0.00  0.00    +0.000 A 
ATOM     22  C   UNL     1      45.501   5.335  12.254  0.00  0.00    +0.000 A 
ATOM     23  C   UNL     1      46.377   6.370  12.607  0.00  0.00    +0.000 A 
BRANCH  18  27
ATOM     24  C   UNL     1      49.960   9.523  14.548  0.00  0.00    +0.000 A 
ATOM     25  C   UNL     1      48.711   9.756  13.953  0.00  0.00    +0.000 A 
ATOM     26  C   UNL     1      47.897   8.674  13.625  0.00  0.00    +0.000 A 
ATOM     27  C   UNL     1      48.287   7.352  13.874  0.00  0.00    +0.000 A 
ATOM     28  C   UNL     1      49.539   7.148  14.479  0.00  0.00    +0.000 A 
ATOM     29  C   UNL     1      50.367   8.219  14.810  0.00  0.00    +0.000 A 
BRANCH  24  31
ATOM     30  N   UNL     1      51.499  11.514  15.162  0.00  0.00    +0.000 NA
ATOM     31  C   UNL     1      50.798  10.627  14.879  0.00  0.00    +0.000 C 
ENDBRANCH  24  31
ENDBRANCH  18  27
ENDBRANCH   1  22
TORSDOF 5
ENDMDL
MODEL 5
REMARK VINA RESULT:    -7.191      4.756      6.674
REMARK INTER + INTRA:          -9.463
REMARK INTER:                  -8.566
REMARK INTRA:                  -0.897
REMARK UNBOUND:                -0.170
REMARK  Name = 
REMARK  5 active torsions:
REMARK  status: ('A' for Active; 'I' for Inactive)
REMARK    1  A    between atoms: C_2  and  C_3
REMARK    2  A    between atoms: C_6  and  C_7
REMARK    3  A    between atoms: C_11  and  C_12
REMARK    4  A    between atoms: C_12  and  N_13
REMARK    5  A    between atoms: C_17  and  C_18
REMARK                            x       y       z     vdW  Elec       q    Type
REMARK                         _______ _______ _______ _____ _____    ______ ____
ROOT
ATOM      1  C   UNL     1      48.404   8.096  12.987  0.00  0.00    +0.000 C 
ATOM      2  C   UNL     1      49.517   7.616  12.076  0.00  0.00    +0.000 C 
ATOM      3  C   UNL     1      49.262   9.081  12.171  0.00  0.00    +0.000 C 
ATOM      4  F   UNL     1      48.699   9.676  11.054  0.00  0.00    +0.000 F 
ENDROOT
BRANCH   1   5
ATOM      5  N   UNL     1      46.985   7.993  12.612  0.00  0.00    +0.000 N 
ATOM      6  C   UNL     1      46.264   6.820  12.426  0.00  0.00    +0.000 A 
ATOM      7  C   UNL     1      46.561   5.569  12.961  0.00  0.00    +0.000 A 
ATOM      8  N   UNL     1      45.851   4.428  12.720  0.00  0.00    +0.000 NA
ATOM      9  C   UNL     1      44.763   4.604  11.930  0.00  0.00    +0.000 A 
ATOM     10  C   UNL     1      44.420   5.851  11.427  0.00  0.00    +0.000 A 
ATOM     11  N   UNL     1      45.165   6.969  11.657  0.00  0.00    +0.000 NA
ATOM     12  H   UNL     1      46.623   8.663  11.938  0.00  0.00    +0.000 HD
BRANCH   9  13
ATOM     13  C   UNL     1      43.940   3.404  11.606  0.00  0.00    +0.000 C 
ATOM     14  N   UNL     1      43.775   2.448  12.577  0.00  0.00    +0.000 N 
ATOM     15  O   UNL     1      43.416   3.259  10.508  0.00  0.00    +0.000 OA
ATOM     16  H   UNL     1      44.151   2.531  13.514  0.00  0.00    +0.000 HD
ATOM     17  H   UNL     1      43.190   1.656  12.346  0.00  0.00    +0.000 HD
ENDBRANCH   9  13
ENDBRANCH   1   5
BRANCH   1  22
ATOM     18  C   UNL     1      49.687   6.939  16.431  0.00  0.00    +0.000 A 
ATOM     19  C   UNL     1      49.185   7.951  17.261  0.00  0.00    +0.000 A 
ATOM     20  C   UNL     1      48.424   8.989  16.740  0.00  0.00    +0.000 A 
ATOM     21  C   UNL     1      48.150   9.028  15.375  0.00  0.00    +0.000 A 
ATOM     22  C   UNL     1      48.639   8.052  14.493  0.00  0.00    +0.000 A 
ATOM     23  C   UNL     1      49.397   7.019  15.059  0.00  0.00    +0.000 A 
BRANCH  18  27
ATOM     24  C   UNL     1      52.101   3.717  17.925  0.00  0.00    +0.000 A 
ATOM     25  C   UNL     1      50.707   3.576  17.861  0.00  0.00    +0.000 A 
ATOM     26  C   UNL     1      49.933   4.630  17.379  0.00  0.00    +0.000 A 
ATOM     27  C   UNL     1      50.507   5.834  16.952  0.00  0.00    +0.000 A 
ATOM     28  C   UNL     1      51.906   5.945  17.018  0.00  0.00    +0.000 A 
ATOM     29  C   UNL     1      52.695   4.901  17.501  0.00  0.00    +0.000 A 
BRANCH  24  31
ATOM     30  N   UNL     1      53.539   1.774  18.854  0.00  0.00    +0.000 NA
ATOM     31  C   UNL     1      52.894   2.644  18.423  0.00  0.00    +0.000 C 
ENDBRANCH  24  31
ENDBRANCH  18  27
ENDBRANCH   1  22
TORSDOF 5
ENDMDL
MODEL 6
REMARK VINA RESULT:    -6.699      5.476      8.393
REMARK INTER + INTRA:          -8.827
REMARK INTER:                  -8.496
REMARK INTRA:                  -0.332
REMARK UNBOUND:                -0.170
REMARK  Name = 
REMARK  5 active torsions:
REMARK  status: ('A' for Active; 'I' for Inactive)
REMARK    1  A    between atoms: C_2  and  C_3
REMARK    2  A    between atoms: C_6  and  C_7
REMARK    3  A    between atoms: C_11  and  C_12
REMARK    4  A    between atoms: C_12  and  N_13
REMARK    5  A    between atoms: C_17  and  C_18
REMARK                            x       y       z     vdW  Elec       q    Type
REMARK                         _______ _______ _______ _____ _____    ______ ____
ROOT
ATOM      1  C   UNL     1      48.701   8.552  16.696  0.00  0.00    +0.000 C 
ATOM      2  C   UNL     1      48.359   9.945  17.187  0.00  0.00    +0.000 C 
ATOM      3  C   UNL     1      49.768   9.479  17.307  0.00  0.00    +0.000 C 
ATOM      4  F   UNL     1      50.216   9.212  18.591  0.00  0.00    +0.000 F 
ENDROOT
BRANCH   1   5
ATOM      5  N   UNL     1      48.361   7.345  17.463  0.00  0.00    +0.000 N 
ATOM      6  C   UNL     1      49.037   6.131  17.435  0.00  0.00    +0.000 A 
ATOM      7  C   UNL     1      50.363   5.928  17.061  0.00  0.00    +0.000 A 
ATOM      8  N   UNL     1      50.981   4.712  17.004  0.00  0.00    +0.000 NA
ATOM      9  C   UNL     1      50.205   3.672  17.396  0.00  0.00    +0.000 A 
ATOM     10  C   UNL     1      48.896   3.857  17.820  0.00  0.00    +0.000 A 
ATOM     11  N   UNL     1      48.293   5.079  17.837  0.00  0.00    +0.000 NA
ATOM     12  H   UNL     1      47.376   7.121  17.584  0.00  0.00    +0.000 HD
BRANCH   9  13
ATOM     13  C   UNL     1      50.800   2.306  17.351  0.00  0.00    +0.000 C 
ATOM     14  N   UNL     1      51.889   2.045  18.145  0.00  0.00    +0.000 N 
ATOM     15  O   UNL     1      50.341   1.427  16.632  0.00  0.00    +0.000 OA
ATOM     16  H   UNL     1      52.287   2.720  18.787  0.00  0.00    +0.000 HD
ATOM     17  H   UNL     1      52.260   1.105  18.120  0.00  0.00    +0.000 HD
ENDBRANCH   9  13
ENDBRANCH   1   5
BRANCH   1  22
ATOM     18  C   UNL     1      47.884   7.153  13.200  0.00  0.00    +0.000 A 
ATOM     19  C   UNL     1      48.769   7.888  12.399  0.00  0.00    +0.000 A 
ATOM     20  C   UNL     1      49.640   8.812  12.962  0.00  0.00    +0.000 A 
ATOM     21  C   UNL     1      49.640   9.012  14.341  0.00  0.00    +0.000 A 
ATOM     22  C   UNL     1      48.765   8.316  15.190  0.00  0.00    +0.000 A 
ATOM     23  C   UNL     1      47.907   7.390  14.584  0.00  0.00    +0.000 A 
BRANCH  18  27
ATOM     24  C   UNL     1      45.150   4.282  11.550  0.00  0.00    +0.000 A 
ATOM     25  C   UNL     1      45.485   5.430  10.817  0.00  0.00    +0.000 A 
ATOM     26  C   UNL     1      46.369   6.358  11.365  0.00  0.00    +0.000 A 
ATOM     27  C   UNL     1      46.940   6.177  12.631  0.00  0.00    +0.000 A 
ATOM     28  C   UNL     1      46.594   5.013  13.339  0.00  0.00    +0.000 A 
ATOM     29  C   UNL     1      45.708   4.078  12.807  0.00  0.00    +0.000 A 
BRANCH  24  31
ATOM     30  N   UNL     1      43.505   2.543  10.559  0.00  0.00    +0.000 NA
ATOM     31  C   UNL     1      44.241   3.335  10.995  0.00  0.00    +0.000 C 
ENDBRANCH  24  31
ENDBRANCH  18  27
ENDBRANCH   1  22
TORSDOF 5
ENDMDL
MODEL 7
REMARK VINA RESULT:    -6.652      5.621      9.044
REMARK INTER + INTRA:          -8.767
REMARK INTER:                  -7.995
REMARK INTRA:                  -0.772
REMARK UNBOUND:                -0.170
REMARK  Name = 
REMARK  5 active torsions:
REMARK  status: ('A' for Active; 'I' for Inactive)
REMARK    1  A    between atoms: C_2  and  C_3
REMARK    2  A    between atoms: C_6  and  C_7
REMARK    3  A    between atoms: C_11  and  C_12
REMARK    4  A    between atoms: C_12  and  N_13
REMARK    5  A    between atoms: C_17  and  C_18
REMARK                            x       y       z     vdW  Elec       q    Type
REMARK                         _______ _______ _______ _____ _____    ______ ____
ROOT
ATOM      1  C   UNL     1      50.406   8.342  14.280  0.00  0.00    +0.000 C 
ATOM      2  C   UNL     1      51.123   9.539  14.873  0.00  0.00    +0.000 C 
ATOM      3  C   UNL     1      51.713   8.884  13.673  0.00  0.00    +0.000 C 
ATOM      4  F   UNL     1      52.882   8.169  13.880  0.00  0.00    +0.000 F 
ENDROOT
BRANCH   1   5
ATOM      5  N   UNL     1      50.469   7.007  14.894  0.00  0.00    +0.000 N 
ATOM      6  C   UNL     1      49.990   6.652  16.149  0.00  0.00    +0.000 A 
ATOM      7  C   UNL     1      49.000   7.308  16.876  0.00  0.00    +0.000 A 
ATOM      8  N   UNL     1      48.586   6.955  18.127  0.00  0.00    +0.000 NA
ATOM      9  C   UNL     1      49.191   5.848  18.624  0.00  0.00    +0.000 A 
ATOM     10  C   UNL     1      50.144   5.149  17.896  0.00  0.00    +0.000 A 
ATOM     11  N   UNL     1      50.563   5.542  16.661  0.00  0.00    +0.000 NA
ATOM     12  H   UNL     1      51.309   6.454  14.740  0.00  0.00    +0.000 HD
BRANCH   9  13
ATOM     13  C   UNL     1      48.805   5.400  19.993  0.00  0.00    +0.000 C 
ATOM     14  N   UNL     1      48.568   4.064  20.196  0.00  0.00    +0.000 N 
ATOM     15  O   UNL     1      48.698   6.191  20.922  0.00  0.00    +0.000 OA
ATOM     16  H   UNL     1      48.678   3.360  19.476  0.00  0.00    +0.000 HD
ATOM     17  H   UNL     1      48.335   3.778  21.137  0.00  0.00    +0.000 HD
ENDBRANCH   9  13
ENDBRANCH   1   5
BRANCH   1  22
ATOM     18  C   UNL     1      47.031   7.692  12.538  0.00  0.00    +0.000 A 
ATOM     19  C   UNL     1      46.685   8.986  12.125  0.00  0.00    +0.000 A 
ATOM     20  C   UNL     1      47.524  10.063  12.377  0.00  0.00    +0.000 A 
ATOM     21  C   UNL     1      48.729   9.860  13.045  0.00  0.00    +0.000 A 
ATOM     22  C   UNL     1      49.121   8.590  13.496  0.00  0.00    +0.000 A 
ATOM     23  C   UNL     1      48.249   7.529  13.218  0.00  0.00    +0.000 A 
BRANCH  18  27
ATOM     24  C   UNL     1      44.500   4.291  11.852  0.00  0.00    +0.000 A 
ATOM     25  C   UNL     1      44.749   5.200  10.812  0.00  0.00    +0.000 A 
ATOM     26  C   UNL     1      45.568   6.303  11.048  0.00  0.00    +0.000 A 
ATOM     27  C   UNL     1      46.156   6.533  12.298  0.00  0.00    +0.000 A 
ATOM     28  C   UNL     1      45.898   5.602  13.318  0.00  0.00    +0.000 A 
ATOM     29  C   UNL     1      45.078   4.496  13.100  0.00  0.00    +0.000 A 
BRANCH  24  31
ATOM     30  N   UNL     1      42.974   2.248  11.399  0.00  0.00    +0.000 NA
ATOM     31  C   UNL     1      43.658   3.166  11.616  0.00  0.00    +0.000 C 
ENDBRANCH  24  31
ENDBRANCH  18  27
ENDBRANCH   1  22
TORSDOF 5
ENDMDL
MODEL 8
REMARK VINA RESULT:    -6.563      5.827      7.929
REMARK INTER + INTRA:          -8.651
REMARK INTER:                  -7.995
REMARK INTRA:                  -0.656
REMARK UNBOUND:                -0.170
REMARK  Name = 
REMARK  5 active torsions:
REMARK  status: ('A' for Active; 'I' for Inactive)
REMARK    1  A    between atoms: C_2  and  C_3
REMARK    2  A    between atoms: C_6  and  C_7
REMARK    3  A    between atoms: C_11  and  C_12
REMARK    4  A    between atoms: C_12  and  N_13
REMARK    5  A    between atoms: C_17  and  C_18
REMARK                            x       y       z     vdW  Elec       q    Type
REMARK                         _______ _______ _______ _____ _____    ______ ____
ROOT
ATOM      1  C   UNL     1      49.135   7.197  15.498  0.00  0.00    +0.000 C 
ATOM      2  C   UNL     1      50.453   7.404  14.778  0.00  0.00    +0.000 C 
ATOM      3  C   UNL     1      49.964   8.481  15.684  0.00  0.00    +0.000 C 
ATOM      4  F   UNL     1      49.527   9.643  15.069  0.00  0.00    +0.000 F 
ENDROOT
BRANCH   1   5
ATOM      5  N   UNL     1      47.839   7.343  14.819  0.00  0.00    +0.000 N 
ATOM      6  C   UNL     1      47.140   6.346  14.150  0.00  0.00    +0.000 A 
ATOM      7  C   UNL     1      47.261   4.972  14.347  0.00  0.00    +0.000 A 
ATOM      8  N   UNL     1      46.588   4.019  13.639  0.00  0.00    +0.000 NA
ATOM      9  C   UNL     1      45.719   4.514  12.723  0.00  0.00    +0.000 A 
ATOM     10  C   UNL     1      45.545   5.879  12.545  0.00  0.00    +0.000 A 
ATOM     11  N   UNL     1      46.254   6.810  13.243  0.00  0.00    +0.000 NA
ATOM     12  H   UNL     1      47.666   8.206  14.308  0.00  0.00    +0.000 HD
BRANCH   9  13
ATOM     13  C   UNL     1      44.952   3.538  11.897  0.00  0.00    +0.000 C 
ATOM     14  N   UNL     1      44.308   2.509  12.537  0.00  0.00    +0.000 N 
ATOM     15  O   UNL     1      44.887   3.638  10.677  0.00  0.00    +0.000 OA
ATOM     16  H   UNL     1      44.296   2.397  13.544  0.00  0.00    +0.000 HD
ATOM     17  H   UNL     1      43.771   1.875  11.961  0.00  0.00    +0.000 HD
ENDBRANCH   9  13
ENDBRANCH   1   5
BRANCH   1  22
ATOM     18  C   UNL     1      50.119   4.301  17.842  0.00  0.00    +0.000 A 
ATOM     19  C   UNL     1      49.148   4.421  18.844  0.00  0.00    +0.000 A 
ATOM     20  C   UNL     1      48.168   5.402  18.774  0.00  0.00    +0.000 A 
ATOM     21  C   UNL     1      48.143   6.279  17.693  0.00  0.00    +0.000 A 
ATOM     22  C   UNL     1      49.100   6.217  16.667  0.00  0.00    +0.000 A 
ATOM     23  C   UNL     1      50.068   5.209  16.772  0.00  0.00    +0.000 A 
BRANCH  18  27
ATOM     24  C   UNL     1      53.188   1.301  18.008  0.00  0.00    +0.000 A 
ATOM     25  C   UNL     1      53.427   2.577  18.540  0.00  0.00    +0.000 A 
ATOM     26  C   UNL     1      52.425   3.544  18.476  0.00  0.00    +0.000 A 
ATOM     27  C   UNL     1      51.179   3.280  17.895  0.00  0.00    +0.000 A 
ATOM     28  C   UNL     1      50.963   1.991  17.378  0.00  0.00    +0.000 A 
ATOM     29  C   UNL     1      51.956   1.014  17.430  0.00  0.00    +0.000 A 
BRANCH  24  31
ATOM     30  N   UNL     1      55.033  -0.514  18.106  0.00  0.00    +0.000 NA
ATOM     31  C   UNL     1      54.212   0.312  18.065  0.00  0.00    +0.000 C 
ENDBRANCH  24  31
ENDBRANCH  18  27
ENDBRANCH   1  22
TORSDOF 5
ENDMDL
MODEL 9
REMARK VINA RESULT:    -6.522      4.503      8.396
REMARK INTER + INTRA:          -8.599
REMARK INTER:                  -8.231
REMARK INTRA:                  -0.368
REMARK UNBOUND:                -0.170
REMARK  Name = 
REMARK  5 active torsions:
REMARK  status: ('A' for Active; 'I' for Inactive)
REMARK    1  A    between atoms: C_2  and  C_3
REMARK    2  A    between atoms: C_6  and  C_7
REMARK    3  A    between atoms: C_11  and  C_12
REMARK    4  A    between atoms: C_12  and  N_13
REMARK    5  A    between atoms: C_17  and  C_18
REMARK                            x       y       z     vdW  Elec       q    Type
REMARK                         _______ _______ _______ _____ _____    ______ ____
ROOT
ATOM      1  C   UNL     1      49.379   9.464  12.685  0.00  0.00    +0.000 C 
ATOM      2  C   UNL     1      50.330  10.164  11.733  0.00  0.00    +0.000 C 
ATOM      3  C   UNL     1      50.360   8.676  11.798  0.00  0.00    +0.000 C 
ATOM      4  F   UNL     1      51.479   8.113  12.391  0.00  0.00    +0.000 F 
ENDROOT
BRANCH   1   5
ATOM      5  N   UNL     1      49.617   9.414  14.135  0.00  0.00    +0.000 N 
ATOM      6  C   UNL     1      49.299   8.364  14.987  0.00  0.00    +0.000 A 
ATOM      7  C   UNL     1      49.121   7.029  14.631  0.00  0.00    +0.000 A 
ATOM      8  N   UNL     1      48.765   6.031  15.491  0.00  0.00    +0.000 NA
ATOM      9  C   UNL     1      48.636   6.427  16.781  0.00  0.00    +0.000 A 
ATOM     10  C   UNL     1      48.858   7.741  17.168  0.00  0.00    +0.000 A 
ATOM     11  N   UNL     1      49.181   8.725  16.283  0.00  0.00    +0.000 NA
ATOM     12  H   UNL     1      49.478  10.268  14.668  0.00  0.00    +0.000 HD
BRANCH   9  13
ATOM     13  C   UNL     1      48.236   5.399  17.786  0.00  0.00    +0.000 C 
ATOM     14  N   UNL     1      46.997   5.506  18.366  0.00  0.00    +0.000 N 
ATOM     15  O   UNL     1      48.981   4.478  18.095  0.00  0.00    +0.000 OA
ATOM     16  H   UNL     1      46.325   6.224  18.122  0.00  0.00    +0.000 HD
ATOM     17  H   UNL     1      46.735   4.784  19.024  0.00  0.00    +0.000 HD
ENDBRANCH   9  13
ENDBRANCH   1   5
BRANCH   1  22
ATOM     18  C   UNL     1      45.882   8.044  11.911  0.00  0.00    +0.000 A 
ATOM     19  C   UNL     1      45.151   9.221  11.703  0.00  0.00    +0.000 A 
ATOM     20  C   UNL     1      45.763  10.465  11.786  0.00  0.00    +0.000 A 
ATOM     21  C   UNL     1      47.122  10.549  12.076  0.00  0.00    +0.000 A 
ATOM     22  C   UNL     1      47.901   9.405  12.310  0.00  0.00    +0.000 A 
ATOM     23  C   UNL     1      47.248   8.169  12.211  0.00  0.00    +0.000 A 
BRANCH  18  27
ATOM     24  C   UNL     1      44.053   4.165  11.682  0.00  0.00    +0.000 A 
ATOM     25  C   UNL     1      43.890   4.948  12.834  0.00  0.00    +0.000 A 
ATOM     26  C   UNL     1      44.493   6.204  12.899  0.00  0.00    +0.000 A 
ATOM     27  C   UNL     1      45.259   6.712  11.843  0.00  0.00    +0.000 A 
ATOM     28  C   UNL     1      45.397   5.910  10.697  0.00  0.00    +0.000 A 
ATOM     29  C   UNL     1      44.804   4.650  10.617  0.00  0.00    +0.000 A 
BRANCH  24  31
ATOM     30  N   UNL     1      42.952   1.822  11.584  0.00  0.00    +0.000 NA
ATOM     31  C   UNL     1      43.444   2.878  11.615  0.00  0.00    +0.000 C 
ENDBRANCH  24  31
ENDBRANCH  18  27
ENDBRANCH   1  22
TORSDOF 5
ENDMDL
