MODEL 1
REMARK VINA RESULT:    -8.376      0.000      0.000
REMARK INTER + INTRA:         -10.147
REMARK INTER:                 -10.334
REMARK INTRA:                   0.187
REMARK UNBOUND:                 0.187
REMARK  Name = 
REMARK  4 active torsions:
REMARK  status: ('A' for Active; 'I' for Inactive)
REMARK    1  A    between atoms: C_2  and  C_3
REMARK    2  A    between atoms: C_6  and  C_7
REMARK    3  A    between atoms: C_7  and  N_8
REMARK    4  A    between atoms: C_12  and  C_13
REMARK                            x       y       z     vdW  Elec       q    Type
REMARK                         _______ _______ _______ _____ _____    ______ ____
ROOT
ATOM      1  N   UNL     1      44.081   5.507  10.853  0.00  0.00    +0.000 N 
ATOM      2  C   UNL     1      44.947   6.370  11.507  0.00  0.00    +0.000 A 
ATOM      3  N   UNL     1      45.970   5.880  12.228  0.00  0.00    +0.000 NA
ATOM      4  C   UNL     1      46.754   6.763  12.879  0.00  0.00    +0.000 A 
ATOM      5  C   UNL     1      46.574   8.123  12.816  0.00  0.00    +0.000 A 
ATOM      6  C   UNL     1      45.508   8.533  12.053  0.00  0.00    +0.000 A 
ATOM      7  N   UNL     1      44.683   7.683  11.396  0.00  0.00    +0.000 NA
ATOM      8  H   UNL     1      43.282   5.985  10.466  0.00  0.00    +0.000 HD
ENDROOT
BRANCH   5   9
ATOM      9  C   UNL     1      47.459   9.015  13.575  0.00  0.00    +0.000 C 
ATOM     10  N   UNL     1      47.385   8.985  14.938  0.00  0.00    +0.000 N 
ATOM     11  O   UNL     1      48.212   9.787  13.000  0.00  0.00    +0.000 OA
ATOM     12  H   UNL     1      46.626   8.559  15.451  0.00  0.00    +0.000 HD
ATOM     13  H   UNL     1      47.929   9.690  15.423  0.00  0.00    +0.000 HD
ENDBRANCH   5   9
BRANCH   1  14
ATOM     14  C   UNL     1      44.260   4.059  10.808  0.00  0.00    +0.000 C 
ATOM     15  C   UNL     1      44.439   3.267  12.090  0.00  0.00    +0.000 C 
ATOM     16  C   UNL     1      43.128   3.223  11.377  0.00  0.00    +0.000 C 
BRANCH  14  20
ATOM     17  C   UNL     1      46.614   2.643   7.417  0.00  0.00    +0.000 A 
ATOM     18  C   UNL     1      46.380   4.012   7.580  0.00  0.00    +0.000 A 
ATOM     19  C   UNL     1      45.595   4.470   8.648  0.00  0.00    +0.000 A 
ATOM     20  C   UNL     1      45.020   3.579   9.572  0.00  0.00    +0.000 A 
ATOM     21  C   UNL     1      45.239   2.204   9.354  0.00  0.00    +0.000 A 
ATOM     22  C   UNL     1      46.032   1.750   8.307  0.00  0.00    +0.000 A 
ATOM     23  F   UNL     1      46.244   0.430   8.183  0.00  0.00    +0.000 F 
BRANCH  17  25
ATOM     24  N   UNL     1      48.180   1.787   5.543  0.00  0.00    +0.000 NA
ATOM     25  C   UNL     1      47.462   2.170   6.371  0.00  0.00    +0.000 C 
ENDBRANCH  17  25
ENDBRANCH  14  20
ENDBRANCH   1  14
TORSDOF 4
ENDMDL
MODEL 2
REMARK VINA RESULT:    -8.178      3.358      6.782
REMARK INTER + INTRA:          -9.904
REMARK INTER:                  -9.587
REMARK INTRA:                  -0.317
REMARK UNBOUND:                 0.187
REMARK  Name = 
REMARK  4 active torsions:
REMARK  status: ('A' for Active; 'I' for Inactive)
REMARK    1  A    between atoms: C_2  and  C_3
REMARK    2  A    between atoms: C_6  and  C_7
REMARK    3  A    between atoms: C_7  and  N_8
REMARK    4  A    between atoms: C_12  and  C_13
REMARK                            x       y       z     vdW  Elec       q    Type
REMARK                         _______ _______ _______ _____ _____    ______ ____
ROOT
ATOM      1  N   UNL     1      44.097   3.414  10.883  0.00  0.00    +0.000 N 
ATOM      2  C   UNL     1      44.898   3.171   9.778  0.00  0.00    +0.000 A 
ATOM      3  N   UNL     1      45.545   4.183   9.177  0.00  0.00    +0.000 NA
ATOM      4  C   UNL     1      46.274   3.895   8.080  0.00  0.00    +0.000 A 
ATOM      5  C   UNL     1      46.406   2.625   7.573  0.00  0.00    +0.000 A 
ATOM      6  C   UNL     1      45.713   1.653   8.253  0.00  0.00    +0.000 A 
ATOM      7  N   UNL     1      44.956   1.898   9.348  0.00  0.00    +0.000 NA
ATOM      8  H   UNL     1      43.561   2.605  11.155  0.00  0.00    +0.000 HD
ENDROOT
BRANCH   5   9
ATOM      9  C   UNL     1      47.200   2.400   6.359  0.00  0.00    +0.000 C 
ATOM     10  N   UNL     1      47.042   3.270   5.318  0.00  0.00    +0.000 N 
ATOM     11  O   UNL     1      47.952   1.441   6.271  0.00  0.00    +0.000 OA
ATOM     12  H   UNL     1      46.273   3.921   5.240  0.00  0.00    +0.000 HD
ATOM     13  H   UNL     1      47.522   3.021   4.460  0.00  0.00    +0.000 HD
ENDBRANCH   5   9
BRANCH   1  14
ATOM     14  C   UNL     1      43.977   4.720  11.525  0.00  0.00    +0.000 C 
ATOM     15  C   UNL     1      43.086   5.792  10.925  0.00  0.00    +0.000 C 
ATOM     16  C   UNL     1      42.627   5.048  12.136  0.00  0.00    +0.000 C 
BRANCH  14  20
ATOM     17  C   UNL     1      47.513   6.108  13.674  0.00  0.00    +0.000 A 
ATOM     18  C   UNL     1      47.046   6.821  12.566  0.00  0.00    +0.000 A 
ATOM     19  C   UNL     1      45.931   6.360  11.851  0.00  0.00    +0.000 A 
ATOM     20  C   UNL     1      45.262   5.179  12.215  0.00  0.00    +0.000 A 
ATOM     21  C   UNL     1      45.784   4.461  13.309  0.00  0.00    +0.000 A 
ATOM     22  C   UNL     1      46.877   4.926  14.031  0.00  0.00    +0.000 A 
ATOM     23  F   UNL     1      47.295   4.222  15.095  0.00  0.00    +0.000 F 
BRANCH  17  25
ATOM     24  N   UNL     1      49.517   6.973  15.064  0.00  0.00    +0.000 NA
ATOM     25  C   UNL     1      48.607   6.600  14.447  0.00  0.00    +0.000 C 
ENDBRANCH  17  25
ENDBRANCH  14  20
ENDBRANCH   1  14
TORSDOF 4
ENDMDL
MODEL 3
REMARK VINA RESULT:    -7.929      1.482      1.616
REMARK INTER + INTRA:          -9.596
REMARK INTER:                  -9.480
REMARK INTRA:                  -0.116
REMARK UNBOUND:                 0.187
REMARK  Name = 
REMARK  4 active torsions:
REMARK  status: ('A' for Active; 'I' for Inactive)
REMARK    1  A    between atoms: C_2  and  C_3
REMARK    2  A    between atoms: C_6  and  C_7
REMARK    3  A    between atoms: C_7  and  N_8
REMARK    4  A    between atoms: C_12  and  C_13
REMARK                            x       y       z     vdW  Elec       q    Type
REMARK                         _______ _______ _______ _____ _____    ______ ____
ROOT
ATOM      1  N   UNL     1      44.783   5.930  11.246  0.00  0.00    +0.000 N 
ATOM      2  C   UNL     1      45.794   6.103  12.179  0.00  0.00    +0.000 A 
ATOM      3  N   UNL     1      46.262   5.049  12.869  0.00  0.00    +0.000 NA
ATOM      4  C   UNL     1      47.215   5.282  13.794  0.00  0.00    +0.000 A 
ATOM      5  C   UNL     1      47.742   6.527  14.039  0.00  0.00    +0.000 A 
ATOM      6  C   UNL     1      47.208   7.542  13.285  0.00  0.00    +0.000 A 
ATOM      7  N   UNL     1      46.238   7.359  12.357  0.00  0.00    +0.000 NA
ATOM      8  H   UNL     1      44.426   6.807  10.900  0.00  0.00    +0.000 HD
ENDROOT
BRANCH   5   9
ATOM      9  C   UNL     1      48.761   6.698  15.082  0.00  0.00    +0.000 C 
ATOM     10  N   UNL     1      48.359   6.651  16.386  0.00  0.00    +0.000 N 
ATOM     11  O   UNL     1      49.927   6.914  14.788  0.00  0.00    +0.000 OA
ATOM     12  H   UNL     1      47.395   6.721  16.681  0.00  0.00    +0.000 HD
ATOM     13  H   UNL     1      49.068   6.882  17.073  0.00  0.00    +0.000 HD
ENDBRANCH   5   9
BRANCH   1  14
ATOM     14  C   UNL     1      44.236   4.629  10.875  0.00  0.00    +0.000 C 
ATOM     15  C   UNL     1      43.668   3.704  11.936  0.00  0.00    +0.000 C 
ATOM     16  C   UNL     1      42.737   4.456  11.044  0.00  0.00    +0.000 C 
BRANCH  14  20
ATOM     17  C   UNL     1      46.453   2.723   7.635  0.00  0.00    +0.000 A 
ATOM     18  C   UNL     1      46.414   4.118   7.727  0.00  0.00    +0.000 A 
ATOM     19  C   UNL     1      45.674   4.736   8.746  0.00  0.00    +0.000 A 
ATOM     20  C   UNL     1      44.952   3.984   9.690  0.00  0.00    +0.000 A 
ATOM     21  C   UNL     1      44.977   2.583   9.543  0.00  0.00    +0.000 A 
ATOM     22  C   UNL     1      45.725   1.968   8.546  0.00  0.00    +0.000 A 
ATOM     23  F   UNL     1      45.749   0.627   8.490  0.00  0.00    +0.000 F 
BRANCH  17  25
ATOM     24  N   UNL     1      47.929   1.584   5.840  0.00  0.00    +0.000 NA
ATOM     25  C   UNL     1      47.253   2.082   6.643  0.00  0.00    +0.000 C 
ENDBRANCH  17  25
ENDBRANCH  14  20
ENDBRANCH   1  14
TORSDOF 4
ENDMDL
MODEL 4
REMARK VINA RESULT:    -7.098      1.994      2.361
REMARK INTER + INTRA:          -8.570
REMARK INTER:                  -8.337
REMARK INTRA:                  -0.233
REMARK UNBOUND:                 0.187
REMARK  Name = 
REMARK  4 active torsions:
REMARK  status: ('A' for Active; 'I' for Inactive)
REMARK    1  A    between atoms: C_2  and  C_3
REMARK    2  A    between atoms: C_6  and  C_7
REMARK    3  A    between atoms: C_7  and  N_8
REMARK    4  A    between atoms: C_12  and  C_13
REMARK                            x       y       z     vdW  Elec       q    Type
REMARK                         _______ _______ _______ _____ _____    ______ ____
ROOT
ATOM      1  N   UNL     1      44.710   6.532  11.539  0.00  0.00    +0.000 N 
ATOM      2  C   UNL     1      45.870   6.640  12.291  0.00  0.00    +0.000 A 
ATOM      3  N   UNL     1      46.364   5.565  12.927  0.00  0.00    +0.000 NA
ATOM      4  C   UNL     1      47.469   5.738  13.679  0.00  0.00    +0.000 A 
ATOM      5  C   UNL     1      48.120   6.942  13.800  0.00  0.00    +0.000 A 
ATOM      6  C   UNL     1      47.547   7.983  13.113  0.00  0.00    +0.000 A 
ATOM      7  N   UNL     1      46.428   7.861  12.359  0.00  0.00    +0.000 NA
ATOM      8  H   UNL     1      44.368   7.428  11.230  0.00  0.00    +0.000 HD
ENDROOT
BRANCH   5   9
ATOM      9  C   UNL     1      49.305   7.051  14.660  0.00  0.00    +0.000 C 
ATOM     10  N   UNL     1      50.259   7.969  14.325  0.00  0.00    +0.000 N 
ATOM     11  O   UNL     1      49.448   6.316  15.625  0.00  0.00    +0.000 OA
ATOM     12  H   UNL     1      50.313   8.421  13.423  0.00  0.00    +0.000 HD
ATOM     13  H   UNL     1      51.110   7.939  14.876  0.00  0.00    +0.000 HD
ENDBRANCH   5   9
BRANCH   1  14
ATOM     14  C   UNL     1      44.015   5.271  11.299  0.00  0.00    +0.000 C 
ATOM     15  C   UNL     1      43.201   4.620  12.403  0.00  0.00    +0.000 C 
ATOM     16  C   UNL     1      42.498   5.329  11.293  0.00  0.00    +0.000 C 
BRANCH  14  20
ATOM     17  C   UNL     1      45.953   2.690   8.361  0.00  0.00    +0.000 A 
ATOM     18  C   UNL     1      45.190   2.127   9.389  0.00  0.00    +0.000 A 
ATOM     19  C   UNL     1      44.594   2.950  10.355  0.00  0.00    +0.000 A 
ATOM     20  C   UNL     1      44.749   4.347  10.327  0.00  0.00    +0.000 A 
ATOM     21  C   UNL     1      45.558   4.879   9.305  0.00  0.00    +0.000 A 
ATOM     22  C   UNL     1      46.134   4.067   8.335  0.00  0.00    +0.000 A 
ATOM     23  F   UNL     1      46.853   4.640   7.356  0.00  0.00    +0.000 F 
BRANCH  17  25
ATOM     24  N   UNL     1      46.936   1.183   6.501  0.00  0.00    +0.000 NA
ATOM     25  C   UNL     1      46.511   1.869   7.336  0.00  0.00    +0.000 C 
ENDBRANCH  17  25
ENDBRANCH  14  20
ENDBRANCH   1  14
TORSDOF 4
ENDMDL
MODEL 5
REMARK VINA RESULT:    -5.876      4.354      7.981
REMARK INTER + INTRA:          -7.063
REMARK INTER:                  -6.750
REMARK INTRA:                  -0.313
REMARK UNBOUND:                 0.187
REMARK  Name = 
REMARK  4 active torsions:
REMARK  status: ('A' for Active; 'I' for Inactive)
REMARK    1  A    between atoms: C_2  and  C_3
REMARK    2  A    between atoms: C_6  and  C_7
REMARK    3  A    between atoms: C_7  and  N_8
REMARK    4  A    between atoms: C_12  and  C_13
REMARK                            x       y       z     vdW  Elec       q    Type
REMARK                         _______ _______ _______ _____ _____    ______ ____
ROOT
ATOM      1  N   UNL     1      46.915   8.293  12.294  0.00  0.00    +0.000 N 
ATOM      2  C   UNL     1      46.146   7.141  12.229  0.00  0.00    +0.000 A 
ATOM      3  N   UNL     1      46.717   5.938  12.407  0.00  0.00    +0.000 NA
ATOM      4  C   UNL     1      45.931   4.850  12.290  0.00  0.00    +0.000 A 
ATOM      5  C   UNL     1      44.583   4.916  12.030  0.00  0.00    +0.000 A 
ATOM      6  C   UNL     1      44.085   6.185  11.867  0.00  0.00    +0.000 A 
ATOM      7  N   UNL     1      44.840   7.306  11.958  0.00  0.00    +0.000 NA
ATOM      8  H   UNL     1      46.403   9.113  12.008  0.00  0.00    +0.000 HD
ENDROOT
BRANCH   5   9
ATOM      9  C   UNL     1      43.802   3.681  11.894  0.00  0.00    +0.000 C 
ATOM     10  N   UNL     1      44.208   2.583  12.597  0.00  0.00    +0.000 N 
ATOM     11  O   UNL     1      42.838   3.629  11.144  0.00  0.00    +0.000 OA
ATOM     12  H   UNL     1      45.117   2.496  13.030  0.00  0.00    +0.000 HD
ATOM     13  H   UNL     1      43.712   1.723  12.394  0.00  0.00    +0.000 HD
ENDBRANCH   5   9
BRANCH   1  14
ATOM     14  C   UNL     1      48.331   8.304  12.648  0.00  0.00    +0.000 C 
ATOM     15  C   UNL     1      49.362   7.702  11.711  0.00  0.00    +0.000 C 
ATOM     16  C   UNL     1      49.230   9.186  11.801  0.00  0.00    +0.000 C 
BRANCH  14  20
ATOM     17  C   UNL     1      48.857   7.795  16.951  0.00  0.00    +0.000 A 
ATOM     18  C   UNL     1      48.408   9.018  16.443  0.00  0.00    +0.000 A 
ATOM     19  C   UNL     1      48.270   9.198  15.059  0.00  0.00    +0.000 A 
ATOM     20  C   UNL     1      48.583   8.172  14.150  0.00  0.00    +0.000 A 
ATOM     21  C   UNL     1      49.074   6.968  14.691  0.00  0.00    +0.000 A 
ATOM     22  C   UNL     1      49.193   6.781  16.064  0.00  0.00    +0.000 A 
ATOM     23  F   UNL     1      49.619   5.592  16.519  0.00  0.00    +0.000 F 
BRANCH  17  25
ATOM     24  N   UNL     1      49.026   7.373  19.498  0.00  0.00    +0.000 NA
ATOM     25  C   UNL     1      48.941   7.579  18.359  0.00  0.00    +0.000 C 
ENDBRANCH  17  25
ENDBRANCH  14  20
ENDBRANCH   1  14
TORSDOF 4
ENDMDL
MODEL 6
REMARK VINA RESULT:    -5.863      3.904      7.185
REMARK INTER + INTRA:          -7.047
REMARK INTER:                  -6.823
REMARK INTRA:                  -0.224
REMARK UNBOUND:                 0.187
REMARK  Name = 
REMARK  4 active torsions:
REMARK  status: ('A' for Active; 'I' for Inactive)
REMARK    1  A    between atoms: C_2  and  C_3
REMARK    2  A    between atoms: C_6  and  C_7
REMARK    3  A    between atoms: C_7  and  N_8
REMARK    4  A    between atoms: C_12  and  C_13
REMARK                            x       y       z     vdW  Elec       q    Type
REMARK                         _______ _______ _______ _____ _____    ______ ____
ROOT
ATOM      1  N   UNL     1      45.844   6.447  12.914  0.00  0.00    +0.000 N 
ATOM      2  C   UNL     1      45.581   5.521  11.917  0.00  0.00    +0.000 A 
ATOM      3  N   UNL     1      45.688   5.873  10.624  0.00  0.00    +0.000 NA
ATOM      4  C   UNL     1      45.378   4.945   9.697  0.00  0.00    +0.000 A 
ATOM      5  C   UNL     1      44.990   3.665  10.009  0.00  0.00    +0.000 A 
ATOM      6  C   UNL     1      44.911   3.394  11.353  0.00  0.00    +0.000 A 
ATOM      7  N   UNL     1      45.197   4.298  12.320  0.00  0.00    +0.000 NA
ATOM      8  H   UNL     1      45.596   6.107  13.830  0.00  0.00    +0.000 HD
ENDROOT
BRANCH   5   9
ATOM      9  C   UNL     1      44.645   2.722   8.938  0.00  0.00    +0.000 C 
ATOM     10  N   UNL     1      44.369   3.229   7.700  0.00  0.00    +0.000 N 
ATOM     11  O   UNL     1      44.573   1.523   9.159  0.00  0.00    +0.000 OA
ATOM     12  H   UNL     1      44.176   4.205   7.522  0.00  0.00    +0.000 HD
ATOM     13  H   UNL     1      44.030   2.560   7.018  0.00  0.00    +0.000 HD
ENDBRANCH   5   9
BRANCH   1  14
ATOM     14  C   UNL     1      46.340   7.796  12.658  0.00  0.00    +0.000 C 
ATOM     15  C   UNL     1      45.587   8.727  11.726  0.00  0.00    +0.000 C 
ATOM     16  C   UNL     1      45.499   8.937  13.201  0.00  0.00    +0.000 C 
BRANCH  14  20
ATOM     17  C   UNL     1      50.676   8.257  12.847  0.00  0.00    +0.000 A 
ATOM     18  C   UNL     1      49.975   8.705  11.723  0.00  0.00    +0.000 A 
ATOM     19  C   UNL     1      48.587   8.528  11.642  0.00  0.00    +0.000 A 
ATOM     20  C   UNL     1      47.865   7.896  12.670  0.00  0.00    +0.000 A 
ATOM     21  C   UNL     1      48.606   7.417  13.768  0.00  0.00    +0.000 A 
ATOM     22  C   UNL     1      49.980   7.608  13.860  0.00  0.00    +0.000 A 
ATOM     23  F   UNL     1      50.622   7.174  14.956  0.00  0.00    +0.000 F 
BRANCH  17  25
ATOM     24  N   UNL     1      53.221   8.688  13.036  0.00  0.00    +0.000 NA
ATOM     25  C   UNL     1      52.079   8.487  12.970  0.00  0.00    +0.000 C 
ENDBRANCH  17  25
ENDBRANCH  14  20
ENDBRANCH   1  14
TORSDOF 4
ENDMDL
MODEL 7
REMARK VINA RESULT:    -5.842      6.299      8.549
REMARK INTER + INTRA:          -7.022
REMARK INTER:                  -6.796
REMARK INTRA:                  -0.226
REMARK UNBOUND:                 0.187
REMARK  Name = 
REMARK  4 active torsions:
REMARK  status: ('A' for Active; 'I' for Inactive)
REMARK    1  A    between atoms: C_2  and  C_3
REMARK    2  A    between atoms: C_6  and  C_7
REMARK    3  A    between atoms: C_7  and  N_8
REMARK    4  A    between atoms: C_12  and  C_13
REMARK                            x       y       z     vdW  Elec       q    Type
REMARK                         _______ _______ _______ _____ _____    ______ ____
ROOT
ATOM      1  N   UNL     1      47.756   4.179  16.929  0.00  0.00    +0.000 N 
ATOM      2  C   UNL     1      47.538   4.697  15.661  0.00  0.00    +0.000 A 
ATOM      3  N   UNL     1      48.192   5.801  15.262  0.00  0.00    +0.000 NA
ATOM      4  C   UNL     1      47.910   6.285  14.036  0.00  0.00    +0.000 A 
ATOM      5  C   UNL     1      47.016   5.692  13.177  0.00  0.00    +0.000 A 
ATOM      6  C   UNL     1      46.398   4.568  13.667  0.00  0.00    +0.000 A 
ATOM      7  N   UNL     1      46.638   4.055  14.897  0.00  0.00    +0.000 NA
ATOM      8  H   UNL     1      47.110   3.440  17.158  0.00  0.00    +0.000 HD
ENDROOT
BRANCH   5   9
ATOM      9  C   UNL     1      46.747   6.298  11.867  0.00  0.00    +0.000 C 
ATOM     10  N   UNL     1      45.664   5.854  11.165  0.00  0.00    +0.000 N 
ATOM     11  O   UNL     1      47.493   7.149  11.406  0.00  0.00    +0.000 OA
ATOM     12  H   UNL     1      45.165   5.001  11.378  0.00  0.00    +0.000 HD
ATOM     13  H   UNL     1      45.574   6.216  10.221  0.00  0.00    +0.000 HD
ENDBRANCH   5   9
BRANCH   1  14
ATOM     14  C   UNL     1      48.749   4.706  17.860  0.00  0.00    +0.000 C 
ATOM     15  C   UNL     1      48.713   6.165  18.277  0.00  0.00    +0.000 C 
ATOM     16  C   UNL     1      48.236   5.118  19.228  0.00  0.00    +0.000 C 
BRANCH  14  20
ATOM     17  C   UNL     1      52.645   2.747  17.689  0.00  0.00    +0.000 A 
ATOM     18  C   UNL     1      52.568   4.138  17.804  0.00  0.00    +0.000 A 
ATOM     19  C   UNL     1      51.319   4.776  17.824  0.00  0.00    +0.000 A 
ATOM     20  C   UNL     1      50.121   4.047  17.723  0.00  0.00    +0.000 A 
ATOM     21  C   UNL     1      50.234   2.652  17.565  0.00  0.00    +0.000 A 
ATOM     22  C   UNL     1      51.470   2.016  17.564  0.00  0.00    +0.000 A 
ATOM     23  F   UNL     1      51.509   0.678  17.461  0.00  0.00    +0.000 F 
BRANCH  17  25
ATOM     24  N   UNL     1      54.938   1.553  17.798  0.00  0.00    +0.000 NA
ATOM     25  C   UNL     1      53.907   2.082  17.731  0.00  0.00    +0.000 C 
ENDBRANCH  17  25
ENDBRANCH  14  20
ENDBRANCH   1  14
TORSDOF 4
ENDMDL
MODEL 8
REMARK VINA RESULT:    -5.825      6.161      8.214
REMARK INTER + INTRA:          -7.000
REMARK INTER:                  -6.622
REMARK INTRA:                  -0.378
REMARK UNBOUND:                 0.187
REMARK  Name = 
REMARK  4 active torsions:
REMARK  status: ('A' for Active; 'I' for Inactive)
REMARK    1  A    between atoms: C_2  and  C_3
REMARK    2  A    between atoms: C_6  and  C_7
REMARK    3  A    between atoms: C_7  and  N_8
REMARK    4  A    between atoms: C_12  and  C_13
REMARK                            x       y       z     vdW  Elec       q    Type
REMARK                         _______ _______ _______ _____ _____    ______ ____
ROOT
ATOM      1  N   UNL     1      47.520   5.121  16.004  0.00  0.00    +0.000 N 
ATOM      2  C   UNL     1      48.096   5.801  14.942  0.00  0.00    +0.000 A 
ATOM      3  N   UNL     1      49.192   6.554  15.137  0.00  0.00    +0.000 NA
ATOM      4  C   UNL     1      49.684   7.227  14.078  0.00  0.00    +0.000 A 
ATOM      5  C   UNL     1      49.138   7.158  12.819  0.00  0.00    +0.000 A 
ATOM      6  C   UNL     1      48.024   6.363  12.712  0.00  0.00    +0.000 A 
ATOM      7  N   UNL     1      47.485   5.681  13.751  0.00  0.00    +0.000 NA
ATOM      8  H   UNL     1      46.633   4.710  15.761  0.00  0.00    +0.000 HD
ENDROOT
BRANCH   5   9
ATOM      9  C   UNL     1      49.721   7.943  11.724  0.00  0.00    +0.000 C 
ATOM     10  N   UNL     1      50.899   7.515  11.183  0.00  0.00    +0.000 N 
ATOM     11  O   UNL     1      49.184   8.969  11.335  0.00  0.00    +0.000 OA
ATOM     12  H   UNL     1      51.502   6.829  11.616  0.00  0.00    +0.000 HD
ATOM     13  H   UNL     1      51.325   8.140  10.507  0.00  0.00    +0.000 HD
ENDBRANCH   5   9
BRANCH   1  14
ATOM     14  C   UNL     1      48.092   5.083  17.347  0.00  0.00    +0.000 C 
ATOM     15  C   UNL     1      48.159   6.343  18.190  0.00  0.00    +0.000 C 
ATOM     16  C   UNL     1      47.126   5.309  18.496  0.00  0.00    +0.000 C 
BRANCH  14  20
ATOM     17  C   UNL     1      51.449   2.304  17.573  0.00  0.00    +0.000 A 
ATOM     18  C   UNL     1      50.200   1.853  17.136  0.00  0.00    +0.000 A 
ATOM     19  C   UNL     1      49.109   2.734  17.095  0.00  0.00    +0.000 A 
ATOM     20  C   UNL     1      49.233   4.077  17.493  0.00  0.00    +0.000 A 
ATOM     21  C   UNL     1      50.494   4.487  17.969  0.00  0.00    +0.000 A 
ATOM     22  C   UNL     1      51.581   3.621  17.993  0.00  0.00    +0.000 A 
ATOM     23  F   UNL     1      52.769   4.087  18.409  0.00  0.00    +0.000 F 
BRANCH  17  25
ATOM     24  N   UNL     1      53.502   0.729  17.514  0.00  0.00    +0.000 NA
ATOM     25  C   UNL     1      52.581   1.435  17.560  0.00  0.00    +0.000 C 
ENDBRANCH  17  25
ENDBRANCH  14  20
ENDBRANCH   1  14
TORSDOF 4
ENDMDL
MODEL 9
REMARK VINA RESULT:    -5.626      6.782      8.737
REMARK INTER + INTRA:          -6.755
REMARK INTER:                  -6.515
REMARK INTRA:                  -0.239
REMARK UNBOUND:                 0.187
REMARK  Name = 
REMARK  4 active torsions:
REMARK  status: ('A' for Active; 'I' for Inactive)
REMARK    1  A    between atoms: C_2  and  C_3
REMARK    2  A    between atoms: C_6  and  C_7
REMARK    3  A    between atoms: C_7  and  N_8
REMARK    4  A    between atoms: C_12  and  C_13
REMARK                            x       y       z     vdW  Elec       q    Type
REMARK                         _______ _______ _______ _____ _____    ______ ____
ROOT
ATOM      1  N   UNL     1      49.826   4.919  17.742  0.00  0.00    +0.000 N 
ATOM      2  C   UNL     1      50.667   3.820  17.661  0.00  0.00    +0.000 A 
ATOM      3  N   UNL     1      50.159   2.597  17.435  0.00  0.00    +0.000 NA
ATOM      4  C   UNL     1      51.018   1.558  17.410  0.00  0.00    +0.000 A 
ATOM      5  C   UNL     1      52.375   1.696  17.574  0.00  0.00    +0.000 A 
ATOM      6  C   UNL     1      52.805   2.981  17.795  0.00  0.00    +0.000 A 
ATOM      7  N   UNL     1      51.978   4.052  17.846  0.00  0.00    +0.000 NA
ATOM      8  H   UNL     1      50.308   5.749  18.050  0.00  0.00    +0.000 HD
ENDROOT
BRANCH   5   9
ATOM      9  C   UNL     1      53.239   0.510  17.556  0.00  0.00    +0.000 C 
ATOM     10  N   UNL     1      53.015  -0.461  18.490  0.00  0.00    +0.000 N 
ATOM     11  O   UNL     1      54.155   0.414  16.753  0.00  0.00    +0.000 OA
ATOM     12  H   UNL     1      52.448  -0.329  19.316  0.00  0.00    +0.000 HD
ATOM     13  H   UNL     1      53.699  -1.210  18.517  0.00  0.00    +0.000 HD
ENDBRANCH   5   9
BRANCH   1  14
ATOM     14  C   UNL     1      48.389   4.860  17.496  0.00  0.00    +0.000 C 
ATOM     15  C   UNL     1      47.510   3.918  18.299  0.00  0.00    +0.000 C 
ATOM     16  C   UNL     1      47.493   5.379  18.607  0.00  0.00    +0.000 C 
BRANCH  14  20
ATOM     17  C   UNL     1      47.163   5.709  13.394  0.00  0.00    +0.000 A 
ATOM     18  C   UNL     1      46.715   4.547  14.029  0.00  0.00    +0.000 A 
ATOM     19  C   UNL     1      47.134   4.252  15.335  0.00  0.00    +0.000 A 
ATOM     20  C   UNL     1      48.011   5.099  16.034  0.00  0.00    +0.000 A 
ATOM     21  C   UNL     1      48.478   6.239  15.350  0.00  0.00    +0.000 A 
ATOM     22  C   UNL     1      48.049   6.543  14.064  0.00  0.00    +0.000 A 
ATOM     23  F   UNL     1      48.491   7.671  13.485  0.00  0.00    +0.000 F 
BRANCH  17  25
ATOM     24  N   UNL     1      46.327   6.302  11.018  0.00  0.00    +0.000 NA
ATOM     25  C   UNL     1      46.694   6.052  12.091  0.00  0.00    +0.000 C 
ENDBRANCH  17  25
ENDBRANCH  14  20
ENDBRANCH   1  14
TORSDOF 4
ENDMDL
