MODEL 1
REMARK VINA RESULT:    -7.290      0.000      0.000
REMARK INTER + INTRA:         -11.371
REMARK INTER:                 -10.060
REMARK INTRA:                  -1.311
REMARK UNBOUND:                -1.311
REMARK  Name = 
REMARK  8 active torsions:
REMARK  status: ('A' for Active; 'I' for Inactive)
REMARK    1  A    between atoms: C_1  and  N_2
REMARK    2  A    between atoms: N_2  and  C_3
REMARK    3  A    between atoms: C_3  and  C_4
REMARK    4  A    between atoms: C_7  and  C_8
REMARK    5  A    between atoms: C_8  and  N_9
REMARK    6  A    between atoms: N_9  and  C_10
REMARK    7  A    between atoms: C_13  and  N_14
REMARK    8  A    between atoms: C_18  and  C_20
REMARK                            x       y       z     vdW  Elec       q    Type
REMARK                         _______ _______ _______ _____ _____    ______ ____
ROOT
ATOM      1  C   UNL     1      46.765   6.320  12.986  0.00  0.00    +0.000 A 
ATOM      2  C   UNL     1      46.441   5.079  13.556  0.00  0.00    +0.000 A 
ATOM      3  C   UNL     1      45.692   4.152  12.841  0.00  0.00    +0.000 A 
ATOM      4  C   UNL     1      45.249   4.448  11.543  0.00  0.00    +0.000 A 
ATOM      5  C   UNL     1      45.594   5.677  10.968  0.00  0.00    +0.000 A 
ATOM      6  C   UNL     1      46.351   6.606  11.681  0.00  0.00    +0.000 A 
ENDROOT
BRANCH   1   7
ATOM      7  C   UNL     1      47.512   7.347  13.784  0.00  0.00    +0.000 C 
BRANCH   7   9
ATOM      8  C   UNL     1      49.747   7.643  12.632  0.00  0.00    +0.000 C 
ATOM      9  N   UNL     1      48.974   7.272  13.811  0.00  0.00    +0.000 N 
ATOM     10  C   UNL     1      49.700   7.148  15.010  0.00  0.00    +0.000 C 
ATOM     11  O   UNL     1      50.915   7.324  15.039  0.00  0.00    +0.000 OA
BRANCH  10  12
ATOM     12  C   UNL     1      48.993   6.762  16.245  0.00  0.00    +0.000 A 
ATOM     13  C   UNL     1      48.822   5.456  16.676  0.00  0.00    +0.000 A 
ATOM     14  S   UNL     1      48.013   5.327  18.172  0.00  0.00    +0.000 S 
ATOM     15  C   UNL     1      48.005   7.013  18.366  0.00  0.00    +0.000 A 
ATOM     16  N   UNL     1      47.557   7.580  19.519  0.00  0.00    +0.000 NA
ATOM     17  C   UNL     1      47.675   8.863  19.558  0.00  0.00    +0.000 A 
ATOM     18  N   UNL     1      48.168   9.638  18.533  0.00  0.00    +0.000 N 
ATOM     19  C   UNL     1      48.494   9.119  17.293  0.00  0.00    +0.000 A 
ATOM     20  O   UNL     1      48.665   9.858  16.331  0.00  0.00    +0.000 OA
ATOM     21  C   UNL     1      48.508   7.669  17.258  0.00  0.00    +0.000 A 
ATOM     22  H   UNL     1      48.161  10.641  18.601  0.00  0.00    +0.000 HD
ENDBRANCH  10  12
ENDBRANCH   7   9
ENDBRANCH   1   7
BRANCH   4  23
ATOM     23  C   UNL     1      44.422   3.445  10.772  0.00  0.00    +0.000 C 
BRANCH  23  24
ATOM     24  N   UNL     1      45.282   2.443  10.142  0.00  0.00    +0.000 NA
ATOM     25  H   UNL     1      45.243   1.598  10.714  0.00  0.00    +0.000 HD
BRANCH  24  26
ATOM     26  C   UNL     1      44.881   2.106   8.774  0.00  0.00    +0.000 C 
ATOM     27  C   UNL     1      44.902   3.285   7.790  0.00  0.00    +0.000 C 
ATOM     28  C   UNL     1      46.321   3.362   7.216  0.00  0.00    +0.000 C 
ATOM     29  C   UNL     1      47.055   2.129   7.743  0.00  0.00    +0.000 C 
ATOM     30  C   UNL     1      45.938   1.173   8.166  0.00  0.00    +0.000 C 
BRANCH  29  31
ATOM     31  N   UNL     1      47.960   1.554   6.755  0.00  0.00    +0.000 NA
ATOM     32  H   UNL     1      48.607   2.266   6.420  0.00  0.00    +0.000 HD
ATOM     33  H   UNL     1      47.425   1.250   5.943  0.00  0.00    +0.000 HD
ENDBRANCH  29  31
ENDBRANCH  24  26
ENDBRANCH  23  24
ENDBRANCH   4  23
TORSDOF 7
ENDMDL
MODEL 2
REMARK VINA RESULT:    -7.265      1.268      2.077
REMARK INTER + INTRA:         -11.336
REMARK INTER:                 -10.231
REMARK INTRA:                  -1.105
REMARK UNBOUND:                -1.311
REMARK  Name = 
REMARK  8 active torsions:
REMARK  status: ('A' for Active; 'I' for Inactive)
REMARK    1  A    between atoms: C_1  and  N_2
REMARK    2  A    between atoms: N_2  and  C_3
REMARK    3  A    between atoms: C_3  and  C_4
REMARK    4  A    between atoms: C_7  and  C_8
REMARK    5  A    between atoms: C_8  and  N_9
REMARK    6  A    between atoms: N_9  and  C_10
REMARK    7  A    between atoms: C_13  and  N_14
REMARK    8  A    between atoms: C_18  and  C_20
REMARK                            x       y       z     vdW  Elec       q    Type
REMARK                         _______ _______ _______ _____ _____    ______ ____
ROOT
ATOM      1  C   UNL     1      46.529   6.434  12.970  0.00  0.00    +0.000 A 
ATOM      2  C   UNL     1      45.958   6.727  11.722  0.00  0.00    +0.000 A 
ATOM      3  C   UNL     1      45.270   5.747  11.016  0.00  0.00    +0.000 A 
ATOM      4  C   UNL     1      45.142   4.453  11.543  0.00  0.00    +0.000 A 
ATOM      5  C   UNL     1      45.691   4.170  12.800  0.00  0.00    +0.000 A 
ATOM      6  C   UNL     1      46.376   5.154  13.512  0.00  0.00    +0.000 A 
ENDROOT
BRANCH   1   7
ATOM      7  C   UNL     1      47.331   7.472  13.698  0.00  0.00    +0.000 C 
BRANCH   7   9
ATOM      8  C   UNL     1      49.434   7.059  12.352  0.00  0.00    +0.000 C 
ATOM      9  N   UNL     1      48.790   7.402  13.614  0.00  0.00    +0.000 N 
ATOM     10  C   UNL     1      49.629   7.941  14.607  0.00  0.00    +0.000 C 
ATOM     11  O   UNL     1      50.833   8.086  14.413  0.00  0.00    +0.000 OA
BRANCH  10  12
ATOM     12  C   UNL     1      49.057   8.300  15.918  0.00  0.00    +0.000 A 
ATOM     13  C   UNL     1      48.685   9.583  16.287  0.00  0.00    +0.000 A 
ATOM     14  S   UNL     1      48.001   9.678  17.846  0.00  0.00    +0.000 S 
ATOM     15  C   UNL     1      48.037   7.990  18.016  0.00  0.00    +0.000 A 
ATOM     16  N   UNL     1      47.474   7.386  19.097  0.00  0.00    +0.000 NA
ATOM     17  C   UNL     1      47.510   6.098  19.062  0.00  0.00    +0.000 A 
ATOM     18  N   UNL     1      48.091   5.356  18.059  0.00  0.00    +0.000 N 
ATOM     19  C   UNL     1      48.802   5.929  17.019  0.00  0.00    +0.000 A 
ATOM     20  O   UNL     1      49.529   5.246  16.308  0.00  0.00    +0.000 OA
ATOM     21  C   UNL     1      48.664   7.371  16.950  0.00  0.00    +0.000 A 
ATOM     22  H   UNL     1      48.152   4.355  18.131  0.00  0.00    +0.000 HD
ENDBRANCH  10  12
ENDBRANCH   7   9
ENDBRANCH   1   7
BRANCH   4  23
ATOM     23  C   UNL     1      44.407   3.384  10.768  0.00  0.00    +0.000 C 
BRANCH  23  24
ATOM     24  N   UNL     1      45.353   2.498  10.087  0.00  0.00    +0.000 NA
ATOM     25  H   UNL     1      45.445   1.653  10.652  0.00  0.00    +0.000 HD
BRANCH  24  26
ATOM     26  C   UNL     1      44.931   2.121   8.736  0.00  0.00    +0.000 C 
ATOM     27  C   UNL     1      44.922   3.273   7.721  0.00  0.00    +0.000 C 
ATOM     28  C   UNL     1      46.328   3.349   7.120  0.00  0.00    +0.000 C 
ATOM     29  C   UNL     1      47.085   2.138   7.666  0.00  0.00    +0.000 C 
ATOM     30  C   UNL     1      45.986   1.182   8.134  0.00  0.00    +0.000 C 
BRANCH  29  31
ATOM     31  N   UNL     1      47.978   1.546   6.677  0.00  0.00    +0.000 NA
ATOM     32  H   UNL     1      48.450   0.735   7.076  0.00  0.00    +0.000 HD
ATOM     33  H   UNL     1      48.712   2.213   6.442  0.00  0.00    +0.000 HD
ENDBRANCH  29  31
ENDBRANCH  24  26
ENDBRANCH  23  24
ENDBRANCH   4  23
TORSDOF 7
ENDMDL
MODEL 3
REMARK VINA RESULT:    -6.793      2.742      4.507
REMARK INTER + INTRA:         -10.685
REMARK INTER:                  -9.213
REMARK INTRA:                  -1.472
REMARK UNBOUND:                -1.311
REMARK  Name = 
REMARK  8 active torsions:
REMARK  status: ('A' for Active; 'I' for Inactive)
REMARK    1  A    between atoms: C_1  and  N_2
REMARK    2  A    between atoms: N_2  and  C_3
REMARK    3  A    between atoms: C_3  and  C_4
REMARK    4  A    between atoms: C_7  and  C_8
REMARK    5  A    between atoms: C_8  and  N_9
REMARK    6  A    between atoms: N_9  and  C_10
REMARK    7  A    between atoms: C_13  and  N_14
REMARK    8  A    between atoms: C_18  and  C_20
REMARK                            x       y       z     vdW  Elec       q    Type
REMARK                         _______ _______ _______ _____ _____    ______ ____
ROOT
ATOM      1  C   UNL     1      48.274   6.982  14.518  0.00  0.00    +0.000 A 
ATOM      2  C   UNL     1      47.927   8.217  13.951  0.00  0.00    +0.000 A 
ATOM      3  C   UNL     1      46.921   8.293  12.994  0.00  0.00    +0.000 A 
ATOM      4  C   UNL     1      46.246   7.135  12.582  0.00  0.00    +0.000 A 
ATOM      5  C   UNL     1      46.577   5.906  13.168  0.00  0.00    +0.000 A 
ATOM      6  C   UNL     1      47.581   5.829  14.133  0.00  0.00    +0.000 A 
ENDROOT
BRANCH   1   7
ATOM      7  C   UNL     1      49.405   6.890  15.499  0.00  0.00    +0.000 C 
BRANCH   7   9
ATOM      8  C   UNL     1      49.288   8.868  17.074  0.00  0.00    +0.000 C 
ATOM      9  N   UNL     1      49.201   7.431  16.844  0.00  0.00    +0.000 N 
ATOM     10  C   UNL     1      48.625   6.675  17.881  0.00  0.00    +0.000 C 
ATOM     11  O   UNL     1      48.245   7.207  18.921  0.00  0.00    +0.000 OA
BRANCH  10  12
ATOM     12  C   UNL     1      48.513   5.212  17.731  0.00  0.00    +0.000 A 
ATOM     13  C   UNL     1      47.337   4.541  17.440  0.00  0.00    +0.000 A 
ATOM     14  S   UNL     1      47.532   2.855  17.272  0.00  0.00    +0.000 S 
ATOM     15  C   UNL     1      49.217   2.987  17.428  0.00  0.00    +0.000 A 
ATOM     16  N   UNL     1      50.019   1.903  17.255  0.00  0.00    +0.000 NA
ATOM     17  C   UNL     1      51.280   2.161  17.331  0.00  0.00    +0.000 A 
ATOM     18  N   UNL     1      51.813   3.401  17.601  0.00  0.00    +0.000 N 
ATOM     19  C   UNL     1      51.033   4.496  17.929  0.00  0.00    +0.000 A 
ATOM     20  O   UNL     1      51.537   5.496  18.425  0.00  0.00    +0.000 OA
ATOM     21  C   UNL     1      49.615   4.279  17.718  0.00  0.00    +0.000 A 
ATOM     22  H   UNL     1      52.804   3.517  17.722  0.00  0.00    +0.000 HD
ENDBRANCH  10  12
ENDBRANCH   7   9
ENDBRANCH   1   7
BRANCH   4  23
ATOM     23  C   UNL     1      45.163   7.216  11.530  0.00  0.00    +0.000 C 
BRANCH  23  24
ATOM     24  N   UNL     1      43.976   6.473  11.954  0.00  0.00    +0.000 NA
ATOM     25  H   UNL     1      43.243   7.154  12.160  0.00  0.00    +0.000 HD
BRANCH  24  26
ATOM     26  C   UNL     1      43.481   5.536  10.943  0.00  0.00    +0.000 C 
ATOM     27  C   UNL     1      44.578   4.798  10.160  0.00  0.00    +0.000 C 
ATOM     28  C   UNL     1      44.932   3.543  10.964  0.00  0.00    +0.000 C 
ATOM     29  C   UNL     1      43.921   3.478  12.110  0.00  0.00    +0.000 C 
ATOM     30  C   UNL     1      42.769   4.375  11.652  0.00  0.00    +0.000 C 
BRANCH  29  31
ATOM     31  N   UNL     1      43.504   2.114  12.409  0.00  0.00    +0.000 NA
ATOM     32  H   UNL     1      43.575   1.941  13.411  0.00  0.00    +0.000 HD
ATOM     33  H   UNL     1      44.143   1.459  11.962  0.00  0.00    +0.000 HD
ENDBRANCH  29  31
ENDBRANCH  24  26
ENDBRANCH  23  24
ENDBRANCH   4  23
TORSDOF 7
ENDMDL
MODEL 4
REMARK VINA RESULT:    -6.584      3.952      8.100
REMARK INTER + INTRA:         -10.397
REMARK INTER:                  -8.993
REMARK INTRA:                  -1.405
REMARK UNBOUND:                -1.311
REMARK  Name = 
REMARK  8 active torsions:
REMARK  status: ('A' for Active; 'I' for Inactive)
REMARK    1  A    between atoms: C_1  and  N_2
REMARK    2  A    between atoms: N_2  and  C_3
REMARK    3  A    between atoms: C_3  and  C_4
REMARK    4  A    between atoms: C_7  and  C_8
REMARK    5  A    between atoms: C_8  and  N_9
REMARK    6  A    between atoms: N_9  and  C_10
REMARK    7  A    between atoms: C_13  and  N_14
REMARK    8  A    between atoms: C_18  and  C_20
REMARK                            x       y       z     vdW  Elec       q    Type
REMARK                         _______ _______ _______ _____ _____    ______ ____
ROOT
ATOM      1  C   UNL     1      47.795   6.854  12.799  0.00  0.00    +0.000 A 
ATOM      2  C   UNL     1      48.273   7.271  11.548  0.00  0.00    +0.000 A 
ATOM      3  C   UNL     1      49.526   7.863  11.437  0.00  0.00    +0.000 A 
ATOM      4  C   UNL     1      50.324   8.052  12.574  0.00  0.00    +0.000 A 
ATOM      5  C   UNL     1      49.855   7.612  13.819  0.00  0.00    +0.000 A 
ATOM      6  C   UNL     1      48.601   7.013  13.932  0.00  0.00    +0.000 A 
ENDROOT
BRANCH   1   7
ATOM      7  C   UNL     1      46.414   6.280  12.930  0.00  0.00    +0.000 C 
BRANCH   7   9
ATOM      8  C   UNL     1      45.324   8.543  12.617  0.00  0.00    +0.000 C 
ATOM      9  N   UNL     1      45.283   7.092  12.479  0.00  0.00    +0.000 N 
ATOM     10  C   UNL     1      44.275   6.581  11.642  0.00  0.00    +0.000 C 
ATOM     11  O   UNL     1      43.471   7.326  11.085  0.00  0.00    +0.000 OA
BRANCH  10  12
ATOM     12  C   UNL     1      44.156   5.123  11.461  0.00  0.00    +0.000 A 
ATOM     13  C   UNL     1      43.399   4.290  12.269  0.00  0.00    +0.000 A 
ATOM     14  S   UNL     1      43.412   2.658  11.777  0.00  0.00    +0.000 S 
ATOM     15  C   UNL     1      44.301   3.037  10.382  0.00  0.00    +0.000 A 
ATOM     16  N   UNL     1      44.556   2.090   9.439  0.00  0.00    +0.000 NA
ATOM     17  C   UNL     1      45.178   2.532   8.401  0.00  0.00    +0.000 A 
ATOM     18  N   UNL     1      45.602   3.830   8.233  0.00  0.00    +0.000 N 
ATOM     19  C   UNL     1      45.496   4.787   9.227  0.00  0.00    +0.000 A 
ATOM     20  O   UNL     1      46.120   5.838   9.151  0.00  0.00    +0.000 OA
ATOM     21  C   UNL     1      44.680   4.366  10.349  0.00  0.00    +0.000 A 
ATOM     22  H   UNL     1      46.150   4.090   7.431  0.00  0.00    +0.000 HD
ENDBRANCH  10  12
ENDBRANCH   7   9
ENDBRANCH   1   7
BRANCH   4  23
ATOM     23  C   UNL     1      51.680   8.708  12.455  0.00  0.00    +0.000 C 
BRANCH  23  24
ATOM     24  N   UNL     1      51.903   9.185  11.089  0.00  0.00    +0.000 NA
ATOM     25  H   UNL     1      51.851  10.205  11.105  0.00  0.00    +0.000 HD
BRANCH  24  26
ATOM     26  C   UNL     1      53.200   8.787  10.535  0.00  0.00    +0.000 C 
ATOM     27  C   UNL     1      53.683   7.395  10.971  0.00  0.00    +0.000 C 
ATOM     28  C   UNL     1      53.096   6.387   9.979  0.00  0.00    +0.000 C 
ATOM     29  C   UNL     1      52.422   7.218   8.885  0.00  0.00    +0.000 C 
ATOM     30  C   UNL     1      53.053   8.605   9.018  0.00  0.00    +0.000 C 
BRANCH  29  31
ATOM     31  N   UNL     1      52.589   6.635   7.559  0.00  0.00    +0.000 NA
ATOM     32  H   UNL     1      52.789   7.368   6.880  0.00  0.00    +0.000 HD
ATOM     33  H   UNL     1      51.712   6.207   7.265  0.00  0.00    +0.000 HD
ENDBRANCH  29  31
ENDBRANCH  24  26
ENDBRANCH  23  24
ENDBRANCH   4  23
TORSDOF 7
ENDMDL
MODEL 5
REMARK VINA RESULT:    -6.471      3.272      3.849
REMARK INTER + INTRA:         -10.241
REMARK INTER:                  -9.065
REMARK INTRA:                  -1.176
REMARK UNBOUND:                -1.311
REMARK  Name = 
REMARK  8 active torsions:
REMARK  status: ('A' for Active; 'I' for Inactive)
REMARK    1  A    between atoms: C_1  and  N_2
REMARK    2  A    between atoms: N_2  and  C_3
REMARK    3  A    between atoms: C_3  and  C_4
REMARK    4  A    between atoms: C_7  and  C_8
REMARK    5  A    between atoms: C_8  and  N_9
REMARK    6  A    between atoms: N_9  and  C_10
REMARK    7  A    between atoms: C_13  and  N_14
REMARK    8  A    between atoms: C_18  and  C_20
REMARK                            x       y       z     vdW  Elec       q    Type
REMARK                         _______ _______ _______ _____ _____    ______ ____
ROOT
ATOM      1  C   UNL     1      45.604   7.144  12.543  0.00  0.00    +0.000 A 
ATOM      2  C   UNL     1      46.042   5.987  13.204  0.00  0.00    +0.000 A 
ATOM      3  C   UNL     1      45.690   4.730  12.726  0.00  0.00    +0.000 A 
ATOM      4  C   UNL     1      44.890   4.605  11.581  0.00  0.00    +0.000 A 
ATOM      5  C   UNL     1      44.474   5.762  10.909  0.00  0.00    +0.000 A 
ATOM      6  C   UNL     1      44.832   7.023  11.382  0.00  0.00    +0.000 A 
ENDROOT
BRANCH   1   7
ATOM      7  C   UNL     1      45.925   8.501  13.098  0.00  0.00    +0.000 C 
BRANCH   7   9
ATOM      8  C   UNL     1      45.002  10.473  11.809  0.00  0.00    +0.000 C 
ATOM      9  N   UNL     1      46.120   9.605  12.157  0.00  0.00    +0.000 N 
ATOM     10  C   UNL     1      47.397  10.068  11.792  0.00  0.00    +0.000 C 
ATOM     11  O   UNL     1      47.542  11.133  11.197  0.00  0.00    +0.000 OA
BRANCH  10  12
ATOM     12  C   UNL     1      48.579   9.241  12.096  0.00  0.00    +0.000 A 
ATOM     13  C   UNL     1      48.973   8.134  11.362  0.00  0.00    +0.000 A 
ATOM     14  S   UNL     1      50.413   7.414  11.923  0.00  0.00    +0.000 S 
ATOM     15  C   UNL     1      50.640   8.649  13.065  0.00  0.00    +0.000 A 
ATOM     16  N   UNL     1      51.775   8.706  13.813  0.00  0.00    +0.000 NA
ATOM     17  C   UNL     1      51.847   9.734  14.587  0.00  0.00    +0.000 A 
ATOM     18  N   UNL     1      50.869  10.695  14.709  0.00  0.00    +0.000 N 
ATOM     19  C   UNL     1      49.641  10.597  14.080  0.00  0.00    +0.000 A 
ATOM     20  O   UNL     1      48.706  11.313  14.419  0.00  0.00    +0.000 OA
ATOM     21  C   UNL     1      49.578   9.533  13.097  0.00  0.00    +0.000 A 
ATOM     22  H   UNL     1      50.956  11.431  15.388  0.00  0.00    +0.000 HD
ENDBRANCH  10  12
ENDBRANCH   7   9
ENDBRANCH   1   7
BRANCH   4  23
ATOM     23  C   UNL     1      44.495   3.238  11.071  0.00  0.00    +0.000 C 
BRANCH  23  24
ATOM     24  N   UNL     1      45.505   2.722  10.146  0.00  0.00    +0.000 NA
ATOM     25  H   UNL     1      45.936   1.906  10.583  0.00  0.00    +0.000 HD
BRANCH  24  26
ATOM     26  C   UNL     1      44.958   2.327   8.845  0.00  0.00    +0.000 C 
ATOM     27  C   UNL     1      44.963   3.436   7.783  0.00  0.00    +0.000 C 
ATOM     28  C   UNL     1      46.324   3.378   7.083  0.00  0.00    +0.000 C 
ATOM     29  C   UNL     1      47.024   2.132   7.628  0.00  0.00    +0.000 C 
ATOM     30  C   UNL     1      45.892   1.285   8.213  0.00  0.00    +0.000 C 
BRANCH  29  31
ATOM     31  N   UNL     1      47.795   1.434   6.607  0.00  0.00    +0.000 NA
ATOM     32  H   UNL     1      48.424   0.762   7.044  0.00  0.00    +0.000 HD
ATOM     33  H   UNL     1      48.389   2.101   6.116  0.00  0.00    +0.000 HD
ENDBRANCH  29  31
ENDBRANCH  24  26
ENDBRANCH  23  24
ENDBRANCH   4  23
TORSDOF 7
ENDMDL
MODEL 6
REMARK VINA RESULT:    -6.470      2.657      4.468
REMARK INTER + INTRA:         -10.239
REMARK INTER:                  -9.031
REMARK INTRA:                  -1.208
REMARK UNBOUND:                -1.311
REMARK  Name = 
REMARK  8 active torsions:
REMARK  status: ('A' for Active; 'I' for Inactive)
REMARK    1  A    between atoms: C_1  and  N_2
REMARK    2  A    between atoms: N_2  and  C_3
REMARK    3  A    between atoms: C_3  and  C_4
REMARK    4  A    between atoms: C_7  and  C_8
REMARK    5  A    between atoms: C_8  and  N_9
REMARK    6  A    between atoms: N_9  and  C_10
REMARK    7  A    between atoms: C_13  and  N_14
REMARK    8  A    between atoms: C_18  and  C_20
REMARK                            x       y       z     vdW  Elec       q    Type
REMARK                         _______ _______ _______ _____ _____    ______ ____
ROOT
ATOM      1  C   UNL     1      48.457   7.866  14.797  0.00  0.00    +0.000 A 
ATOM      2  C   UNL     1      47.725   8.859  14.130  0.00  0.00    +0.000 A 
ATOM      3  C   UNL     1      46.931   8.531  13.036  0.00  0.00    +0.000 A 
ATOM      4  C   UNL     1      46.858   7.205  12.585  0.00  0.00    +0.000 A 
ATOM      5  C   UNL     1      47.571   6.212  13.268  0.00  0.00    +0.000 A 
ATOM      6  C   UNL     1      48.362   6.537  14.369  0.00  0.00    +0.000 A 
ENDROOT
BRANCH   1   7
ATOM      7  C   UNL     1      49.368   8.230  15.933  0.00  0.00    +0.000 C 
BRANCH   7   9
ATOM      8  C   UNL     1      47.819   9.241  17.660  0.00  0.00    +0.000 C 
ATOM      9  N   UNL     1      48.812   8.242  17.287  0.00  0.00    +0.000 N 
ATOM     10  C   UNL     1      48.957   7.157  18.170  0.00  0.00    +0.000 C 
ATOM     11  O   UNL     1      48.292   7.083  19.201  0.00  0.00    +0.000 OA
BRANCH  10  12
ATOM     12  C   UNL     1      49.951   6.109  17.871  0.00  0.00    +0.000 A 
ATOM     13  C   UNL     1      51.316   6.245  18.066  0.00  0.00    +0.000 A 
ATOM     14  S   UNL     1      52.207   4.842  17.682  0.00  0.00    +0.000 S 
ATOM     15  C   UNL     1      50.784   3.961  17.394  0.00  0.00    +0.000 A 
ATOM     16  N   UNL     1      50.832   2.627  17.136  0.00  0.00    +0.000 NA
ATOM     17  C   UNL     1      49.676   2.072  17.008  0.00  0.00    +0.000 A 
ATOM     18  N   UNL     1      48.473   2.737  17.079  0.00  0.00    +0.000 N 
ATOM     19  C   UNL     1      48.384   4.113  17.191  0.00  0.00    +0.000 A 
ATOM     20  O   UNL     1      47.326   4.691  16.977  0.00  0.00    +0.000 OA
ATOM     21  C   UNL     1      49.654   4.753  17.477  0.00  0.00    +0.000 A 
ATOM     22  H   UNL     1      47.610   2.256  16.894  0.00  0.00    +0.000 HD
ENDBRANCH  10  12
ENDBRANCH   7   9
ENDBRANCH   1   7
BRANCH   4  23
ATOM     23  C   UNL     1      46.007   6.853  11.387  0.00  0.00    +0.000 C 
BRANCH  23  24
ATOM     24  N   UNL     1      45.543   5.467  11.474  0.00  0.00    +0.000 NA
ATOM     25  H   UNL     1      45.260   5.297  12.440  0.00  0.00    +0.000 HD
BRANCH  24  26
ATOM     26  C   UNL     1      44.413   5.173  10.590  0.00  0.00    +0.000 C 
ATOM     27  C   UNL     1      44.735   4.218   9.431  0.00  0.00    +0.000 C 
ATOM     28  C   UNL     1      44.528   2.794   9.956  0.00  0.00    +0.000 C 
ATOM     29  C   UNL     1      43.926   2.944  11.353  0.00  0.00    +0.000 C 
ATOM     30  C   UNL     1      43.368   4.369  11.376  0.00  0.00    +0.000 C 
BRANCH  29  31
ATOM     31  N   UNL     1      42.921   1.929  11.640  0.00  0.00    +0.000 NA
ATOM     32  H   UNL     1      43.093   1.099  11.074  0.00  0.00    +0.000 HD
ATOM     33  H   UNL     1      42.003   2.274  11.365  0.00  0.00    +0.000 HD
ENDBRANCH  29  31
ENDBRANCH  24  26
ENDBRANCH  23  24
ENDBRANCH   4  23
TORSDOF 7
ENDMDL
MODEL 7
REMARK VINA RESULT:    -6.440      2.170      2.868
REMARK INTER + INTRA:         -10.198
REMARK INTER:                  -8.818
REMARK INTRA:                  -1.379
REMARK UNBOUND:                -1.311
REMARK  Name = 
REMARK  8 active torsions:
REMARK  status: ('A' for Active; 'I' for Inactive)
REMARK    1  A    between atoms: C_1  and  N_2
REMARK    2  A    between atoms: N_2  and  C_3
REMARK    3  A    between atoms: C_3  and  C_4
REMARK    4  A    between atoms: C_7  and  C_8
REMARK    5  A    between atoms: C_8  and  N_9
REMARK    6  A    between atoms: N_9  and  C_10
REMARK    7  A    between atoms: C_13  and  N_14
REMARK    8  A    between atoms: C_18  and  C_20
REMARK                            x       y       z     vdW  Elec       q    Type
REMARK                         _______ _______ _______ _____ _____    ______ ____
ROOT
ATOM      1  C   UNL     1      47.692   7.972  14.058  0.00  0.00    +0.000 A 
ATOM      2  C   UNL     1      47.637   6.668  13.545  0.00  0.00    +0.000 A 
ATOM      3  C   UNL     1      46.614   6.296  12.680  0.00  0.00    +0.000 A 
ATOM      4  C   UNL     1      45.624   7.219  12.314  0.00  0.00    +0.000 A 
ATOM      5  C   UNL     1      45.694   8.528  12.809  0.00  0.00    +0.000 A 
ATOM      6  C   UNL     1      46.723   8.905  13.671  0.00  0.00    +0.000 A 
ENDROOT
BRANCH   1   7
ATOM      7  C   UNL     1      48.755   8.354  15.046  0.00  0.00    +0.000 C 
BRANCH   7   9
ATOM      8  C   UNL     1      51.130   8.001  14.247  0.00  0.00    +0.000 C 
ATOM      9  N   UNL     1      49.997   7.578  15.059  0.00  0.00    +0.000 N 
ATOM     10  C   UNL     1      50.270   6.611  16.042  0.00  0.00    +0.000 C 
ATOM     11  O   UNL     1      51.398   6.144  16.180  0.00  0.00    +0.000 OA
BRANCH  10  12
ATOM     12  C   UNL     1      49.173   6.119  16.897  0.00  0.00    +0.000 A 
ATOM     13  C   UNL     1      48.447   4.964  16.656  0.00  0.00    +0.000 A 
ATOM     14  S   UNL     1      47.280   4.625  17.852  0.00  0.00    +0.000 S 
ATOM     15  C   UNL     1      47.813   5.922  18.807  0.00  0.00    +0.000 A 
ATOM     16  N   UNL     1      47.305   6.125  20.052  0.00  0.00    +0.000 NA
ATOM     17  C   UNL     1      47.851   7.101  20.693  0.00  0.00    +0.000 A 
ATOM     18  N   UNL     1      48.836   7.918  20.188  0.00  0.00    +0.000 N 
ATOM     19  C   UNL     1      49.275   7.841  18.879  0.00  0.00    +0.000 A 
ATOM     20  O   UNL     1      49.942   8.744  18.388  0.00  0.00    +0.000 OA
ATOM     21  C   UNL     1      48.788   6.671  18.174  0.00  0.00    +0.000 A 
ATOM     22  H   UNL     1      49.164   8.710  20.715  0.00  0.00    +0.000 HD
ENDBRANCH  10  12
ENDBRANCH   7   9
ENDBRANCH   1   7
BRANCH   4  23
ATOM     23  C   UNL     1      44.504   6.809  11.386  0.00  0.00    +0.000 C 
BRANCH  23  24
ATOM     24  N   UNL     1      44.969   5.802  10.431  0.00  0.00    +0.000 NA
ATOM     25  H   UNL     1      45.682   5.240  10.897  0.00  0.00    +0.000 HD
BRANCH  24  26
ATOM     26  C   UNL     1      43.905   4.915   9.954  0.00  0.00    +0.000 C 
ATOM     27  C   UNL     1      44.396   3.689   9.169  0.00  0.00    +0.000 C 
ATOM     28  C   UNL     1      44.678   2.586  10.195  0.00  0.00    +0.000 C 
ATOM     29  C   UNL     1      44.188   3.127  11.539  0.00  0.00    +0.000 C 
ATOM     30  C   UNL     1      43.229   4.259  11.166  0.00  0.00    +0.000 C 
BRANCH  29  31
ATOM     31  N   UNL     1      43.567   2.096  12.362  0.00  0.00    +0.000 NA
ATOM     32  H   UNL     1      42.825   1.633  11.839  0.00  0.00    +0.000 HD
ATOM     33  H   UNL     1      43.118   2.531  13.167  0.00  0.00    +0.000 HD
ENDBRANCH  29  31
ENDBRANCH  24  26
ENDBRANCH  23  24
ENDBRANCH   4  23
TORSDOF 7
ENDMDL
MODEL 8
REMARK VINA RESULT:    -6.033      2.719      3.899
REMARK INTER + INTRA:          -9.637
REMARK INTER:                  -7.866
REMARK INTRA:                  -1.771
REMARK UNBOUND:                -1.311
REMARK  Name = 
REMARK  8 active torsions:
REMARK  status: ('A' for Active; 'I' for Inactive)
REMARK    1  A    between atoms: C_1  and  N_2
REMARK    2  A    between atoms: N_2  and  C_3
REMARK    3  A    between atoms: C_3  and  C_4
REMARK    4  A    between atoms: C_7  and  C_8
REMARK    5  A    between atoms: C_8  and  N_9
REMARK    6  A    between atoms: N_9  and  C_10
REMARK    7  A    between atoms: C_13  and  N_14
REMARK    8  A    between atoms: C_18  and  C_20
REMARK                            x       y       z     vdW  Elec       q    Type
REMARK                         _______ _______ _______ _____ _____    ______ ____
ROOT
ATOM      1  C   UNL     1      48.441   8.636  11.944  0.00  0.00    +0.000 A 
ATOM      2  C   UNL     1      48.238   7.278  11.652  0.00  0.00    +0.000 A 
ATOM      3  C   UNL     1      47.027   6.668  11.958  0.00  0.00    +0.000 A 
ATOM      4  C   UNL     1      45.997   7.401  12.565  0.00  0.00    +0.000 A 
ATOM      5  C   UNL     1      46.194   8.762  12.833  0.00  0.00    +0.000 A 
ATOM      6  C   UNL     1      47.405   9.378  12.520  0.00  0.00    +0.000 A 
ENDROOT
BRANCH   1   7
ATOM      7  C   UNL     1      49.772   9.277  11.678  0.00  0.00    +0.000 C 
BRANCH   7   9
ATOM      8  C   UNL     1      51.653   7.732  10.987  0.00  0.00    +0.000 C 
ATOM      9  N   UNL     1      50.981   8.522  12.010  0.00  0.00    +0.000 N 
ATOM     10  C   UNL     1      51.711   8.751  13.191  0.00  0.00    +0.000 C 
ATOM     11  O   UNL     1      52.839   8.287  13.342  0.00  0.00    +0.000 OA
BRANCH  10  12
ATOM     12  C   UNL     1      51.096   9.531  14.281  0.00  0.00    +0.000 A 
ATOM     13  C   UNL     1      51.341  10.873  14.521  0.00  0.00    +0.000 A 
ATOM     14  S   UNL     1      50.438  11.514  15.818  0.00  0.00    +0.000 S 
ATOM     15  C   UNL     1      49.579  10.062  15.999  0.00  0.00    +0.000 A 
ATOM     16  N   UNL     1      48.544   9.970  16.877  0.00  0.00    +0.000 NA
ATOM     17  C   UNL     1      47.936   8.833  16.860  0.00  0.00    +0.000 A 
ATOM     18  N   UNL     1      48.292   7.764  16.069  0.00  0.00    +0.000 N 
ATOM     19  C   UNL     1      49.424   7.765  15.275  0.00  0.00    +0.000 A 
ATOM     20  O   UNL     1      49.859   6.720  14.804  0.00  0.00    +0.000 OA
ATOM     21  C   UNL     1      50.050   9.068  15.162  0.00  0.00    +0.000 A 
ATOM     22  H   UNL     1      47.821   6.880  16.161  0.00  0.00    +0.000 HD
ENDBRANCH  10  12
ENDBRANCH   7   9
ENDBRANCH   1   7
BRANCH   4  23
ATOM     23  C   UNL     1      44.686   6.733  12.911  0.00  0.00    +0.000 C 
BRANCH  23  24
ATOM     24  N   UNL     1      44.866   5.286  13.047  0.00  0.00    +0.000 NA
ATOM     25  H   UNL     1      45.041   5.089  14.034  0.00  0.00    +0.000 HD
BRANCH  24  26
ATOM     26  C   UNL     1      43.703   4.510  12.609  0.00  0.00    +0.000 C 
ATOM     27  C   UNL     1      43.008   5.050  11.351  0.00  0.00    +0.000 C 
ATOM     28  C   UNL     1      43.717   4.425  10.146  0.00  0.00    +0.000 C 
ATOM     29  C   UNL     1      44.699   3.403  10.719  0.00  0.00    +0.000 C 
ATOM     30  C   UNL     1      44.183   3.131  12.134  0.00  0.00    +0.000 C 
BRANCH  29  31
ATOM     31  N   UNL     1      44.795   2.200   9.902  0.00  0.00    +0.000 NA
ATOM     32  H   UNL     1      43.946   1.644  10.000  0.00  0.00    +0.000 HD
ATOM     33  H   UNL     1      45.557   1.617  10.245  0.00  0.00    +0.000 HD
ENDBRANCH  29  31
ENDBRANCH  24  26
ENDBRANCH  23  24
ENDBRANCH   4  23
TORSDOF 7
ENDMDL
MODEL 9
REMARK VINA RESULT:    -6.007      2.347      3.375
REMARK INTER + INTRA:          -9.601
REMARK INTER:                  -8.514
REMARK INTRA:                  -1.087
REMARK UNBOUND:                -1.311
REMARK  Name = 
REMARK  8 active torsions:
REMARK  status: ('A' for Active; 'I' for Inactive)
REMARK    1  A    between atoms: C_1  and  N_2
REMARK    2  A    between atoms: N_2  and  C_3
REMARK    3  A    between atoms: C_3  and  C_4
REMARK    4  A    between atoms: C_7  and  C_8
REMARK    5  A    between atoms: C_8  and  N_9
REMARK    6  A    between atoms: N_9  and  C_10
REMARK    7  A    between atoms: C_13  and  N_14
REMARK    8  A    between atoms: C_18  and  C_20
REMARK                            x       y       z     vdW  Elec       q    Type
REMARK                         _______ _______ _______ _____ _____    ______ ____
ROOT
ATOM      1  C   UNL     1      48.386   8.179  14.021  0.00  0.00    +0.000 A 
ATOM      2  C   UNL     1      48.469   6.779  13.984  0.00  0.00    +0.000 A 
ATOM      3  C   UNL     1      47.439   6.030  13.427  0.00  0.00    +0.000 A 
ATOM      4  C   UNL     1      46.305   6.664  12.901  0.00  0.00    +0.000 A 
ATOM      5  C   UNL     1      46.235   8.063  12.918  0.00  0.00    +0.000 A 
ATOM      6  C   UNL     1      47.270   8.817  13.469  0.00  0.00    +0.000 A 
ENDROOT
BRANCH   1   7
ATOM      7  C   UNL     1      49.464   8.985  14.685  0.00  0.00    +0.000 C 
BRANCH   7   9
ATOM      8  C   UNL     1      51.818   8.302  14.054  0.00  0.00    +0.000 C 
ATOM      9  N   UNL     1      50.723   8.315  15.015  0.00  0.00    +0.000 N 
ATOM     10  C   UNL     1      51.053   7.936  16.329  0.00  0.00    +0.000 C 
ATOM     11  O   UNL     1      52.196   7.596  16.626  0.00  0.00    +0.000 OA
BRANCH  10  12
ATOM     12  C   UNL     1      49.998   7.908  17.359  0.00  0.00    +0.000 A 
ATOM     13  C   UNL     1      49.562   9.017  18.067  0.00  0.00    +0.000 A 
ATOM     14  S   UNL     1      48.289   8.684  19.150  0.00  0.00    +0.000 S 
ATOM     15  C   UNL     1      48.174   7.083  18.596  0.00  0.00    +0.000 A 
ATOM     16  N   UNL     1      47.180   6.264  19.035  0.00  0.00    +0.000 NA
ATOM     17  C   UNL     1      47.171   5.101  18.479  0.00  0.00    +0.000 A 
ATOM     18  N   UNL     1      48.087   4.668  17.548  0.00  0.00    +0.000 N 
ATOM     19  C   UNL     1      49.195   5.413  17.186  0.00  0.00    +0.000 A 
ATOM     20  O   UNL     1      50.123   4.896  16.575  0.00  0.00    +0.000 OA
ATOM     21  C   UNL     1      49.164   6.775  17.683  0.00  0.00    +0.000 A 
ATOM     22  H   UNL     1      48.066   3.721  17.210  0.00  0.00    +0.000 HD
ENDBRANCH  10  12
ENDBRANCH   7   9
ENDBRANCH   1   7
BRANCH   4  23
ATOM     23  C   UNL     1      45.179   5.847  12.309  0.00  0.00    +0.000 C 
BRANCH  23  24
ATOM     24  N   UNL     1      45.496   5.449  10.937  0.00  0.00    +0.000 NA
ATOM     25  H   UNL     1      46.140   4.658  10.986  0.00  0.00    +0.000 HD
BRANCH  24  26
ATOM     26  C   UNL     1      44.321   5.056  10.156  0.00  0.00    +0.000 C 
ATOM     27  C   UNL     1      44.594   4.003   9.072  0.00  0.00    +0.000 C 
ATOM     28  C   UNL     1      44.451   2.630   9.737  0.00  0.00    +0.000 C 
ATOM     29  C   UNL     1      43.932   2.899  11.150  0.00  0.00    +0.000 C 
ATOM     30  C   UNL     1      43.344   4.310  11.077  0.00  0.00    +0.000 C 
BRANCH  29  31
ATOM     31  N   UNL     1      42.969   1.898  11.591  0.00  0.00    +0.000 NA
ATOM     32  H   UNL     1      43.364   0.964  11.484  0.00  0.00    +0.000 HD
ATOM     33  H   UNL     1      42.148   1.929  10.987  0.00  0.00    +0.000 HD
ENDBRANCH  29  31
ENDBRANCH  24  26
ENDBRANCH  23  24
ENDBRANCH   4  23
TORSDOF 7
ENDMDL
