MODEL 1
REMARK VINA RESULT:    -5.990      0.000      0.000
REMARK INTER + INTRA:          -7.876
REMARK INTER:                  -7.391
REMARK INTRA:                  -0.485
REMARK UNBOUND:                -0.485
REMARK  Name = 
REMARK  5 active torsions:
REMARK  status: ('A' for Active; 'I' for Inactive)
REMARK    1  A    between atoms: C_1  and  O_2
REMARK    2  A    between atoms: O_2  and  C_3
REMARK    3  A    between atoms: C_5  and  C_6
REMARK    4  A    between atoms: C_11  and  C_12
REMARK    5  A    between atoms: C_13  and  C_14
REMARK                            x       y       z     vdW  Elec       q    Type
REMARK                         _______ _______ _______ _____ _____    ______ ____
ROOT
ATOM      1  C   UNL     1      48.480   5.585  16.154  0.00  0.00    +0.000 A 
ATOM      2  C   UNL     1      48.779   5.740  17.509  0.00  0.00    +0.000 A 
ATOM      3  C   UNL     1      48.117   4.946  18.429  0.00  0.00    +0.000 A 
ATOM      4  N   UNL     1      47.191   4.009  18.099  0.00  0.00    +0.000 NA
ATOM      5  C   UNL     1      46.918   3.892  16.777  0.00  0.00    +0.000 A 
ATOM      6  C   UNL     1      47.496   4.656  15.761  0.00  0.00    +0.000 A 
ENDROOT
BRANCH   3   7
ATOM      7  C   UNL     1      48.417   5.110  19.888  0.00  0.00    +0.000 C 
ATOM      8  N   UNL     1      48.585   3.947  20.587  0.00  0.00    +0.000 N 
ATOM      9  O   UNL     1      48.504   6.208  20.424  0.00  0.00    +0.000 OA
ATOM     10  H   UNL     1      48.494   3.058  20.109  0.00  0.00    +0.000 HD
ATOM     11  H   UNL     1      48.767   3.983  21.579  0.00  0.00    +0.000 HD
ENDBRANCH   3   7
BRANCH   1  13
ATOM     12  C   UNL     1      48.718   7.699  15.083  0.00  0.00    +0.000 C 
ATOM     13  O   UNL     1      49.084   6.323  15.164  0.00  0.00    +0.000 OA
ENDBRANCH   1  13
BRANCH   6  14
ATOM     14  C   UNL     1      47.146   4.435  14.340  0.00  0.00    +0.000 C 
ATOM     15  C   UNL     1      46.053   4.939  13.738  0.00  0.00    +0.000 C 
BRANCH  15  16
ATOM     16  C   UNL     1      45.677   4.715  12.330  0.00  0.00    +0.000 A 
ATOM     17  C   UNL     1      45.840   5.691  11.338  0.00  0.00    +0.000 A 
ATOM     18  C   UNL     1      45.498   5.421  10.007  0.00  0.00    +0.000 A 
ATOM     19  C   UNL     1      45.004   4.166   9.658  0.00  0.00    +0.000 A 
ATOM     20 CL   UNL     1      44.575   3.838   8.025  0.00  0.00    +0.000 Cl
ATOM     21  C   UNL     1      44.860   3.176  10.625  0.00  0.00    +0.000 A 
ATOM     22  C   UNL     1      45.201   3.449  11.954  0.00  0.00    +0.000 A 
ENDBRANCH  15  16
ENDBRANCH   6  14
TORSDOF 4
ENDMDL
MODEL 2
REMARK VINA RESULT:    -5.874      4.725      7.955
REMARK INTER + INTRA:          -7.733
REMARK INTER:                  -7.286
REMARK INTRA:                  -0.446
REMARK UNBOUND:                -0.485
REMARK  Name = 
REMARK  5 active torsions:
REMARK  status: ('A' for Active; 'I' for Inactive)
REMARK    1  A    between atoms: C_1  and  O_2
REMARK    2  A    between atoms: O_2  and  C_3
REMARK    3  A    between atoms: C_5  and  C_6
REMARK    4  A    between atoms: C_11  and  C_12
REMARK    5  A    between atoms: C_13  and  C_14
REMARK                            x       y       z     vdW  Elec       q    Type
REMARK                         _______ _______ _______ _____ _____    ______ ____
ROOT
ATOM      1  C   UNL     1      45.990   5.556  12.134  0.00  0.00    +0.000 A 
ATOM      2  C   UNL     1      45.368   5.209  10.933  0.00  0.00    +0.000 A 
ATOM      3  C   UNL     1      44.975   3.895  10.746  0.00  0.00    +0.000 A 
ATOM      4  N   UNL     1      45.148   2.911  11.665  0.00  0.00    +0.000 NA
ATOM      5  C   UNL     1      45.763   3.280  12.815  0.00  0.00    +0.000 A 
ATOM      6  C   UNL     1      46.231   4.564  13.105  0.00  0.00    +0.000 A 
ENDROOT
BRANCH   3   7
ATOM      7  C   UNL     1      44.319   3.504   9.458  0.00  0.00    +0.000 C 
ATOM      8  N   UNL     1      44.021   4.536   8.612  0.00  0.00    +0.000 N 
ATOM      9  O   UNL     1      44.060   2.340   9.176  0.00  0.00    +0.000 OA
ATOM     10  H   UNL     1      44.240   5.487   8.887  0.00  0.00    +0.000 HD
ATOM     11  H   UNL     1      43.557   4.346   7.737  0.00  0.00    +0.000 HD
ENDBRANCH   3   7
BRANCH   1  13
ATOM     12  C   UNL     1      45.396   7.813  12.609  0.00  0.00    +0.000 C 
ATOM     13  O   UNL     1      46.414   6.833  12.417  0.00  0.00    +0.000 OA
ENDBRANCH   1  13
BRANCH   6  14
ATOM     14  C   UNL     1      46.871   4.872  14.404  0.00  0.00    +0.000 C 
ATOM     15  C   UNL     1      47.248   3.946  15.304  0.00  0.00    +0.000 C 
BRANCH  15  16
ATOM     16  C   UNL     1      47.870   4.234  16.611  0.00  0.00    +0.000 A 
ATOM     17  C   UNL     1      48.351   5.504  16.957  0.00  0.00    +0.000 A 
ATOM     18  C   UNL     1      48.904   5.738  18.222  0.00  0.00    +0.000 A 
ATOM     19  C   UNL     1      48.966   4.705  19.154  0.00  0.00    +0.000 A 
ATOM     20 CL   UNL     1      49.655   4.990  20.704  0.00  0.00    +0.000 Cl
ATOM     21  C   UNL     1      48.470   3.444  18.837  0.00  0.00    +0.000 A 
ATOM     22  C   UNL     1      47.919   3.213  17.572  0.00  0.00    +0.000 A 
ENDBRANCH  15  16
ENDBRANCH   6  14
TORSDOF 4
ENDMDL
MODEL 3
REMARK VINA RESULT:    -5.689      5.085      7.253
REMARK INTER + INTRA:          -7.504
REMARK INTER:                  -7.061
REMARK INTRA:                  -0.443
REMARK UNBOUND:                -0.485
REMARK  Name = 
REMARK  5 active torsions:
REMARK  status: ('A' for Active; 'I' for Inactive)
REMARK    1  A    between atoms: C_1  and  O_2
REMARK    2  A    between atoms: O_2  and  C_3
REMARK    3  A    between atoms: C_5  and  C_6
REMARK    4  A    between atoms: C_11  and  C_12
REMARK    5  A    between atoms: C_13  and  C_14
REMARK                            x       y       z     vdW  Elec       q    Type
REMARK                         _______ _______ _______ _____ _____    ______ ____
ROOT
ATOM      1  C   UNL     1      46.762   5.413  13.395  0.00  0.00    +0.000 A 
ATOM      2  C   UNL     1      45.409   5.068  13.417  0.00  0.00    +0.000 A 
ATOM      3  C   UNL     1      44.538   5.751  12.587  0.00  0.00    +0.000 A 
ATOM      4  N   UNL     1      44.916   6.740  11.735  0.00  0.00    +0.000 NA
ATOM      5  C   UNL     1      46.234   7.055  11.747  0.00  0.00    +0.000 A 
ATOM      6  C   UNL     1      47.201   6.460  12.561  0.00  0.00    +0.000 A 
ENDROOT
BRANCH   3   7
ATOM      7  C   UNL     1      43.082   5.402  12.608  0.00  0.00    +0.000 C 
ATOM      8  N   UNL     1      42.284   6.160  11.797  0.00  0.00    +0.000 N 
ATOM      9  O   UNL     1      42.629   4.502  13.306  0.00  0.00    +0.000 OA
ATOM     10  H   UNL     1      42.695   6.904  11.244  0.00  0.00    +0.000 HD
ATOM     11  H   UNL     1      41.289   5.995  11.780  0.00  0.00    +0.000 HD
ENDBRANCH   3   7
BRANCH   1  13
ATOM     12  C   UNL     1      47.286   4.388  15.481  0.00  0.00    +0.000 C 
ATOM     13  O   UNL     1      47.707   4.793  14.180  0.00  0.00    +0.000 OA
ENDBRANCH   1  13
BRANCH   6  14
ATOM     14  C   UNL     1      48.623   6.861  12.482  0.00  0.00    +0.000 C 
ATOM     15  C   UNL     1      49.126   7.703  11.561  0.00  0.00    +0.000 C 
BRANCH  15  16
ATOM     16  C   UNL     1      50.542   8.100  11.454  0.00  0.00    +0.000 A 
ATOM     17  C   UNL     1      51.108   9.110  12.243  0.00  0.00    +0.000 A 
ATOM     18  C   UNL     1      52.466   9.430  12.128  0.00  0.00    +0.000 A 
ATOM     19  C   UNL     1      53.271   8.731  11.233  0.00  0.00    +0.000 A 
ATOM     20 CL   UNL     1      54.937   9.131  11.085  0.00  0.00    +0.000 Cl
ATOM     21  C   UNL     1      52.733   7.706  10.459  0.00  0.00    +0.000 A 
ATOM     22  C   UNL     1      51.375   7.390  10.574  0.00  0.00    +0.000 A 
ENDBRANCH  15  16
ENDBRANCH   6  14
TORSDOF 4
ENDMDL
MODEL 4
REMARK VINA RESULT:    -5.302      4.596      7.822
REMARK INTER + INTRA:          -7.027
REMARK INTER:                  -6.579
REMARK INTRA:                  -0.447
REMARK UNBOUND:                -0.485
REMARK  Name = 
REMARK  5 active torsions:
REMARK  status: ('A' for Active; 'I' for Inactive)
REMARK    1  A    between atoms: C_1  and  O_2
REMARK    2  A    between atoms: O_2  and  C_3
REMARK    3  A    between atoms: C_5  and  C_6
REMARK    4  A    between atoms: C_11  and  C_12
REMARK    5  A    between atoms: C_13  and  C_14
REMARK                            x       y       z     vdW  Elec       q    Type
REMARK                         _______ _______ _______ _____ _____    ______ ____
ROOT
ATOM      1  C   UNL     1      46.054   5.827  13.098  0.00  0.00    +0.000 A 
ATOM      2  C   UNL     1      45.190   5.201  12.196  0.00  0.00    +0.000 A 
ATOM      3  C   UNL     1      45.177   3.819  12.141  0.00  0.00    +0.000 A 
ATOM      4  N   UNL     1      45.951   3.019  12.920  0.00  0.00    +0.000 NA
ATOM      5  C   UNL     1      46.784   3.659  13.776  0.00  0.00    +0.000 A 
ATOM      6  C   UNL     1      46.909   5.045  13.899  0.00  0.00    +0.000 A 
ENDROOT
BRANCH   3   7
ATOM      7  C   UNL     1      44.266   3.133  11.170  0.00  0.00    +0.000 C 
ATOM      8  N   UNL     1      44.888   2.434  10.173  0.00  0.00    +0.000 N 
ATOM      9  O   UNL     1      43.045   3.193  11.256  0.00  0.00    +0.000 OA
ATOM     10  H   UNL     1      45.900   2.418  10.131  0.00  0.00    +0.000 HD
ATOM     11  H   UNL     1      44.334   1.967   9.471  0.00  0.00    +0.000 HD
ENDBRANCH   3   7
BRANCH   1  13
ATOM     12  C   UNL     1      46.643   7.910  12.104  0.00  0.00    +0.000 C 
ATOM     13  O   UNL     1      46.139   7.193  13.229  0.00  0.00    +0.000 OA
ENDBRANCH   1  13
BRANCH   6  14
ATOM     14  C   UNL     1      47.835   5.648  14.884  0.00  0.00    +0.000 C 
ATOM     15  C   UNL     1      48.003   5.201  16.142  0.00  0.00    +0.000 C 
BRANCH  15  16
ATOM     16  C   UNL     1      48.906   5.800  17.143  0.00  0.00    +0.000 A 
ATOM     17  C   UNL     1      48.442   6.364  18.339  0.00  0.00    +0.000 A 
ATOM     18  C   UNL     1      49.339   6.893  19.275  0.00  0.00    +0.000 A 
ATOM     19  C   UNL     1      50.709   6.847  19.026  0.00  0.00    +0.000 A 
ATOM     20 CL   UNL     1      51.810   7.505  20.171  0.00  0.00    +0.000 Cl
ATOM     21  C   UNL     1      51.190   6.267  17.855  0.00  0.00    +0.000 A 
ATOM     22  C   UNL     1      50.291   5.741  16.921  0.00  0.00    +0.000 A 
ENDBRANCH  15  16
ENDBRANCH   6  14
TORSDOF 4
ENDMDL
MODEL 5
REMARK VINA RESULT:    -5.045      5.302      7.358
REMARK INTER + INTRA:          -6.709
REMARK INTER:                  -6.308
REMARK INTRA:                  -0.401
REMARK UNBOUND:                -0.485
REMARK  Name = 
REMARK  5 active torsions:
REMARK  status: ('A' for Active; 'I' for Inactive)
REMARK    1  A    between atoms: C_1  and  O_2
REMARK    2  A    between atoms: O_2  and  C_3
REMARK    3  A    between atoms: C_5  and  C_6
REMARK    4  A    between atoms: C_11  and  C_12
REMARK    5  A    between atoms: C_13  and  C_14
REMARK                            x       y       z     vdW  Elec       q    Type
REMARK                         _______ _______ _______ _____ _____    ______ ____
ROOT
ATOM      1  C   UNL     1      46.071   7.744  12.400  0.00  0.00    +0.000 A 
ATOM      2  C   UNL     1      44.750   7.293  12.445  0.00  0.00    +0.000 A 
ATOM      3  C   UNL     1      44.515   5.956  12.715  0.00  0.00    +0.000 A 
ATOM      4  N   UNL     1      45.494   5.044  12.951  0.00  0.00    +0.000 NA
ATOM      5  C   UNL     1      46.764   5.514  12.889  0.00  0.00    +0.000 A 
ATOM      6  C   UNL     1      47.126   6.831  12.595  0.00  0.00    +0.000 A 
ENDROOT
BRANCH   3   7
ATOM      7  C   UNL     1      43.105   5.454  12.754  0.00  0.00    +0.000 C 
ATOM      8  N   UNL     1      42.268   5.979  11.809  0.00  0.00    +0.000 N 
ATOM      9  O   UNL     1      42.720   4.631  13.576  0.00  0.00    +0.000 OA
ATOM     10  H   UNL     1      42.622   6.666  11.153  0.00  0.00    +0.000 HD
ATOM     11  H   UNL     1      41.298   5.702  11.792  0.00  0.00    +0.000 HD
ENDBRANCH   3   7
BRANCH   1  13
ATOM     12  C   UNL     1      45.326   9.963  11.960  0.00  0.00    +0.000 C 
ATOM     13  O   UNL     1      46.408   9.053  12.142  0.00  0.00    +0.000 OA
ENDBRANCH   1  13
BRANCH   6  14
ATOM     14  C   UNL     1      48.545   7.251  12.575  0.00  0.00    +0.000 C 
ATOM     15  C   UNL     1      49.265   7.443  11.455  0.00  0.00    +0.000 C 
BRANCH  15  16
ATOM     16  C   UNL     1      50.684   7.842  11.415  0.00  0.00    +0.000 A 
ATOM     17  C   UNL     1      51.561   7.423  10.405  0.00  0.00    +0.000 A 
ATOM     18  C   UNL     1      52.893   7.853  10.391  0.00  0.00    +0.000 A 
ATOM     19  C   UNL     1      53.353   8.719  11.379  0.00  0.00    +0.000 A 
ATOM     20 CL   UNL     1      54.992   9.241  11.367  0.00  0.00    +0.000 Cl
ATOM     21  C   UNL     1      52.490   9.168  12.376  0.00  0.00    +0.000 A 
ATOM     22  C   UNL     1      51.160   8.734  12.389  0.00  0.00    +0.000 A 
ENDBRANCH  15  16
ENDBRANCH   6  14
TORSDOF 4
ENDMDL
MODEL 6
REMARK VINA RESULT:    -4.500      4.907      8.037
REMARK INTER + INTRA:          -6.038
REMARK INTER:                  -5.603
REMARK INTRA:                  -0.435
REMARK UNBOUND:                -0.485
REMARK  Name = 
REMARK  5 active torsions:
REMARK  status: ('A' for Active; 'I' for Inactive)
REMARK    1  A    between atoms: C_1  and  O_2
REMARK    2  A    between atoms: O_2  and  C_3
REMARK    3  A    between atoms: C_5  and  C_6
REMARK    4  A    between atoms: C_11  and  C_12
REMARK    5  A    between atoms: C_13  and  C_14
REMARK                            x       y       z     vdW  Elec       q    Type
REMARK                         _______ _______ _______ _____ _____    ______ ____
ROOT
ATOM      1  C   UNL     1      45.916   6.293  12.788  0.00  0.00    +0.000 A 
ATOM      2  C   UNL     1      45.002   7.005  12.007  0.00  0.00    +0.000 A 
ATOM      3  C   UNL     1      45.145   8.378  11.907  0.00  0.00    +0.000 A 
ATOM      4  N   UNL     1      46.129   9.087  12.518  0.00  0.00    +0.000 NA
ATOM      5  C   UNL     1      46.992   8.366  13.275  0.00  0.00    +0.000 A 
ATOM      6  C   UNL     1      46.931   6.985  13.476  0.00  0.00    +0.000 A 
ENDROOT
BRANCH   3   7
ATOM      7  C   UNL     1      44.166   9.158  11.085  0.00  0.00    +0.000 C 
ATOM      8  N   UNL     1      42.979   8.529  10.831  0.00  0.00    +0.000 N 
ATOM      9  O   UNL     1      44.408  10.282  10.662  0.00  0.00    +0.000 OA
ATOM     10  H   UNL     1      42.822   7.594  11.190  0.00  0.00    +0.000 HD
ATOM     11  H   UNL     1      42.282   8.988  10.264  0.00  0.00    +0.000 HD
ENDBRANCH   3   7
BRANCH   1  13
ATOM     12  C   UNL     1      44.955   4.225  12.100  0.00  0.00    +0.000 C 
ATOM     13  O   UNL     1      45.861   4.928  12.947  0.00  0.00    +0.000 OA
ENDBRANCH   1  13
BRANCH   6  14
ATOM     14  C   UNL     1      47.938   6.285  14.306  0.00  0.00    +0.000 C 
ATOM     15  C   UNL     1      48.552   6.827  15.374  0.00  0.00    +0.000 C 
BRANCH  15  16
ATOM     16  C   UNL     1      49.571   6.153  16.201  0.00  0.00    +0.000 A 
ATOM     17  C   UNL     1      49.293   5.011  16.964  0.00  0.00    +0.000 A 
ATOM     18  C   UNL     1      50.300   4.387  17.709  0.00  0.00    +0.000 A 
ATOM     19  C   UNL     1      51.597   4.893  17.683  0.00  0.00    +0.000 A 
ATOM     20 CL   UNL     1      52.833   4.132  18.606  0.00  0.00    +0.000 Cl
ATOM     21  C   UNL     1      51.898   6.011  16.910  0.00  0.00    +0.000 A 
ATOM     22  C   UNL     1      50.889   6.634  16.168  0.00  0.00    +0.000 A 
ENDBRANCH  15  16
ENDBRANCH   6  14
TORSDOF 4
ENDMDL
MODEL 7
REMARK VINA RESULT:    -4.166      3.276      3.952
REMARK INTER + INTRA:          -5.625
REMARK INTER:                  -5.176
REMARK INTRA:                  -0.449
REMARK UNBOUND:                -0.485
REMARK  Name = 
REMARK  5 active torsions:
REMARK  status: ('A' for Active; 'I' for Inactive)
REMARK    1  A    between atoms: C_1  and  O_2
REMARK    2  A    between atoms: O_2  and  C_3
REMARK    3  A    between atoms: C_5  and  C_6
REMARK    4  A    between atoms: C_11  and  C_12
REMARK    5  A    between atoms: C_13  and  C_14
REMARK                            x       y       z     vdW  Elec       q    Type
REMARK                         _______ _______ _______ _____ _____    ______ ____
ROOT
ATOM      1  C   UNL     1      48.609   9.135  13.897  0.00  0.00    +0.000 A 
ATOM      2  C   UNL     1      49.179   9.992  14.841  0.00  0.00    +0.000 A 
ATOM      3  C   UNL     1      49.615   9.460  16.042  0.00  0.00    +0.000 A 
ATOM      4  N   UNL     1      49.532   8.143  16.365  0.00  0.00    +0.000 NA
ATOM      5  C   UNL     1      48.965   7.342  15.431  0.00  0.00    +0.000 A 
ATOM      6  C   UNL     1      48.461   7.767  14.200  0.00  0.00    +0.000 A 
ENDROOT
BRANCH   3   7
ATOM      7  C   UNL     1      50.217  10.368  17.070  0.00  0.00    +0.000 C 
ATOM      8  N   UNL     1      49.564  10.412  18.270  0.00  0.00    +0.000 N 
ATOM      9  O   UNL     1      51.224  11.032  16.854  0.00  0.00    +0.000 OA
ATOM     10  H   UNL     1      48.727   9.856  18.404  0.00  0.00    +0.000 HD
ATOM     11  H   UNL     1      49.902  11.020  19.000  0.00  0.00    +0.000 HD
ENDBRANCH   3   7
BRANCH   1  13
ATOM     12  C   UNL     1      49.138   9.947  11.722  0.00  0.00    +0.000 C 
ATOM     13  O   UNL     1      48.149   9.565  12.675  0.00  0.00    +0.000 OA
ENDBRANCH   1  13
BRANCH   6  14
ATOM     14  C   UNL     1      47.879   6.806  13.235  0.00  0.00    +0.000 C 
ATOM     15  C   UNL     1      46.574   6.485  13.176  0.00  0.00    +0.000 C 
BRANCH  15  16
ATOM     16  C   UNL     1      45.978   5.517  12.236  0.00  0.00    +0.000 A 
ATOM     17  C   UNL     1      45.784   5.801  10.878  0.00  0.00    +0.000 A 
ATOM     18  C   UNL     1      45.244   4.838  10.016  0.00  0.00    +0.000 A 
ATOM     19  C   UNL     1      44.908   3.579  10.506  0.00  0.00    +0.000 A 
ATOM     20 CL   UNL     1      44.235   2.400   9.450  0.00  0.00    +0.000 Cl
ATOM     21  C   UNL     1      45.117   3.270  11.847  0.00  0.00    +0.000 A 
ATOM     22  C   UNL     1      45.655   4.234  12.706  0.00  0.00    +0.000 A 
ENDBRANCH  15  16
ENDBRANCH   6  14
TORSDOF 4
ENDMDL
MODEL 8
REMARK VINA RESULT:    -3.968     10.891     12.384
REMARK INTER + INTRA:          -5.381
REMARK INTER:                  -4.918
REMARK INTRA:                  -0.463
REMARK UNBOUND:                -0.485
REMARK  Name = 
REMARK  5 active torsions:
REMARK  status: ('A' for Active; 'I' for Inactive)
REMARK    1  A    between atoms: C_1  and  O_2
REMARK    2  A    between atoms: O_2  and  C_3
REMARK    3  A    between atoms: C_5  and  C_6
REMARK    4  A    between atoms: C_11  and  C_12
REMARK    5  A    between atoms: C_13  and  C_14
REMARK                            x       y       z     vdW  Elec       q    Type
REMARK                         _______ _______ _______ _____ _____    ______ ____
ROOT
ATOM      1  C   UNL     1      39.637  -1.567  17.331  0.00  0.00    +0.000 A 
ATOM      2  C   UNL     1      38.588  -0.852  16.748  0.00  0.00    +0.000 A 
ATOM      3  C   UNL     1      38.405  -0.941  15.379  0.00  0.00    +0.000 A 
ATOM      4  N   UNL     1      39.181  -1.692  14.555  0.00  0.00    +0.000 NA
ATOM      5  C   UNL     1      40.195  -2.364  15.152  0.00  0.00    +0.000 A 
ATOM      6  C   UNL     1      40.497  -2.328  16.515  0.00  0.00    +0.000 A 
ENDROOT
BRANCH   3   7
ATOM      7  C   UNL     1      37.293  -0.169  14.738  0.00  0.00    +0.000 C 
ATOM      8  N   UNL     1      36.089  -0.226  15.383  0.00  0.00    +0.000 N 
ATOM      9  O   UNL     1      37.444   0.468  13.702  0.00  0.00    +0.000 OA
ATOM     10  H   UNL     1      36.003  -0.774  16.232  0.00  0.00    +0.000 HD
ATOM     11  H   UNL     1      35.291   0.252  14.994  0.00  0.00    +0.000 HD
ENDBRANCH   3   7
BRANCH   1  13
ATOM     12  C   UNL     1      38.910  -2.125  19.529  0.00  0.00    +0.000 C 
ATOM     13  O   UNL     1      39.899  -1.546  18.680  0.00  0.00    +0.000 OA
ENDBRANCH   1  13
BRANCH   6  14
ATOM     14  C   UNL     1      41.616  -3.120  17.075  0.00  0.00    +0.000 C 
ATOM     15  C   UNL     1      42.002  -4.323  16.612  0.00  0.00    +0.000 C 
BRANCH  15  16
ATOM     16  C   UNL     1      43.101  -5.135  17.168  0.00  0.00    +0.000 A 
ATOM     17  C   UNL     1      43.416  -6.413  16.687  0.00  0.00    +0.000 A 
ATOM     18  C   UNL     1      44.488  -7.134  17.225  0.00  0.00    +0.000 A 
ATOM     19  C   UNL     1      45.263  -6.574  18.238  0.00  0.00    +0.000 A 
ATOM     20 CL   UNL     1      46.574  -7.465  18.905  0.00  0.00    +0.000 Cl
ATOM     21  C   UNL     1      44.981  -5.296  18.710  0.00  0.00    +0.000 A 
ATOM     22  C   UNL     1      43.908  -4.578  18.172  0.00  0.00    +0.000 A 
ENDBRANCH  15  16
ENDBRANCH   6  14
TORSDOF 4
ENDMDL
MODEL 9
REMARK VINA RESULT:    -3.882      4.043      5.127
REMARK INTER + INTRA:          -5.274
REMARK INTER:                  -4.827
REMARK INTRA:                  -0.447
REMARK UNBOUND:                -0.485
REMARK  Name = 
REMARK  5 active torsions:
REMARK  status: ('A' for Active; 'I' for Inactive)
REMARK    1  A    between atoms: C_1  and  O_2
REMARK    2  A    between atoms: O_2  and  C_3
REMARK    3  A    between atoms: C_5  and  C_6
REMARK    4  A    between atoms: C_11  and  C_12
REMARK    5  A    between atoms: C_13  and  C_14
REMARK                            x       y       z     vdW  Elec       q    Type
REMARK                         _______ _______ _______ _____ _____    ______ ____
ROOT
ATOM      1  C   UNL     1      50.938   8.472  12.910  0.00  0.00    +0.000 A 
ATOM      2  C   UNL     1      52.229   8.723  13.379  0.00  0.00    +0.000 A 
ATOM      3  C   UNL     1      52.561   8.316  14.659  0.00  0.00    +0.000 A 
ATOM      4  N   UNL     1      51.708   7.674  15.498  0.00  0.00    +0.000 NA
ATOM      5  C   UNL     1      50.460   7.455  15.015  0.00  0.00    +0.000 A 
ATOM      6  C   UNL     1      50.001   7.846  13.755  0.00  0.00    +0.000 A 
ENDROOT
BRANCH   3   7
ATOM      7  C   UNL     1      53.938   8.590  15.181  0.00  0.00    +0.000 C 
ATOM      8  N   UNL     1      54.017   9.540  16.161  0.00  0.00    +0.000 N 
ATOM      9  O   UNL     1      54.931   8.009  14.759  0.00  0.00    +0.000 OA
ATOM     10  H   UNL     1      53.173  10.007  16.474  0.00  0.00    +0.000 HD
ATOM     11  H   UNL     1      54.917   9.791  16.542  0.00  0.00    +0.000 HD
ENDBRANCH   3   7
BRANCH   1  13
ATOM     12  C   UNL     1      50.457  10.233  11.380  0.00  0.00    +0.000 C 
ATOM     13  O   UNL     1      50.512   8.834  11.653  0.00  0.00    +0.000 OA
ENDBRANCH   1  13
BRANCH   6  14
ATOM     14  C   UNL     1      48.622   7.538  13.312  0.00  0.00    +0.000 C 
ATOM     15  C   UNL     1      48.124   6.295  13.185  0.00  0.00    +0.000 C 
BRANCH  15  16
ATOM     16  C   UNL     1      46.761   5.968  12.726  0.00  0.00    +0.000 A 
ATOM     17  C   UNL     1      46.257   6.389  11.489  0.00  0.00    +0.000 A 
ATOM     18  C   UNL     1      44.967   6.027  11.082  0.00  0.00    +0.000 A 
ATOM     19  C   UNL     1      44.179   5.228  11.905  0.00  0.00    +0.000 A 
ATOM     20 CL   UNL     1      42.590   4.791  11.409  0.00  0.00    +0.000 Cl
ATOM     21  C   UNL     1      44.672   4.778  13.127  0.00  0.00    +0.000 A 
ATOM     22  C   UNL     1      45.960   5.142  13.531  0.00  0.00    +0.000 A 
ENDBRANCH  15  16
ENDBRANCH   6  14
TORSDOF 4
ENDMDL
