MODEL 1
REMARK VINA RESULT:    -8.745      0.000      0.000
REMARK INTER + INTRA:         -12.040
REMARK INTER:                 -11.302
REMARK INTRA:                  -0.738
REMARK UNBOUND:                -0.738
REMARK  Name = 
REMARK  5 active torsions:
REMARK  status: ('A' for Active; 'I' for Inactive)
REMARK    1  A    between atoms: C_2  and  C_4
REMARK    2  A    between atoms: C_7  and  N_8
REMARK    3  A    between atoms: N_8  and  C_9
REMARK    4  A    between atoms: C_9  and  C_10
REMARK    5  A    between atoms: C_14  and  C_15
REMARK                            x       y       z     vdW  Elec       q    Type
REMARK                         _______ _______ _______ _____ _____    ______ ____
ROOT
ATOM      1  C   UNL     1      43.880   3.303  11.881  0.00  0.00    +0.000 C 
ENDROOT
BRANCH   1   2
ATOM      2  C   UNL     1      45.065   4.004  12.530  0.00  0.00    +0.000 A 
ATOM      3  N   UNL     1      45.920   3.243  13.240  0.00  0.00    +0.000 NA
ATOM      4  C   UNL     1      46.991   3.868  13.749  0.00  0.00    +0.000 A 
ATOM      5  C   UNL     1      47.242   5.211  13.572  0.00  0.00    +0.000 A 
ATOM      6  C   UNL     1      46.319   5.925  12.832  0.00  0.00    +0.000 A 
ATOM      7  N   UNL     1      45.226   5.329  12.307  0.00  0.00    +0.000 NA
BRANCH   6   8
ATOM      8  C   UNL     1      46.456   7.372  12.579  0.00  0.00    +0.000 A 
ATOM      9  C   UNL     1      47.708   7.969  12.387  0.00  0.00    +0.000 A 
ATOM     10  N   UNL     1      47.913   9.283  12.101  0.00  0.00    +0.000 NA
ATOM     11  C   UNL     1      46.811  10.060  12.013  0.00  0.00    +0.000 A 
ATOM     12  C   UNL     1      45.533   9.580  12.212  0.00  0.00    +0.000 A 
ATOM     13  F   UNL     1      44.473  10.395  12.120  0.00  0.00    +0.000 F 
ATOM     14  C   UNL     1      45.351   8.234  12.502  0.00  0.00    +0.000 A 
ENDBRANCH   6   8
ENDBRANCH   1   2
BRANCH   1  15
ATOM     15  N   UNL     1      43.653   3.746  10.502  0.00  0.00    +0.000 N 
ATOM     16  H   UNL     1      42.667   3.754  10.244  0.00  0.00    +0.000 HD
BRANCH  15  20
ATOM     17  C   UNL     1      46.425   2.653   7.513  0.00  0.00    +0.000 A 
ATOM     18  C   UNL     1      45.901   1.673   8.356  0.00  0.00    +0.000 A 
ATOM     19  C   UNL     1      44.959   2.018   9.333  0.00  0.00    +0.000 A 
ATOM     20  C   UNL     1      44.499   3.333   9.474  0.00  0.00    +0.000 A 
ATOM     21  C   UNL     1      45.033   4.304   8.615  0.00  0.00    +0.000 A 
ATOM     22  C   UNL     1      45.993   3.974   7.650  0.00  0.00    +0.000 A 
BRANCH  17  24
ATOM     23  N   UNL     1      47.457   3.034   5.341  0.00  0.00    +0.000 N 
ATOM     24  C   UNL     1      47.482   2.342   6.519  0.00  0.00    +0.000 C 
ATOM     25  O   UNL     1      48.357   1.516   6.743  0.00  0.00    +0.000 OA
ATOM     26  H   UNL     1      48.228   2.870   4.707  0.00  0.00    +0.000 HD
ATOM     27  H   UNL     1      46.916   3.877   5.214  0.00  0.00    +0.000 HD
ENDBRANCH  17  24
ENDBRANCH  15  20
ENDBRANCH   1  15
TORSDOF 5
ENDMDL
MODEL 2
REMARK VINA RESULT:    -8.686      1.574      1.826
REMARK INTER + INTRA:         -11.963
REMARK INTER:                 -11.235
REMARK INTRA:                  -0.728
REMARK UNBOUND:                -0.738
REMARK  Name = 
REMARK  5 active torsions:
REMARK  status: ('A' for Active; 'I' for Inactive)
REMARK    1  A    between atoms: C_2  and  C_4
REMARK    2  A    between atoms: C_7  and  N_8
REMARK    3  A    between atoms: N_8  and  C_9
REMARK    4  A    between atoms: C_9  and  C_10
REMARK    5  A    between atoms: C_14  and  C_15
REMARK                            x       y       z     vdW  Elec       q    Type
REMARK                         _______ _______ _______ _____ _____    ______ ____
ROOT
ATOM      1  C   UNL     1      43.717   4.373  11.636  0.00  0.00    +0.000 C 
ENDROOT
BRANCH   1   2
ATOM      2  C   UNL     1      44.972   4.805  12.380  0.00  0.00    +0.000 A 
ATOM      3  N   UNL     1      45.482   3.945  13.283  0.00  0.00    +0.000 NA
ATOM      4  C   UNL     1      46.623   4.317  13.880  0.00  0.00    +0.000 A 
ATOM      5  C   UNL     1      47.272   5.500  13.608  0.00  0.00    +0.000 A 
ATOM      6  C   UNL     1      46.688   6.331  12.670  0.00  0.00    +0.000 A 
ATOM      7  N   UNL     1      45.536   5.991  12.051  0.00  0.00    +0.000 NA
BRANCH   6   8
ATOM      8  C   UNL     1      47.268   7.634  12.296  0.00  0.00    +0.000 A 
ATOM      9  C   UNL     1      46.546   8.826  12.430  0.00  0.00    +0.000 A 
ATOM     10  N   UNL     1      47.027  10.068  12.154  0.00  0.00    +0.000 NA
ATOM     11  C   UNL     1      48.300  10.136  11.704  0.00  0.00    +0.000 A 
ATOM     12  C   UNL     1      49.091   9.021  11.510  0.00  0.00    +0.000 A 
ATOM     13  F   UNL     1      50.345   9.142  11.055  0.00  0.00    +0.000 F 
ATOM     14  C   UNL     1      48.575   7.765  11.800  0.00  0.00    +0.000 A 
ENDBRANCH   6   8
ENDBRANCH   1   2
BRANCH   1  15
ATOM     15  N   UNL     1      43.781   4.677  10.203  0.00  0.00    +0.000 N 
ATOM     16  H   UNL     1      42.878   4.937   9.811  0.00  0.00    +0.000 HD
BRANCH  15  20
ATOM     17  C   UNL     1      46.388   2.461   7.734  0.00  0.00    +0.000 A 
ATOM     18  C   UNL     1      45.568   1.792   8.643  0.00  0.00    +0.000 A 
ATOM     19  C   UNL     1      44.678   2.513   9.448  0.00  0.00    +0.000 A 
ATOM     20  C   UNL     1      44.565   3.906   9.347  0.00  0.00    +0.000 A 
ATOM     21  C   UNL     1      45.394   4.560   8.425  0.00  0.00    +0.000 A 
ATOM     22  C   UNL     1      46.304   3.851   7.631  0.00  0.00    +0.000 A 
BRANCH  17  24
ATOM     23  N   UNL     1      48.490   2.449   6.505  0.00  0.00    +0.000 N 
ATOM     24  C   UNL     1      47.399   1.739   6.920  0.00  0.00    +0.000 C 
ATOM     25  O   UNL     1      47.280   0.553   6.646  0.00  0.00    +0.000 OA
ATOM     26  H   UNL     1      49.208   1.926   6.020  0.00  0.00    +0.000 HD
ATOM     27  H   UNL     1      48.746   3.341   6.903  0.00  0.00    +0.000 HD
ENDBRANCH  17  24
ENDBRANCH  15  20
ENDBRANCH   1  15
TORSDOF 5
ENDMDL
MODEL 3
REMARK VINA RESULT:    -8.362      2.938      4.132
REMARK INTER + INTRA:         -11.544
REMARK INTER:                 -11.088
REMARK INTRA:                  -0.457
REMARK UNBOUND:                -0.738
REMARK  Name = 
REMARK  5 active torsions:
REMARK  status: ('A' for Active; 'I' for Inactive)
REMARK    1  A    between atoms: C_2  and  C_4
REMARK    2  A    between atoms: C_7  and  N_8
REMARK    3  A    between atoms: N_8  and  C_9
REMARK    4  A    between atoms: C_9  and  C_10
REMARK    5  A    between atoms: C_14  and  C_15
REMARK                            x       y       z     vdW  Elec       q    Type
REMARK                         _______ _______ _______ _____ _____    ______ ____
ROOT
ATOM      1  C   UNL     1      44.245   4.111  11.965  0.00  0.00    +0.000 C 
ENDROOT
BRANCH   1   2
ATOM      2  C   UNL     1      45.455   4.856  12.511  0.00  0.00    +0.000 A 
ATOM      3  N   UNL     1      45.937   5.875  11.773  0.00  0.00    +0.000 NA
ATOM      4  C   UNL     1      46.961   6.559  12.302  0.00  0.00    +0.000 A 
ATOM      5  C   UNL     1      47.513   6.271  13.530  0.00  0.00    +0.000 A 
ATOM      6  C   UNL     1      46.965   5.211  14.228  0.00  0.00    +0.000 A 
ATOM      7  N   UNL     1      45.935   4.497  13.724  0.00  0.00    +0.000 NA
BRANCH   6   8
ATOM      8  C   UNL     1      47.469   4.786  15.546  0.00  0.00    +0.000 A 
ATOM      9  C   UNL     1      48.426   5.534  16.244  0.00  0.00    +0.000 A 
ATOM     10  N   UNL     1      48.903   5.235  17.482  0.00  0.00    +0.000 NA
ATOM     11  C   UNL     1      48.414   4.117  18.064  0.00  0.00    +0.000 A 
ATOM     12  C   UNL     1      47.489   3.293  17.454  0.00  0.00    +0.000 A 
ATOM     13  F   UNL     1      47.040   2.193  18.071  0.00  0.00    +0.000 F 
ATOM     14  C   UNL     1      47.018   3.623  16.189  0.00  0.00    +0.000 A 
ENDBRANCH   6   8
ENDBRANCH   1   2
BRANCH   1  15
ATOM     15  N   UNL     1      44.011   4.386  10.544  0.00  0.00    +0.000 N 
ATOM     16  H   UNL     1      43.026   4.511  10.320  0.00  0.00    +0.000 HD
BRANCH  15  20
ATOM     17  C   UNL     1      46.426   2.440   7.682  0.00  0.00    +0.000 A 
ATOM     18  C   UNL     1      45.691   1.680   8.592  0.00  0.00    +0.000 A 
ATOM     19  C   UNL     1      44.864   2.312   9.528  0.00  0.00    +0.000 A 
ATOM     20  C   UNL     1      44.729   3.706   9.562  0.00  0.00    +0.000 A 
ATOM     21  C   UNL     1      45.471   4.453   8.636  0.00  0.00    +0.000 A 
ATOM     22  C   UNL     1      46.319   3.832   7.710  0.00  0.00    +0.000 A 
BRANCH  17  24
ATOM     23  N   UNL     1      48.421   2.572   6.291  0.00  0.00    +0.000 N 
ATOM     24  C   UNL     1      47.372   1.811   6.727  0.00  0.00    +0.000 C 
ATOM     25  O   UNL     1      47.241   0.652   6.356  0.00  0.00    +0.000 OA
ATOM     26  H   UNL     1      49.101   2.106   5.705  0.00  0.00    +0.000 HD
ATOM     27  H   UNL     1      48.701   3.428   6.748  0.00  0.00    +0.000 HD
ENDBRANCH  17  24
ENDBRANCH  15  20
ENDBRANCH   1  15
TORSDOF 5
ENDMDL
MODEL 4
REMARK VINA RESULT:    -7.942      2.209      3.882
REMARK INTER + INTRA:         -11.002
REMARK INTER:                 -10.626
REMARK INTRA:                  -0.376
REMARK UNBOUND:                -0.738
REMARK  Name = 
REMARK  5 active torsions:
REMARK  status: ('A' for Active; 'I' for Inactive)
REMARK    1  A    between atoms: C_2  and  C_4
REMARK    2  A    between atoms: C_7  and  N_8
REMARK    3  A    between atoms: N_8  and  C_9
REMARK    4  A    between atoms: C_9  and  C_10
REMARK    5  A    between atoms: C_14  and  C_15
REMARK                            x       y       z     vdW  Elec       q    Type
REMARK                         _______ _______ _______ _____ _____    ______ ____
ROOT
ATOM      1  C   UNL     1      43.347   4.982  10.972  0.00  0.00    +0.000 C 
ENDROOT
BRANCH   1   2
ATOM      2  C   UNL     1      44.496   5.689  11.678  0.00  0.00    +0.000 A 
ATOM      3  N   UNL     1      44.738   6.970  11.333  0.00  0.00    +0.000 NA
ATOM      4  C   UNL     1      45.710   7.594  12.012  0.00  0.00    +0.000 A 
ATOM      5  C   UNL     1      46.440   6.997  13.015  0.00  0.00    +0.000 A 
ATOM      6  C   UNL     1      46.134   5.682  13.312  0.00  0.00    +0.000 A 
ATOM      7  N   UNL     1      45.162   5.020  12.646  0.00  0.00    +0.000 NA
BRANCH   6   8
ATOM      8  C   UNL     1      46.847   4.919  14.353  0.00  0.00    +0.000 A 
ATOM      9  C   UNL     1      47.014   3.532  14.263  0.00  0.00    +0.000 A 
ATOM     10  N   UNL     1      47.700   2.767  15.154  0.00  0.00    +0.000 NA
ATOM     11  C   UNL     1      48.245   3.412  16.210  0.00  0.00    +0.000 A 
ATOM     12  C   UNL     1      48.117   4.771  16.410  0.00  0.00    +0.000 A 
ATOM     13  F   UNL     1      48.671   5.361  17.477  0.00  0.00    +0.000 F 
ATOM     14  C   UNL     1      47.412   5.529  15.484  0.00  0.00    +0.000 A 
ENDBRANCH   6   8
ENDBRANCH   1   2
BRANCH   1  15
ATOM     15  N   UNL     1      43.679   3.603  10.604  0.00  0.00    +0.000 N 
ATOM     16  H   UNL     1      43.687   2.969  11.402  0.00  0.00    +0.000 HD
BRANCH  15  20
ATOM     17  C   UNL     1      46.494   2.657   7.606  0.00  0.00    +0.000 A 
ATOM     18  C   UNL     1      46.155   3.991   7.835  0.00  0.00    +0.000 A 
ATOM     19  C   UNL     1      45.244   4.320   8.845  0.00  0.00    +0.000 A 
ATOM     20  C   UNL     1      44.674   3.338   9.665  0.00  0.00    +0.000 A 
ATOM     21  C   UNL     1      45.030   2.004   9.424  0.00  0.00    +0.000 A 
ATOM     22  C   UNL     1      45.922   1.661   8.401  0.00  0.00    +0.000 A 
BRANCH  17  24
ATOM     23  N   UNL     1      47.302   2.973   5.331  0.00  0.00    +0.000 N 
ATOM     24  C   UNL     1      47.394   2.262   6.494  0.00  0.00    +0.000 C 
ATOM     25  O   UNL     1      48.205   1.352   6.611  0.00  0.00    +0.000 OA
ATOM     26  H   UNL     1      47.976   2.746   4.611  0.00  0.00    +0.000 HD
ATOM     27  H   UNL     1      46.834   3.866   5.272  0.00  0.00    +0.000 HD
ENDBRANCH  17  24
ENDBRANCH  15  20
ENDBRANCH   1  15
TORSDOF 5
ENDMDL
MODEL 5
REMARK VINA RESULT:    -7.841      2.213      3.205
REMARK INTER + INTRA:         -10.871
REMARK INTER:                 -10.287
REMARK INTRA:                  -0.584
REMARK UNBOUND:                -0.738
REMARK  Name = 
REMARK  5 active torsions:
REMARK  status: ('A' for Active; 'I' for Inactive)
REMARK    1  A    between atoms: C_2  and  C_4
REMARK    2  A    between atoms: C_7  and  N_8
REMARK    3  A    between atoms: N_8  and  C_9
REMARK    4  A    between atoms: C_9  and  C_10
REMARK    5  A    between atoms: C_14  and  C_15
REMARK                            x       y       z     vdW  Elec       q    Type
REMARK                         _______ _______ _______ _____ _____    ______ ____
ROOT
ATOM      1  C   UNL     1      43.914   5.047  11.428  0.00  0.00    +0.000 C 
ENDROOT
BRANCH   1   2
ATOM      2  C   UNL     1      44.606   6.373  11.711  0.00  0.00    +0.000 A 
ATOM      3  N   UNL     1      44.065   7.481  11.168  0.00  0.00    +0.000 NA
ATOM      4  C   UNL     1      44.651   8.644  11.483  0.00  0.00    +0.000 A 
ATOM      5  C   UNL     1      45.744   8.744  12.315  0.00  0.00    +0.000 A 
ATOM      6  C   UNL     1      46.243   7.563  12.832  0.00  0.00    +0.000 A 
ATOM      7  N   UNL     1      45.680   6.371  12.534  0.00  0.00    +0.000 NA
BRANCH   6   8
ATOM      8  C   UNL     1      47.418   7.524  13.723  0.00  0.00    +0.000 A 
ATOM      9  C   UNL     1      47.952   6.314  14.183  0.00  0.00    +0.000 A 
ATOM     10  N   UNL     1      49.059   6.194  14.964  0.00  0.00    +0.000 NA
ATOM     11  C   UNL     1      49.670   7.344  15.326  0.00  0.00    +0.000 A 
ATOM     12  C   UNL     1      49.212   8.591  14.952  0.00  0.00    +0.000 A 
ATOM     13  F   UNL     1      49.850   9.701  15.344  0.00  0.00    +0.000 F 
ATOM     14  C   UNL     1      48.079   8.685  14.154  0.00  0.00    +0.000 A 
ENDBRANCH   6   8
ENDBRANCH   1   2
BRANCH   1  15
ATOM     15  N   UNL     1      43.769   4.785   9.993  0.00  0.00    +0.000 N 
ATOM     16  H   UNL     1      42.811   4.571   9.722  0.00  0.00    +0.000 HD
BRANCH  15  20
ATOM     17  C   UNL     1      46.454   2.408   7.767  0.00  0.00    +0.000 A 
ATOM     18  C   UNL     1      46.494   3.796   7.636  0.00  0.00    +0.000 A 
ATOM     19  C   UNL     1      45.628   4.597   8.390  0.00  0.00    +0.000 A 
ATOM     20  C   UNL     1      44.727   4.040   9.307  0.00  0.00    +0.000 A 
ATOM     21  C   UNL     1      44.705   2.644   9.429  0.00  0.00    +0.000 A 
ATOM     22  C   UNL     1      45.550   1.831   8.663  0.00  0.00    +0.000 A 
BRANCH  17  24
ATOM     23  N   UNL     1      48.365   2.093   6.291  0.00  0.00    +0.000 N 
ATOM     24  C   UNL     1      47.300   1.522   6.929  0.00  0.00    +0.000 C 
ATOM     25  O   UNL     1      47.075   0.323   6.825  0.00  0.00    +0.000 OA
ATOM     26  H   UNL     1      48.978   1.464   5.789  0.00  0.00    +0.000 HD
ATOM     27  H   UNL     1      48.725   3.003   6.538  0.00  0.00    +0.000 HD
ENDBRANCH  17  24
ENDBRANCH  15  20
ENDBRANCH   1  15
TORSDOF 5
ENDMDL
MODEL 6
REMARK VINA RESULT:    -7.533      3.465      6.905
REMARK INTER + INTRA:         -10.473
REMARK INTER:                  -9.865
REMARK INTRA:                  -0.608
REMARK UNBOUND:                -0.738
REMARK  Name = 
REMARK  5 active torsions:
REMARK  status: ('A' for Active; 'I' for Inactive)
REMARK    1  A    between atoms: C_2  and  C_4
REMARK    2  A    between atoms: C_7  and  N_8
REMARK    3  A    between atoms: N_8  and  C_9
REMARK    4  A    between atoms: C_9  and  C_10
REMARK    5  A    between atoms: C_14  and  C_15
REMARK                            x       y       z     vdW  Elec       q    Type
REMARK                         _______ _______ _______ _____ _____    ______ ____
ROOT
ATOM      1  C   UNL     1      43.763   6.644  11.360  0.00  0.00    +0.000 C 
ENDROOT
BRANCH   1   2
ATOM      2  C   UNL     1      43.878   5.141  11.149  0.00  0.00    +0.000 A 
ATOM      3  N   UNL     1      43.180   4.345  11.983  0.00  0.00    +0.000 NA
ATOM      4  C   UNL     1      43.243   3.029  11.740  0.00  0.00    +0.000 A 
ATOM      5  C   UNL     1      43.965   2.481  10.702  0.00  0.00    +0.000 A 
ATOM      6  C   UNL     1      44.655   3.362   9.890  0.00  0.00    +0.000 A 
ATOM      7  N   UNL     1      44.618   4.695  10.107  0.00  0.00    +0.000 NA
BRANCH   6   8
ATOM      8  C   UNL     1      45.479   2.909   8.754  0.00  0.00    +0.000 A 
ATOM      9  C   UNL     1      45.932   3.801   7.773  0.00  0.00    +0.000 A 
ATOM     10  N   UNL     1      46.734   3.470   6.725  0.00  0.00    +0.000 NA
ATOM     11  C   UNL     1      47.102   2.173   6.632  0.00  0.00    +0.000 A 
ATOM     12  C   UNL     1      46.690   1.207   7.528  0.00  0.00    +0.000 A 
ATOM     13  F   UNL     1      47.077  -0.067   7.387  0.00  0.00    +0.000 F 
ATOM     14  C   UNL     1      45.871   1.572   8.589  0.00  0.00    +0.000 A 
ENDBRANCH   6   8
ENDBRANCH   1   2
BRANCH   1  15
ATOM     15  N   UNL     1      44.486   7.100  12.551  0.00  0.00    +0.000 N 
ATOM     16  H   UNL     1      43.915   7.678  13.166  0.00  0.00    +0.000 HD
BRANCH  15  20
ATOM     17  C   UNL     1      48.518   8.227  12.022  0.00  0.00    +0.000 A 
ATOM     18  C   UNL     1      47.531   9.212  12.079  0.00  0.00    +0.000 A 
ATOM     19  C   UNL     1      46.194   8.852  12.283  0.00  0.00    +0.000 A 
ATOM     20  C   UNL     1      45.813   7.516  12.460  0.00  0.00    +0.000 A 
ATOM     21  C   UNL     1      46.819   6.542  12.404  0.00  0.00    +0.000 A 
ATOM     22  C   UNL     1      48.157   6.887  12.178  0.00  0.00    +0.000 A 
BRANCH  17  24
ATOM     23  N   UNL     1      50.856   7.561  11.870  0.00  0.00    +0.000 N 
ATOM     24  C   UNL     1      49.935   8.561  11.730  0.00  0.00    +0.000 C 
ATOM     25  O   UNL     1      50.272   9.676  11.357  0.00  0.00    +0.000 OA
ATOM     26  H   UNL     1      51.803   7.780  11.591  0.00  0.00    +0.000 HD
ATOM     27  H   UNL     1      50.598   6.586  11.935  0.00  0.00    +0.000 HD
ENDBRANCH  17  24
ENDBRANCH  15  20
ENDBRANCH   1  15
TORSDOF 5
ENDMDL
MODEL 7
REMARK VINA RESULT:    -7.526      2.128      2.815
REMARK INTER + INTRA:         -10.465
REMARK INTER:                  -9.970
REMARK INTRA:                  -0.495
REMARK UNBOUND:                -0.738
REMARK  Name = 
REMARK  5 active torsions:
REMARK  status: ('A' for Active; 'I' for Inactive)
REMARK    1  A    between atoms: C_2  and  C_4
REMARK    2  A    between atoms: C_7  and  N_8
REMARK    3  A    between atoms: N_8  and  C_9
REMARK    4  A    between atoms: C_9  and  C_10
REMARK    5  A    between atoms: C_14  and  C_15
REMARK                            x       y       z     vdW  Elec       q    Type
REMARK                         _______ _______ _______ _____ _____    ______ ____
ROOT
ATOM      1  C   UNL     1      44.635   3.713  11.816  0.00  0.00    +0.000 C 
ENDROOT
BRANCH   1   2
ATOM      2  C   UNL     1      44.934   5.206  11.801  0.00  0.00    +0.000 A 
ATOM      3  N   UNL     1      43.914   6.037  11.512  0.00  0.00    +0.000 NA
ATOM      4  C   UNL     1      44.182   7.349  11.569  0.00  0.00    +0.000 A 
ATOM      5  C   UNL     1      45.416   7.859  11.905  0.00  0.00    +0.000 A 
ATOM      6  C   UNL     1      46.412   6.943  12.188  0.00  0.00    +0.000 A 
ATOM      7  N   UNL     1      46.180   5.613  12.138  0.00  0.00    +0.000 NA
BRANCH   6   8
ATOM      8  C   UNL     1      47.783   7.352  12.547  0.00  0.00    +0.000 A 
ATOM      9  C   UNL     1      48.125   7.708  13.858  0.00  0.00    +0.000 A 
ATOM     10  N   UNL     1      49.374   8.047  14.276  0.00  0.00    +0.000 NA
ATOM     11  C   UNL     1      50.346   8.047  13.337  0.00  0.00    +0.000 A 
ATOM     12  C   UNL     1      50.113   7.739  12.012  0.00  0.00    +0.000 A 
ATOM     13  F   UNL     1      51.111   7.761  11.118  0.00  0.00    +0.000 F 
ATOM     14  C   UNL     1      48.828   7.396  11.611  0.00  0.00    +0.000 A 
ENDBRANCH   6   8
ENDBRANCH   1   2
BRANCH   1  15
ATOM     15  N   UNL     1      44.006   3.255  10.573  0.00  0.00    +0.000 N 
ATOM     16  H   UNL     1      43.291   2.546  10.727  0.00  0.00    +0.000 HD
BRANCH  15  20
ATOM     17  C   UNL     1      46.525   2.776   7.222  0.00  0.00    +0.000 A 
ATOM     18  C   UNL     1      46.164   1.659   7.975  0.00  0.00    +0.000 A 
ATOM     19  C   UNL     1      45.306   1.801   9.072  0.00  0.00    +0.000 A 
ATOM     20  C   UNL     1      44.769   3.045   9.426  0.00  0.00    +0.000 A 
ATOM     21  C   UNL     1      45.140   4.155   8.655  0.00  0.00    +0.000 A 
ATOM     22  C   UNL     1      46.016   4.029   7.569  0.00  0.00    +0.000 A 
BRANCH  17  24
ATOM     23  N   UNL     1      48.777   2.323   6.410  0.00  0.00    +0.000 N 
ATOM     24  C   UNL     1      47.494   2.679   6.101  0.00  0.00    +0.000 C 
ATOM     25  O   UNL     1      47.162   2.886   4.941  0.00  0.00    +0.000 OA
ATOM     26  H   UNL     1      49.405   2.183   5.629  0.00  0.00    +0.000 HD
ATOM     27  H   UNL     1      49.030   1.913   7.297  0.00  0.00    +0.000 HD
ENDBRANCH  17  24
ENDBRANCH  15  20
ENDBRANCH   1  15
TORSDOF 5
ENDMDL
MODEL 8
REMARK VINA RESULT:    -7.356      4.666      8.314
REMARK INTER + INTRA:         -10.245
REMARK INTER:                  -9.826
REMARK INTRA:                  -0.419
REMARK UNBOUND:                -0.738
REMARK  Name = 
REMARK  5 active torsions:
REMARK  status: ('A' for Active; 'I' for Inactive)
REMARK    1  A    between atoms: C_2  and  C_4
REMARK    2  A    between atoms: C_7  and  N_8
REMARK    3  A    between atoms: N_8  and  C_9
REMARK    4  A    between atoms: C_9  and  C_10
REMARK    5  A    between atoms: C_14  and  C_15
REMARK                            x       y       z     vdW  Elec       q    Type
REMARK                         _______ _______ _______ _____ _____    ______ ____
ROOT
ATOM      1  C   UNL     1      46.194   5.119  14.023  0.00  0.00    +0.000 C 
ENDROOT
BRANCH   1   2
ATOM      2  C   UNL     1      45.174   4.800  12.939  0.00  0.00    +0.000 A 
ATOM      3  N   UNL     1      43.882   5.079  13.204  0.00  0.00    +0.000 NA
ATOM      4  C   UNL     1      43.010   4.852  12.213  0.00  0.00    +0.000 A 
ATOM      5  C   UNL     1      43.373   4.367  10.977  0.00  0.00    +0.000 A 
ATOM      6  C   UNL     1      44.716   4.105  10.780  0.00  0.00    +0.000 A 
ATOM      7  N   UNL     1      45.624   4.318  11.758  0.00  0.00    +0.000 NA
BRANCH   6   8
ATOM      8  C   UNL     1      45.240   3.569   9.510  0.00  0.00    +0.000 A 
ATOM      9  C   UNL     1      45.561   4.406   8.435  0.00  0.00    +0.000 A 
ATOM     10  N   UNL     1      46.094   3.994   7.253  0.00  0.00    +0.000 NA
ATOM     11  C   UNL     1      46.310   2.666   7.119  0.00  0.00    +0.000 A 
ATOM     12  C   UNL     1      46.005   1.750   8.105  0.00  0.00    +0.000 A 
ATOM     13  F   UNL     1      46.233   0.443   7.920  0.00  0.00    +0.000 F 
ATOM     14  C   UNL     1      45.462   2.198   9.303  0.00  0.00    +0.000 A 
ENDBRANCH   6   8
ENDBRANCH   1   2
BRANCH   1  15
ATOM     15  N   UNL     1      46.760   3.913  14.633  0.00  0.00    +0.000 N 
ATOM     16  H   UNL     1      46.137   3.109  14.578  0.00  0.00    +0.000 HD
BRANCH  15  20
ATOM     17  C   UNL     1      48.710   4.304  18.355  0.00  0.00    +0.000 A 
ATOM     18  C   UNL     1      48.294   3.043  17.926  0.00  0.00    +0.000 A 
ATOM     19  C   UNL     1      47.672   2.896  16.681  0.00  0.00    +0.000 A 
ATOM     20  C   UNL     1      47.475   3.989  15.827  0.00  0.00    +0.000 A 
ATOM     21  C   UNL     1      47.904   5.247  16.273  0.00  0.00    +0.000 A 
ATOM     22  C   UNL     1      48.507   5.410  17.526  0.00  0.00    +0.000 A 
BRANCH  17  24
ATOM     23  N   UNL     1      48.574   4.094  20.777  0.00  0.00    +0.000 N 
ATOM     24  C   UNL     1      49.302   4.513  19.700  0.00  0.00    +0.000 C 
ATOM     25  O   UNL     1      50.407   5.019  19.848  0.00  0.00    +0.000 OA
ATOM     26  H   UNL     1      49.023   4.169  21.681  0.00  0.00    +0.000 HD
ATOM     27  H   UNL     1      47.788   3.464  20.693  0.00  0.00    +0.000 HD
ENDBRANCH  17  24
ENDBRANCH  15  20
ENDBRANCH   1  15
TORSDOF 5
ENDMDL
MODEL 9
REMARK VINA RESULT:    -7.219      3.843      7.569
REMARK INTER + INTRA:         -10.068
REMARK INTER:                  -9.634
REMARK INTRA:                  -0.435
REMARK UNBOUND:                -0.738
REMARK  Name = 
REMARK  5 active torsions:
REMARK  status: ('A' for Active; 'I' for Inactive)
REMARK    1  A    between atoms: C_2  and  C_4
REMARK    2  A    between atoms: C_7  and  N_8
REMARK    3  A    between atoms: N_8  and  C_9
REMARK    4  A    between atoms: C_9  and  C_10
REMARK    5  A    between atoms: C_14  and  C_15
REMARK                            x       y       z     vdW  Elec       q    Type
REMARK                         _______ _______ _______ _____ _____    ______ ____
ROOT
ATOM      1  C   UNL     1      45.883   7.223  11.887  0.00  0.00    +0.000 C 
ENDROOT
BRANCH   1   2
ATOM      2  C   UNL     1      45.079   6.057  11.330  0.00  0.00    +0.000 A 
ATOM      3  N   UNL     1      43.816   5.907  11.779  0.00  0.00    +0.000 NA
ATOM      4  C   UNL     1      43.104   4.914  11.229  0.00  0.00    +0.000 A 
ATOM      5  C   UNL     1      43.597   4.076  10.253  0.00  0.00    +0.000 A 
ATOM      6  C   UNL     1      44.899   4.292   9.845  0.00  0.00    +0.000 A 
ATOM      7  N   UNL     1      45.649   5.281  10.380  0.00  0.00    +0.000 NA
BRANCH   6   8
ATOM      8  C   UNL     1      45.556   3.459   8.820  0.00  0.00    +0.000 A 
ATOM      9  C   UNL     1      46.205   4.026   7.717  0.00  0.00    +0.000 A 
ATOM     10  N   UNL     1      46.873   3.330   6.758  0.00  0.00    +0.000 NA
ATOM     11  C   UNL     1      46.891   1.985   6.891  0.00  0.00    +0.000 A 
ATOM     12  C   UNL     1      46.260   1.322   7.924  0.00  0.00    +0.000 A 
ATOM     13  F   UNL     1      46.301  -0.015   8.007  0.00  0.00    +0.000 F 
ATOM     14  C   UNL     1      45.585   2.057   8.890  0.00  0.00    +0.000 A 
ENDBRANCH   6   8
ENDBRANCH   1   2
BRANCH   1  15
ATOM     15  N   UNL     1      47.256   6.844  12.231  0.00  0.00    +0.000 N 
ATOM     16  H   UNL     1      47.777   6.471  11.439  0.00  0.00    +0.000 HD
BRANCH  15  20
ATOM     17  C   UNL     1      47.971   5.127  16.020  0.00  0.00    +0.000 A 
ATOM     18  C   UNL     1      47.145   4.466  15.110  0.00  0.00    +0.000 A 
ATOM     19  C   UNL     1      46.923   5.011  13.840  0.00  0.00    +0.000 A 
ATOM     20  C   UNL     1      47.536   6.204  13.438  0.00  0.00    +0.000 A 
ATOM     21  C   UNL     1      48.365   6.852  14.364  0.00  0.00    +0.000 A 
ATOM     22  C   UNL     1      48.577   6.328  15.645  0.00  0.00    +0.000 A 
BRANCH  17  24
ATOM     23  N   UNL     1      47.050   4.434  18.166  0.00  0.00    +0.000 N 
ATOM     24  C   UNL     1      48.168   4.623  17.402  0.00  0.00    +0.000 C 
ATOM     25  O   UNL     1      49.280   4.362  17.842  0.00  0.00    +0.000 OA
ATOM     26  H   UNL     1      47.193   4.015  19.075  0.00  0.00    +0.000 HD
ATOM     27  H   UNL     1      46.120   4.401  17.773  0.00  0.00    +0.000 HD
ENDBRANCH  17  24
ENDBRANCH  15  20
ENDBRANCH   1  15
TORSDOF 5
ENDMDL
