MODEL 1
REMARK VINA RESULT:    -6.800      0.000      0.000
REMARK INTER + INTRA:          -8.962
REMARK INTER:                  -8.391
REMARK INTRA:                  -0.571
REMARK UNBOUND:                -0.571
REMARK  Name = 
REMARK  6 active torsions:
REMARK  status: ('A' for Active; 'I' for Inactive)
REMARK    1  A    between atoms: C_1  and  C_2
REMARK    2  A    between atoms: C_2  and  C_3
REMARK    3  A    between atoms: C_2  and  C_4
REMARK    4  A    between atoms: C_2  and  C_15
REMARK    5  A    between atoms: C_5  and  C_6
REMARK    6  A    between atoms: C_9  and  C_10
REMARK                            x       y       z     vdW  Elec       q    Type
REMARK                         _______ _______ _______ _____ _____    ______ ____
ROOT
ATOM      1  C   UNL     1      45.214   3.885  12.229  0.00  0.00    +0.000 C 
ATOM      2  C   UNL     1      45.778   5.044  12.614  0.00  0.00    +0.000 C 
ENDROOT
BRANCH   2   3
ATOM      3  C   UNL     1      46.669   5.204  13.764  0.00  0.00    +0.000 A 
ATOM      4  C   UNL     1      47.574   6.253  13.884  0.00  0.00    +0.000 A 
ATOM      5  C   UNL     1      48.418   6.291  14.992  0.00  0.00    +0.000 A 
ATOM      6  C   UNL     1      48.331   5.297  15.969  0.00  0.00    +0.000 A 
ATOM      7  C   UNL     1      47.368   4.315  15.787  0.00  0.00    +0.000 A 
ATOM      8  N   UNL     1      46.537   4.251  14.716  0.00  0.00    +0.000 NA
BRANCH   6   9
ATOM      9  C   UNL     1      49.266   5.337  17.118  0.00  0.00    +0.000 C 
ATOM     10  N   UNL     1      48.864   5.928  18.283  0.00  0.00    +0.000 N 
ATOM     11  O   UNL     1      50.384   4.840  17.041  0.00  0.00    +0.000 OA
ATOM     12  H   UNL     1      47.964   6.345  18.463  0.00  0.00    +0.000 HD
ATOM     13  H   UNL     1      49.532   5.914  19.045  0.00  0.00    +0.000 HD
ENDBRANCH   6   9
ENDBRANCH   2   3
BRANCH   1  15
ATOM     14  C   UNL     1      43.243   2.570  11.367  0.00  0.00    +0.000 C 
ATOM     15  C   UNL     1      44.231   3.720  11.067  0.00  0.00    +0.000 C 
ATOM     16  C   UNL     1      43.418   5.028  10.915  0.00  0.00    +0.000 C 
BRANCH  15  17
ATOM     17  C   UNL     1      44.986   3.400   9.756  0.00  0.00    +0.000 A 
ATOM     18  C   UNL     1      45.383   4.423   8.888  0.00  0.00    +0.000 A 
ATOM     19  C   UNL     1      46.041   4.103   7.701  0.00  0.00    +0.000 A 
ATOM     20  C   UNL     1      46.294   2.772   7.403  0.00  0.00    +0.000 A 
ATOM     21  C   UNL     1      45.879   1.814   8.308  0.00  0.00    +0.000 A 
ATOM     22  N   UNL     1      45.236   2.097   9.462  0.00  0.00    +0.000 NA
ENDBRANCH  15  17
ENDBRANCH   1  15
TORSDOF 4
ENDMDL
MODEL 2
REMARK VINA RESULT:    -6.704      4.514      7.627
REMARK INTER + INTRA:          -8.843
REMARK INTER:                  -8.321
REMARK INTRA:                  -0.522
REMARK UNBOUND:                -0.571
REMARK  Name = 
REMARK  6 active torsions:
REMARK  status: ('A' for Active; 'I' for Inactive)
REMARK    1  A    between atoms: C_1  and  C_2
REMARK    2  A    between atoms: C_2  and  C_3
REMARK    3  A    between atoms: C_2  and  C_4
REMARK    4  A    between atoms: C_2  and  C_15
REMARK    5  A    between atoms: C_5  and  C_6
REMARK    6  A    between atoms: C_9  and  C_10
REMARK                            x       y       z     vdW  Elec       q    Type
REMARK                         _______ _______ _______ _____ _____    ______ ____
ROOT
ATOM      1  C   UNL     1      44.966   5.582  10.808  0.00  0.00    +0.000 C 
ATOM      2  C   UNL     1      44.506   4.580  10.036  0.00  0.00    +0.000 C 
ENDROOT
BRANCH   2   3
ATOM      3  C   UNL     1      45.286   3.881   9.014  0.00  0.00    +0.000 A 
ATOM      4  C   UNL     1      45.316   2.496   8.897  0.00  0.00    +0.000 A 
ATOM      5  C   UNL     1      46.131   1.920   7.924  0.00  0.00    +0.000 A 
ATOM      6  C   UNL     1      46.884   2.733   7.074  0.00  0.00    +0.000 A 
ATOM      7  C   UNL     1      46.756   4.104   7.236  0.00  0.00    +0.000 A 
ATOM      8  N   UNL     1      45.974   4.692   8.177  0.00  0.00    +0.000 NA
BRANCH   6   9
ATOM      9  C   UNL     1      47.772   2.096   6.073  0.00  0.00    +0.000 C 
ATOM     10  N   UNL     1      48.007   2.735   4.889  0.00  0.00    +0.000 N 
ATOM     11  O   UNL     1      48.304   1.015   6.299  0.00  0.00    +0.000 OA
ATOM     12  H   UNL     1      47.642   3.632   4.610  0.00  0.00    +0.000 HD
ATOM     13  H   UNL     1      48.635   2.268   4.245  0.00  0.00    +0.000 HD
ENDBRANCH   6   9
ENDBRANCH   2   3
BRANCH   1  15
ATOM     14  C   UNL     1      42.631   6.154  11.569  0.00  0.00    +0.000 C 
ATOM     15  C   UNL     1      44.140   6.362  11.834  0.00  0.00    +0.000 C 
ATOM     16  C   UNL     1      44.461   5.820  13.247  0.00  0.00    +0.000 C 
BRANCH  15  17
ATOM     17  C   UNL     1      44.457   7.873  11.751  0.00  0.00    +0.000 A 
ATOM     18  C   UNL     1      45.511   8.427  12.487  0.00  0.00    +0.000 A 
ATOM     19  C   UNL     1      45.758   9.797  12.411  0.00  0.00    +0.000 A 
ATOM     20  C   UNL     1      44.956  10.589  11.604  0.00  0.00    +0.000 A 
ATOM     21  C   UNL     1      43.936   9.975  10.901  0.00  0.00    +0.000 A 
ATOM     22  N   UNL     1      43.672   8.651  10.960  0.00  0.00    +0.000 NA
ENDBRANCH  15  17
ENDBRANCH   1  15
TORSDOF 4
ENDMDL
MODEL 3
REMARK VINA RESULT:    -6.701      1.497      1.774
REMARK INTER + INTRA:          -8.838
REMARK INTER:                  -8.243
REMARK INTRA:                  -0.596
REMARK UNBOUND:                -0.571
REMARK  Name = 
REMARK  6 active torsions:
REMARK  status: ('A' for Active; 'I' for Inactive)
REMARK    1  A    between atoms: C_1  and  C_2
REMARK    2  A    between atoms: C_2  and  C_3
REMARK    3  A    between atoms: C_2  and  C_4
REMARK    4  A    between atoms: C_2  and  C_15
REMARK    5  A    between atoms: C_5  and  C_6
REMARK    6  A    between atoms: C_9  and  C_10
REMARK                            x       y       z     vdW  Elec       q    Type
REMARK                         _______ _______ _______ _____ _____    ______ ____
ROOT
ATOM      1  C   UNL     1      45.108   4.832  12.983  0.00  0.00    +0.000 C 
ATOM      2  C   UNL     1      46.407   5.049  13.258  0.00  0.00    +0.000 C 
ENDROOT
BRANCH   2   3
ATOM      3  C   UNL     1      47.088   4.626  14.482  0.00  0.00    +0.000 A 
ATOM      4  C   UNL     1      47.539   5.519  15.448  0.00  0.00    +0.000 A 
ATOM      5  C   UNL     1      48.224   5.023  16.556  0.00  0.00    +0.000 A 
ATOM      6  C   UNL     1      48.429   3.649  16.691  0.00  0.00    +0.000 A 
ATOM      7  C   UNL     1      47.906   2.831  15.701  0.00  0.00    +0.000 A 
ATOM      8  N   UNL     1      47.239   3.286  14.610  0.00  0.00    +0.000 NA
BRANCH   6   9
ATOM      9  C   UNL     1      49.194   3.149  17.858  0.00  0.00    +0.000 C 
ATOM     10  N   UNL     1      48.584   3.091  19.079  0.00  0.00    +0.000 N 
ATOM     11  O   UNL     1      50.357   2.779  17.739  0.00  0.00    +0.000 OA
ATOM     12  H   UNL     1      47.631   3.347  19.285  0.00  0.00    +0.000 HD
ATOM     13  H   UNL     1      49.143   2.726  19.842  0.00  0.00    +0.000 HD
ENDBRANCH   6   9
ENDBRANCH   2   3
BRANCH   1  15
ATOM     14  C   UNL     1      42.844   5.242  11.952  0.00  0.00    +0.000 C 
ATOM     15  C   UNL     1      44.372   5.327  11.735  0.00  0.00    +0.000 C 
ATOM     16  C   UNL     1      44.743   6.809  11.493  0.00  0.00    +0.000 C 
BRANCH  15  17
ATOM     17  C   UNL     1      44.749   4.469  10.505  0.00  0.00    +0.000 A 
ATOM     18  C   UNL     1      45.458   5.024   9.432  0.00  0.00    +0.000 A 
ATOM     19  C   UNL     1      45.763   4.233   8.326  0.00  0.00    +0.000 A 
ATOM     20  C   UNL     1      45.361   2.906   8.308  0.00  0.00    +0.000 A 
ATOM     21  C   UNL     1      44.670   2.422   9.402  0.00  0.00    +0.000 A 
ATOM     22  N   UNL     1      44.357   3.168  10.485  0.00  0.00    +0.000 NA
ENDBRANCH  15  17
ENDBRANCH   1  15
TORSDOF 4
ENDMDL
MODEL 4
REMARK VINA RESULT:    -6.448      1.491      2.111
REMARK INTER + INTRA:          -8.527
REMARK INTER:                  -7.953
REMARK INTRA:                  -0.573
REMARK UNBOUND:                -0.571
REMARK  Name = 
REMARK  6 active torsions:
REMARK  status: ('A' for Active; 'I' for Inactive)
REMARK    1  A    between atoms: C_1  and  C_2
REMARK    2  A    between atoms: C_2  and  C_3
REMARK    3  A    between atoms: C_2  and  C_4
REMARK    4  A    between atoms: C_2  and  C_15
REMARK    5  A    between atoms: C_5  and  C_6
REMARK    6  A    between atoms: C_9  and  C_10
REMARK                            x       y       z     vdW  Elec       q    Type
REMARK                         _______ _______ _______ _____ _____    ______ ____
ROOT
ATOM      1  C   UNL     1      45.466   4.899  12.685  0.00  0.00    +0.000 C 
ATOM      2  C   UNL     1      46.563   5.463  13.222  0.00  0.00    +0.000 C 
ENDROOT
BRANCH   2   3
ATOM      3  C   UNL     1      47.210   5.028  14.461  0.00  0.00    +0.000 A 
ATOM      4  C   UNL     1      47.000   3.777  15.030  0.00  0.00    +0.000 A 
ATOM      5  C   UNL     1      47.621   3.474  16.240  0.00  0.00    +0.000 A 
ATOM      6  C   UNL     1      48.455   4.414  16.850  0.00  0.00    +0.000 A 
ATOM      7  C   UNL     1      48.640   5.618  16.187  0.00  0.00    +0.000 A 
ATOM      8  N   UNL     1      48.045   5.941  15.011  0.00  0.00    +0.000 NA
BRANCH   6   9
ATOM      9  C   UNL     1      49.073   4.083  18.155  0.00  0.00    +0.000 C 
ATOM     10  N   UNL     1      48.374   3.322  19.050  0.00  0.00    +0.000 N 
ATOM     11  O   UNL     1      50.201   4.472  18.436  0.00  0.00    +0.000 OA
ATOM     12  H   UNL     1      47.454   2.933  18.914  0.00  0.00    +0.000 HD
ATOM     13  H   UNL     1      48.847   3.109  19.920  0.00  0.00    +0.000 HD
ENDBRANCH   6   9
ENDBRANCH   2   3
BRANCH   1  15
ATOM     14  C   UNL     1      43.219   5.422  11.667  0.00  0.00    +0.000 C 
ATOM     15  C   UNL     1      44.745   5.387  11.425  0.00  0.00    +0.000 C 
ATOM     16  C   UNL     1      45.217   6.826  11.108  0.00  0.00    +0.000 C 
BRANCH  15  17
ATOM     17  C   UNL     1      45.039   4.447  10.232  0.00  0.00    +0.000 A 
ATOM     18  C   UNL     1      44.752   3.079  10.308  0.00  0.00    +0.000 A 
ATOM     19  C   UNL     1      45.050   2.253   9.227  0.00  0.00    +0.000 A 
ATOM     20  C   UNL     1      45.625   2.801   8.090  0.00  0.00    +0.000 A 
ATOM     21  C   UNL     1      45.877   4.160   8.081  0.00  0.00    +0.000 A 
ATOM     22  N   UNL     1      45.601   4.983   9.118  0.00  0.00    +0.000 NA
ENDBRANCH  15  17
ENDBRANCH   1  15
TORSDOF 4
ENDMDL
MODEL 5
REMARK VINA RESULT:    -6.246      2.915      7.812
REMARK INTER + INTRA:          -8.278
REMARK INTER:                  -7.714
REMARK INTRA:                  -0.564
REMARK UNBOUND:                -0.571
REMARK  Name = 
REMARK  6 active torsions:
REMARK  status: ('A' for Active; 'I' for Inactive)
REMARK    1  A    between atoms: C_1  and  C_2
REMARK    2  A    between atoms: C_2  and  C_3
REMARK    3  A    between atoms: C_2  and  C_4
REMARK    4  A    between atoms: C_2  and  C_15
REMARK    5  A    between atoms: C_5  and  C_6
REMARK    6  A    between atoms: C_9  and  C_10
REMARK                            x       y       z     vdW  Elec       q    Type
REMARK                         _______ _______ _______ _____ _____    ______ ____
ROOT
ATOM      1  C   UNL     1      47.493   4.740  15.990  0.00  0.00    +0.000 C 
ATOM      2  C   UNL     1      47.515   5.379  14.806  0.00  0.00    +0.000 C 
ENDROOT
BRANCH   2   3
ATOM      3  C   UNL     1      46.692   5.030  13.647  0.00  0.00    +0.000 A 
ATOM      4  C   UNL     1      46.269   5.964  12.708  0.00  0.00    +0.000 A 
ATOM      5  C   UNL     1      45.444   5.544  11.666  0.00  0.00    +0.000 A 
ATOM      6  C   UNL     1      45.073   4.202  11.568  0.00  0.00    +0.000 A 
ATOM      7  C   UNL     1      45.579   3.335  12.525  0.00  0.00    +0.000 A 
ATOM      8  N   UNL     1      46.381   3.717  13.552  0.00  0.00    +0.000 NA
BRANCH   6   9
ATOM      9  C   UNL     1      44.163   3.787  10.474  0.00  0.00    +0.000 C 
ATOM     10  N   UNL     1      44.182   4.476   9.294  0.00  0.00    +0.000 N 
ATOM     11  O   UNL     1      43.407   2.831  10.609  0.00  0.00    +0.000 OA
ATOM     12  H   UNL     1      44.776   5.259   9.068  0.00  0.00    +0.000 HD
ATOM     13  H   UNL     1      43.555   4.143   8.572  0.00  0.00    +0.000 HD
ENDBRANCH   6   9
ENDBRANCH   2   3
BRANCH   1  15
ATOM     14  C   UNL     1      49.013   6.464  17.027  0.00  0.00    +0.000 C 
ATOM     15  C   UNL     1      48.395   5.056  17.186  0.00  0.00    +0.000 C 
ATOM     16  C   UNL     1      47.536   5.049  18.472  0.00  0.00    +0.000 C 
BRANCH  15  17
ATOM     17  C   UNL     1      49.538   4.020  17.294  0.00  0.00    +0.000 A 
ATOM     18  C   UNL     1      49.303   2.663  17.040  0.00  0.00    +0.000 A 
ATOM     19  C   UNL     1      50.346   1.748  17.170  0.00  0.00    +0.000 A 
ATOM     20  C   UNL     1      51.603   2.199  17.544  0.00  0.00    +0.000 A 
ATOM     21  C   UNL     1      51.765   3.552  17.774  0.00  0.00    +0.000 A 
ATOM     22  N   UNL     1      50.770   4.459  17.660  0.00  0.00    +0.000 NA
ENDBRANCH  15  17
ENDBRANCH   1  15
TORSDOF 4
ENDMDL
MODEL 6
REMARK VINA RESULT:    -6.164      2.242      2.585
REMARK INTER + INTRA:          -8.177
REMARK INTER:                  -7.579
REMARK INTRA:                  -0.598
REMARK UNBOUND:                -0.571
REMARK  Name = 
REMARK  6 active torsions:
REMARK  status: ('A' for Active; 'I' for Inactive)
REMARK    1  A    between atoms: C_1  and  C_2
REMARK    2  A    between atoms: C_2  and  C_3
REMARK    3  A    between atoms: C_2  and  C_4
REMARK    4  A    between atoms: C_2  and  C_15
REMARK    5  A    between atoms: C_5  and  C_6
REMARK    6  A    between atoms: C_9  and  C_10
REMARK                            x       y       z     vdW  Elec       q    Type
REMARK                         _______ _______ _______ _____ _____    ______ ____
ROOT
ATOM      1  C   UNL     1      45.419   5.877  12.051  0.00  0.00    +0.000 C 
ATOM      2  C   UNL     1      46.467   5.418  12.758  0.00  0.00    +0.000 C 
ENDROOT
BRANCH   2   3
ATOM      3  C   UNL     1      47.628   6.217  13.155  0.00  0.00    +0.000 A 
ATOM      4  C   UNL     1      48.274   7.097  12.295  0.00  0.00    +0.000 A 
ATOM      5  C   UNL     1      49.403   7.775  12.749  0.00  0.00    +0.000 A 
ATOM      6  C   UNL     1      49.855   7.580  14.056  0.00  0.00    +0.000 A 
ATOM      7  C   UNL     1      49.121   6.716  14.856  0.00  0.00    +0.000 A 
ATOM      8  N   UNL     1      48.021   6.040  14.439  0.00  0.00    +0.000 NA
BRANCH   6   9
ATOM      9  C   UNL     1      51.081   8.282  14.504  0.00  0.00    +0.000 C 
ATOM     10  N   UNL     1      52.172   7.548  14.874  0.00  0.00    +0.000 N 
ATOM     11  O   UNL     1      51.131   9.507  14.534  0.00  0.00    +0.000 OA
ATOM     12  H   UNL     1      52.248   6.543  14.866  0.00  0.00    +0.000 HD
ATOM     13  H   UNL     1      52.991   8.074  15.155  0.00  0.00    +0.000 HD
ENDBRANCH   6   9
ENDBRANCH   2   3
BRANCH   1  15
ATOM     14  C   UNL     1      43.786   4.067  12.695  0.00  0.00    +0.000 C 
ATOM     15  C   UNL     1      44.232   5.034  11.576  0.00  0.00    +0.000 C 
ATOM     16  C   UNL     1      43.050   5.978  11.253  0.00  0.00    +0.000 C 
BRANCH  15  17
ATOM     17  C   UNL     1      44.618   4.207  10.327  0.00  0.00    +0.000 A 
ATOM     18  C   UNL     1      45.322   4.792   9.268  0.00  0.00    +0.000 A 
ATOM     19  C   UNL     1      45.635   4.029   8.145  0.00  0.00    +0.000 A 
ATOM     20  C   UNL     1      45.247   2.698   8.097  0.00  0.00    +0.000 A 
ATOM     21  C   UNL     1      44.560   2.184   9.181  0.00  0.00    +0.000 A 
ATOM     22  N   UNL     1      44.240   2.903  10.279  0.00  0.00    +0.000 NA
ENDBRANCH  15  17
ENDBRANCH   1  15
TORSDOF 4
ENDMDL
MODEL 7
REMARK VINA RESULT:    -5.629      4.672      7.360
REMARK INTER + INTRA:          -7.517
REMARK INTER:                  -6.989
REMARK INTRA:                  -0.527
REMARK UNBOUND:                -0.571
REMARK  Name = 
REMARK  6 active torsions:
REMARK  status: ('A' for Active; 'I' for Inactive)
REMARK    1  A    between atoms: C_1  and  C_2
REMARK    2  A    between atoms: C_2  and  C_3
REMARK    3  A    between atoms: C_2  and  C_4
REMARK    4  A    between atoms: C_2  and  C_15
REMARK    5  A    between atoms: C_5  and  C_6
REMARK    6  A    between atoms: C_9  and  C_10
REMARK                            x       y       z     vdW  Elec       q    Type
REMARK                         _______ _______ _______ _____ _____    ______ ____
ROOT
ATOM      1  C   UNL     1      48.620   7.500  11.781  0.00  0.00    +0.000 C 
ATOM      2  C   UNL     1      47.345   7.376  12.193  0.00  0.00    +0.000 C 
ENDROOT
BRANCH   2   3
ATOM      3  C   UNL     1      46.484   6.223  11.926  0.00  0.00    +0.000 A 
ATOM      4  C   UNL     1      46.268   5.206  12.849  0.00  0.00    +0.000 A 
ATOM      5  C   UNL     1      45.472   4.122  12.483  0.00  0.00    +0.000 A 
ATOM      6  C   UNL     1      44.891   4.082  11.214  0.00  0.00    +0.000 A 
ATOM      7  C   UNL     1      45.126   5.162  10.376  0.00  0.00    +0.000 A 
ATOM      8  N   UNL     1      45.900   6.228  10.705  0.00  0.00    +0.000 NA
BRANCH   6   9
ATOM      9  C   UNL     1      44.081   2.901  10.834  0.00  0.00    +0.000 C 
ATOM     10  N   UNL     1      44.530   2.076   9.841  0.00  0.00    +0.000 N 
ATOM     11  O   UNL     1      43.025   2.649  11.404  0.00  0.00    +0.000 OA
ATOM     12  H   UNL     1      45.389   2.175   9.324  0.00  0.00    +0.000 HD
ATOM     13  H   UNL     1      43.949   1.272   9.630  0.00  0.00    +0.000 HD
ENDBRANCH   6   9
ENDBRANCH   2   3
BRANCH   1  15
ATOM     14  C   UNL     1      48.747  10.012  11.596  0.00  0.00    +0.000 C 
ATOM     15  C   UNL     1      49.508   8.728  12.000  0.00  0.00    +0.000 C 
ATOM     16  C   UNL     1      49.857   8.827  13.504  0.00  0.00    +0.000 C 
BRANCH  15  17
ATOM     17  C   UNL     1      50.797   8.625  11.153  0.00  0.00    +0.000 A 
ATOM     18  C   UNL     1      51.240   7.389  10.667  0.00  0.00    +0.000 A 
ATOM     19  C   UNL     1      52.419   7.324   9.927  0.00  0.00    +0.000 A 
ATOM     20  C   UNL     1      53.133   8.487   9.680  0.00  0.00    +0.000 A 
ATOM     21  C   UNL     1      52.635   9.673  10.185  0.00  0.00    +0.000 A 
ATOM     22  N   UNL     1      51.497   9.764  10.910  0.00  0.00    +0.000 NA
ENDBRANCH  15  17
ENDBRANCH   1  15
TORSDOF 4
ENDMDL
MODEL 8
REMARK VINA RESULT:    -5.571      2.569      3.062
REMARK INTER + INTRA:          -7.444
REMARK INTER:                  -6.927
REMARK INTRA:                  -0.517
REMARK UNBOUND:                -0.571
REMARK  Name = 
REMARK  6 active torsions:
REMARK  status: ('A' for Active; 'I' for Inactive)
REMARK    1  A    between atoms: C_1  and  C_2
REMARK    2  A    between atoms: C_2  and  C_3
REMARK    3  A    between atoms: C_2  and  C_4
REMARK    4  A    between atoms: C_2  and  C_15
REMARK    5  A    between atoms: C_5  and  C_6
REMARK    6  A    between atoms: C_9  and  C_10
REMARK                            x       y       z     vdW  Elec       q    Type
REMARK                         _______ _______ _______ _____ _____    ______ ____
ROOT
ATOM      1  C   UNL     1      45.657   5.431  11.243  0.00  0.00    +0.000 C 
ATOM      2  C   UNL     1      45.904   5.633  12.550  0.00  0.00    +0.000 C 
ENDROOT
BRANCH   2   3
ATOM      3  C   UNL     1      46.815   6.645  13.087  0.00  0.00    +0.000 A 
ATOM      4  C   UNL     1      48.096   6.351  13.539  0.00  0.00    +0.000 A 
ATOM      5  C   UNL     1      48.870   7.375  14.082  0.00  0.00    +0.000 A 
ATOM      6  C   UNL     1      48.362   8.674  14.146  0.00  0.00    +0.000 A 
ATOM      7  C   UNL     1      47.092   8.882  13.630  0.00  0.00    +0.000 A 
ATOM      8  N   UNL     1      46.314   7.903  13.100  0.00  0.00    +0.000 NA
BRANCH   6   9
ATOM      9  C   UNL     1      49.189   9.738  14.763  0.00  0.00    +0.000 C 
ATOM     10  N   UNL     1      50.060  10.443  13.980  0.00  0.00    +0.000 N 
ATOM     11  O   UNL     1      49.094   9.999  15.957  0.00  0.00    +0.000 OA
ATOM     12  H   UNL     1      50.202  10.328  12.989  0.00  0.00    +0.000 HD
ATOM     13  H   UNL     1      50.589  11.171  14.445  0.00  0.00    +0.000 HD
ENDBRANCH   6   9
ENDBRANCH   2   3
BRANCH   1  15
ATOM     14  C   UNL     1      44.547   3.217  11.718  0.00  0.00    +0.000 C 
ATOM     15  C   UNL     1      44.757   4.333  10.670  0.00  0.00    +0.000 C 
ATOM     16  C   UNL     1      43.377   4.947  10.335  0.00  0.00    +0.000 C 
BRANCH  15  17
ATOM     17  C   UNL     1      45.394   3.714   9.404  0.00  0.00    +0.000 A 
ATOM     18  C   UNL     1      45.398   2.328   9.206  0.00  0.00    +0.000 A 
ATOM     19  C   UNL     1      46.001   1.796   8.068  0.00  0.00    +0.000 A 
ATOM     20  C   UNL     1      46.584   2.652   7.145  0.00  0.00    +0.000 A 
ATOM     21  C   UNL     1      46.539   4.010   7.401  0.00  0.00    +0.000 A 
ATOM     22  N   UNL     1      45.965   4.550   8.499  0.00  0.00    +0.000 NA
ENDBRANCH  15  17
ENDBRANCH   1  15
TORSDOF 4
ENDMDL
MODEL 9
REMARK VINA RESULT:    -5.517      2.892      8.035
REMARK INTER + INTRA:          -7.378
REMARK INTER:                  -6.849
REMARK INTRA:                  -0.529
REMARK UNBOUND:                -0.571
REMARK  Name = 
REMARK  6 active torsions:
REMARK  status: ('A' for Active; 'I' for Inactive)
REMARK    1  A    between atoms: C_1  and  C_2
REMARK    2  A    between atoms: C_2  and  C_3
REMARK    3  A    between atoms: C_2  and  C_4
REMARK    4  A    between atoms: C_2  and  C_15
REMARK    5  A    between atoms: C_5  and  C_6
REMARK    6  A    between atoms: C_9  and  C_10
REMARK                            x       y       z     vdW  Elec       q    Type
REMARK                         _______ _______ _______ _____ _____    ______ ____
ROOT
ATOM      1  C   UNL     1      48.497   6.553  14.342  0.00  0.00    +0.000 C 
ATOM      2  C   UNL     1      47.334   6.943  13.789  0.00  0.00    +0.000 C 
ENDROOT
BRANCH   2   3
ATOM      3  C   UNL     1      46.590   6.191  12.778  0.00  0.00    +0.000 A 
ATOM      4  C   UNL     1      46.462   6.612  11.459  0.00  0.00    +0.000 A 
ATOM      5  C   UNL     1      45.689   5.854  10.582  0.00  0.00    +0.000 A 
ATOM      6  C   UNL     1      45.075   4.681  11.029  0.00  0.00    +0.000 A 
ATOM      7  C   UNL     1      45.295   4.317  12.349  0.00  0.00    +0.000 A 
ATOM      8  N   UNL     1      46.040   5.038  13.226  0.00  0.00    +0.000 NA
BRANCH   6   9
ATOM      9  C   UNL     1      44.227   3.913  10.088  0.00  0.00    +0.000 C 
ATOM     10  N   UNL     1      44.119   4.333   8.793  0.00  0.00    +0.000 N 
ATOM     11  O   UNL     1      43.633   2.904  10.453  0.00  0.00    +0.000 OA
ATOM     12  H   UNL     1      44.579   5.130   8.382  0.00  0.00    +0.000 HD
ATOM     13  H   UNL     1      43.542   3.764   8.184  0.00  0.00    +0.000 HD
ENDBRANCH   6   9
ENDBRANCH   2   3
BRANCH   1  15
ATOM     14  C   UNL     1      50.668   7.776  14.729  0.00  0.00    +0.000 C 
ATOM     15  C   UNL     1      49.315   7.363  15.352  0.00  0.00    +0.000 C 
ATOM     16  C   UNL     1      48.533   8.650  15.706  0.00  0.00    +0.000 C 
BRANCH  15  17
ATOM     17  C   UNL     1      49.586   6.529  16.626  0.00  0.00    +0.000 A 
ATOM     18  C   UNL     1      50.122   7.125  17.774  0.00  0.00    +0.000 A 
ATOM     19  C   UNL     1      50.379   6.344  18.899  0.00  0.00    +0.000 A 
ATOM     20  C   UNL     1      50.094   4.987  18.863  0.00  0.00    +0.000 A 
ATOM     21  C   UNL     1      49.561   4.466  17.699  0.00  0.00    +0.000 A 
ATOM     22  N   UNL     1      49.307   5.200  16.593  0.00  0.00    +0.000 NA
ENDBRANCH  15  17
ENDBRANCH   1  15
TORSDOF 4
ENDMDL
