MODEL 1
REMARK VINA RESULT:    -8.127      0.000      0.000
REMARK INTER + INTRA:         -13.658
REMARK INTER:                 -12.402
REMARK INTRA:                  -1.255
REMARK UNBOUND:                -1.255
REMARK  Name = 
REMARK  12 active torsions:
REMARK  status: ('A' for Active; 'I' for Inactive)
REMARK    1  A    between atoms: C_1  and  C_2
REMARK    2  A    between atoms: C_4  and  C_5
REMARK    3  A    between atoms: C_5  and  O_6
REMARK    4  A    between atoms: O_6  and  C_7
REMARK    5  A    between atoms: C_9  and  N_10
REMARK    6  A    between atoms: N_10  and  C_11
REMARK    7  A    between atoms: C_11  and  C_12
REMARK    8  A    between atoms: C_12  and  C_13
REMARK    9  A    between atoms: C_12  and  C_14
REMARK   10  A    between atoms: C_12  and  C_15
REMARK   11  A    between atoms: C_18  and  C_19
REMARK   12  A    between atoms: C_25  and  C_26
REMARK                            x       y       z     vdW  Elec       q    Type
REMARK                         _______ _______ _______ _____ _____    ______ ____
ROOT
ATOM      1  N   UNL     1      45.701   5.855  11.632  0.00  0.00    +0.000 N 
ATOM      2  H   UNL     1      45.014   6.603  11.590  0.00  0.00    +0.000 HD
ENDROOT
BRANCH   1   5
ATOM      3  C   UNL     1      48.368   6.178  14.231  0.00  0.00    +0.000 A 
ATOM      4  C   UNL     1      47.177   5.774  13.580  0.00  0.00    +0.000 A 
ATOM      5  C   UNL     1      46.859   6.290  12.302  0.00  0.00    +0.000 A 
ATOM      6  C   UNL     1      47.672   7.279  11.772  0.00  0.00    +0.000 A 
ATOM      7  C   UNL     1      48.814   7.744  12.435  0.00  0.00    +0.000 A 
ATOM      8  C   UNL     1      49.158   7.152  13.650  0.00  0.00    +0.000 A 
BRANCH   7   9
ATOM      9  C   UNL     1      49.601   8.886  11.869  0.00  0.00    +0.000 C 
ATOM     10  F   UNL     1      50.594   8.482  11.028  0.00  0.00    +0.000 F 
ATOM     11  F   UNL     1      48.829   9.744  11.153  0.00  0.00    +0.000 F 
ATOM     12  F   UNL     1      50.210   9.638  12.829  0.00  0.00    +0.000 F 
ENDBRANCH   7   9
BRANCH   3  13
ATOM     13  O   UNL     1      48.694   5.609  15.445  0.00  0.00    +0.000 OA
BRANCH  13  14
ATOM     14  C   UNL     1      47.586   4.953  16.101  0.00  0.00    +0.000 C 
BRANCH  14  18
ATOM     15  C   UNL     1      49.931   2.082  17.142  0.00  0.00    +0.000 C 
ATOM     16  C   UNL     1      48.935   3.148  17.452  0.00  0.00    +0.000 C 
ATOM     17  C   UNL     1      47.475   2.821  17.632  0.00  0.00    +0.000 C 
ATOM     18  C   UNL     1      47.927   3.523  16.378  0.00  0.00    +0.000 C 
ENDBRANCH  14  18
ENDBRANCH  13  14
ENDBRANCH   3  13
ENDBRANCH   1   5
BRANCH   1  19
ATOM     19  C   UNL     1      45.143   4.540  12.019  0.00  0.00    +0.000 C 
BRANCH  19  20
ATOM     20  C   UNL     1      44.146   3.973  10.978  0.00  0.00    +0.000 C 
ATOM     21  C   UNL     1      43.394   2.778  11.610  0.00  0.00    +0.000 C 
ATOM     22  C   UNL     1      43.121   5.048  10.572  0.00  0.00    +0.000 C 
BRANCH  20  23
ATOM     23  C   UNL     1      44.942   3.518   9.740  0.00  0.00    +0.000 A 
ATOM     24  C   UNL     1      45.134   2.168   9.456  0.00  0.00    +0.000 A 
ATOM     25  C   UNL     1      45.889   1.796   8.345  0.00  0.00    +0.000 A 
ATOM     26  C   UNL     1      46.444   2.775   7.519  0.00  0.00    +0.000 A 
ATOM     27  C   UNL     1      46.188   4.092   7.852  0.00  0.00    +0.000 A 
ATOM     28  N   UNL     1      45.460   4.478   8.930  0.00  0.00    +0.000 NA
BRANCH  26  29
ATOM     29  C   UNL     1      47.267   2.361   6.360  0.00  0.00    +0.000 C 
ATOM     30  N   UNL     1      47.225   3.098   5.214  0.00  0.00    +0.000 N 
ATOM     31  O   UNL     1      47.993   1.369   6.421  0.00  0.00    +0.000 OA
ATOM     32  H   UNL     1      46.691   3.940   5.063  0.00  0.00    +0.000 HD
ATOM     33  H   UNL     1      47.821   2.787   4.454  0.00  0.00    +0.000 HD
ENDBRANCH  26  29
ENDBRANCH  20  23
ENDBRANCH  19  20
ENDBRANCH   1  19
TORSDOF 9
ENDMDL
MODEL 2
REMARK VINA RESULT:    -7.806      2.972      4.698
REMARK INTER + INTRA:         -13.169
REMARK INTER:                 -11.852
REMARK INTRA:                  -1.316
REMARK UNBOUND:                -1.255
REMARK  Name = 
REMARK  12 active torsions:
REMARK  status: ('A' for Active; 'I' for Inactive)
REMARK    1  A    between atoms: C_1  and  C_2
REMARK    2  A    between atoms: C_4  and  C_5
REMARK    3  A    between atoms: C_5  and  O_6
REMARK    4  A    between atoms: O_6  and  C_7
REMARK    5  A    between atoms: C_9  and  N_10
REMARK    6  A    between atoms: N_10  and  C_11
REMARK    7  A    between atoms: C_11  and  C_12
REMARK    8  A    between atoms: C_12  and  C_13
REMARK    9  A    between atoms: C_12  and  C_14
REMARK   10  A    between atoms: C_12  and  C_15
REMARK   11  A    between atoms: C_18  and  C_19
REMARK   12  A    between atoms: C_25  and  C_26
REMARK                            x       y       z     vdW  Elec       q    Type
REMARK                         _______ _______ _______ _____ _____    ______ ____
ROOT
ATOM      1  N   UNL     1      46.041   4.020  12.925  0.00  0.00    +0.000 N 
ATOM      2  H   UNL     1      46.624   3.470  12.301  0.00  0.00    +0.000 HD
ENDROOT
BRANCH   1   5
ATOM      3  C   UNL     1      48.114   6.236  15.106  0.00  0.00    +0.000 A 
ATOM      4  C   UNL     1      47.400   5.757  13.983  0.00  0.00    +0.000 A 
ATOM      5  C   UNL     1      46.792   4.480  14.021  0.00  0.00    +0.000 A 
ATOM      6  C   UNL     1      47.022   3.677  15.127  0.00  0.00    +0.000 A 
ATOM      7  C   UNL     1      47.789   4.106  16.217  0.00  0.00    +0.000 A 
ATOM      8  C   UNL     1      48.297   5.405  16.196  0.00  0.00    +0.000 A 
BRANCH   7   9
ATOM      9  C   UNL     1      48.093   3.164  17.341  0.00  0.00    +0.000 C 
ATOM     10  F   UNL     1      46.985   2.533  17.821  0.00  0.00    +0.000 F 
ATOM     11  F   UNL     1      48.956   2.181  16.976  0.00  0.00    +0.000 F 
ATOM     12  F   UNL     1      48.661   3.784  18.414  0.00  0.00    +0.000 F 
ENDBRANCH   7   9
BRANCH   3  13
ATOM     13  O   UNL     1      48.639   7.512  15.073  0.00  0.00    +0.000 OA
BRANCH  13  14
ATOM     14  C   UNL     1      48.054   8.360  14.059  0.00  0.00    +0.000 C 
BRANCH  14  18
ATOM     15  C   UNL     1      50.600   7.746  11.236  0.00  0.00    +0.000 C 
ATOM     16  C   UNL     1      49.230   8.075  11.727  0.00  0.00    +0.000 C 
ATOM     17  C   UNL     1      48.750   9.502  11.798  0.00  0.00    +0.000 C 
ATOM     18  C   UNL     1      49.098   8.774  13.071  0.00  0.00    +0.000 C 
ENDBRANCH  14  18
ENDBRANCH  13  14
ENDBRANCH   3  13
ENDBRANCH   1   5
BRANCH   1  19
ATOM     19  C   UNL     1      45.172   5.000  12.235  0.00  0.00    +0.000 C 
BRANCH  19  20
ATOM     20  C   UNL     1      44.110   4.336  11.325  0.00  0.00    +0.000 C 
ATOM     21  C   UNL     1      43.439   3.181  12.104  0.00  0.00    +0.000 C 
ATOM     22  C   UNL     1      43.031   5.358  10.921  0.00  0.00    +0.000 C 
BRANCH  20  23
ATOM     23  C   UNL     1      44.816   3.800  10.064  0.00  0.00    +0.000 A 
ATOM     24  C   UNL     1      44.876   2.435   9.791  0.00  0.00    +0.000 A 
ATOM     25  C   UNL     1      45.554   1.987   8.659  0.00  0.00    +0.000 A 
ATOM     26  C   UNL     1      46.164   2.903   7.802  0.00  0.00    +0.000 A 
ATOM     27  C   UNL     1      46.040   4.241   8.127  0.00  0.00    +0.000 A 
ATOM     28  N   UNL     1      45.390   4.702   9.225  0.00  0.00    +0.000 NA
BRANCH  26  29
ATOM     29  C   UNL     1      46.904   2.406   6.620  0.00  0.00    +0.000 C 
ATOM     30  N   UNL     1      47.159   3.257   5.585  0.00  0.00    +0.000 N 
ATOM     31  O   UNL     1      47.299   1.242   6.564  0.00  0.00    +0.000 OA
ATOM     32  H   UNL     1      46.908   4.232   5.536  0.00  0.00    +0.000 HD
ATOM     33  H   UNL     1      47.686   2.876   4.806  0.00  0.00    +0.000 HD
ENDBRANCH  26  29
ENDBRANCH  20  23
ENDBRANCH  19  20
ENDBRANCH   1  19
TORSDOF 9
ENDMDL
MODEL 3
REMARK VINA RESULT:    -7.748      1.211      1.637
REMARK INTER + INTRA:         -13.079
REMARK INTER:                 -11.708
REMARK INTRA:                  -1.372
REMARK UNBOUND:                -1.255
REMARK  Name = 
REMARK  12 active torsions:
REMARK  status: ('A' for Active; 'I' for Inactive)
REMARK    1  A    between atoms: C_1  and  C_2
REMARK    2  A    between atoms: C_4  and  C_5
REMARK    3  A    between atoms: C_5  and  O_6
REMARK    4  A    between atoms: O_6  and  C_7
REMARK    5  A    between atoms: C_9  and  N_10
REMARK    6  A    between atoms: N_10  and  C_11
REMARK    7  A    between atoms: C_11  and  C_12
REMARK    8  A    between atoms: C_12  and  C_13
REMARK    9  A    between atoms: C_12  and  C_14
REMARK   10  A    between atoms: C_12  and  C_15
REMARK   11  A    between atoms: C_18  and  C_19
REMARK   12  A    between atoms: C_25  and  C_26
REMARK                            x       y       z     vdW  Elec       q    Type
REMARK                         _______ _______ _______ _____ _____    ______ ____
ROOT
ATOM      1  N   UNL     1      45.661   5.898  11.774  0.00  0.00    +0.000 N 
ATOM      2  H   UNL     1      44.950   6.620  11.847  0.00  0.00    +0.000 HD
ENDROOT
BRANCH   1   5
ATOM      3  C   UNL     1      48.405   6.211  14.292  0.00  0.00    +0.000 A 
ATOM      4  C   UNL     1      47.185   5.829  13.686  0.00  0.00    +0.000 A 
ATOM      5  C   UNL     1      46.850   6.314  12.399  0.00  0.00    +0.000 A 
ATOM      6  C   UNL     1      47.682   7.256  11.817  0.00  0.00    +0.000 A 
ATOM      7  C   UNL     1      48.856   7.702  12.434  0.00  0.00    +0.000 A 
ATOM      8  C   UNL     1      49.212   7.139  13.659  0.00  0.00    +0.000 A 
BRANCH   7   9
ATOM      9  C   UNL     1      49.666   8.797  11.811  0.00  0.00    +0.000 C 
ATOM     10  F   UNL     1      50.316   9.566  12.729  0.00  0.00    +0.000 F 
ATOM     11  F   UNL     1      50.624   8.323  10.974  0.00  0.00    +0.000 F 
ATOM     12  F   UNL     1      48.913   9.660  11.071  0.00  0.00    +0.000 F 
ENDBRANCH   7   9
BRANCH   3  13
ATOM     13  O   UNL     1      48.744   5.672  15.516  0.00  0.00    +0.000 OA
BRANCH  13  14
ATOM     14  C   UNL     1      48.707   6.621  16.605  0.00  0.00    +0.000 C 
BRANCH  14  18
ATOM     15  C   UNL     1      47.835   6.401  20.349  0.00  0.00    +0.000 C 
ATOM     16  C   UNL     1      47.462   6.370  18.905  0.00  0.00    +0.000 C 
ATOM     17  C   UNL     1      47.288   5.064  18.174  0.00  0.00    +0.000 C 
ATOM     18  C   UNL     1      48.508   5.906  17.904  0.00  0.00    +0.000 C 
ENDBRANCH  14  18
ENDBRANCH  13  14
ENDBRANCH   3  13
ENDBRANCH   1   5
BRANCH   1  19
ATOM     19  C   UNL     1      45.173   4.534  12.077  0.00  0.00    +0.000 C 
BRANCH  19  20
ATOM     20  C   UNL     1      44.168   4.000  11.025  0.00  0.00    +0.000 C 
ATOM     21  C   UNL     1      43.390   2.813  11.639  0.00  0.00    +0.000 C 
ATOM     22  C   UNL     1      43.168   5.101  10.629  0.00  0.00    +0.000 C 
BRANCH  20  23
ATOM     23  C   UNL     1      44.960   3.545   9.784  0.00  0.00    +0.000 A 
ATOM     24  C   UNL     1      45.116   2.195   9.478  0.00  0.00    +0.000 A 
ATOM     25  C   UNL     1      45.868   1.822   8.365  0.00  0.00    +0.000 A 
ATOM     26  C   UNL     1      46.456   2.799   7.560  0.00  0.00    +0.000 A 
ATOM     27  C   UNL     1      46.235   4.117   7.915  0.00  0.00    +0.000 A 
ATOM     28  N   UNL     1      45.511   4.504   8.995  0.00  0.00    +0.000 NA
BRANCH  26  29
ATOM     29  C   UNL     1      47.275   2.382   6.399  0.00  0.00    +0.000 C 
ATOM     30  N   UNL     1      47.152   3.055   5.219  0.00  0.00    +0.000 N 
ATOM     31  O   UNL     1      48.069   1.447   6.488  0.00  0.00    +0.000 OA
ATOM     32  H   UNL     1      46.557   3.849   5.043  0.00  0.00    +0.000 HD
ATOM     33  H   UNL     1      47.748   2.746   4.459  0.00  0.00    +0.000 HD
ENDBRANCH  26  29
ENDBRANCH  20  23
ENDBRANCH  19  20
ENDBRANCH   1  19
TORSDOF 9
ENDMDL
MODEL 4
REMARK VINA RESULT:    -7.702      3.505      8.285
REMARK INTER + INTRA:         -13.010
REMARK INTER:                 -11.804
REMARK INTRA:                  -1.206
REMARK UNBOUND:                -1.255
REMARK  Name = 
REMARK  12 active torsions:
REMARK  status: ('A' for Active; 'I' for Inactive)
REMARK    1  A    between atoms: C_1  and  C_2
REMARK    2  A    between atoms: C_4  and  C_5
REMARK    3  A    between atoms: C_5  and  O_6
REMARK    4  A    between atoms: O_6  and  C_7
REMARK    5  A    between atoms: C_9  and  N_10
REMARK    6  A    between atoms: N_10  and  C_11
REMARK    7  A    between atoms: C_11  and  C_12
REMARK    8  A    between atoms: C_12  and  C_13
REMARK    9  A    between atoms: C_12  and  C_14
REMARK   10  A    between atoms: C_12  and  C_15
REMARK   11  A    between atoms: C_18  and  C_19
REMARK   12  A    between atoms: C_25  and  C_26
REMARK                            x       y       z     vdW  Elec       q    Type
REMARK                         _______ _______ _______ _____ _____    ______ ____
ROOT
ATOM      1  N   UNL     1      47.026   3.734  14.818  0.00  0.00    +0.000 N 
ATOM      2  H   UNL     1      46.399   3.089  15.289  0.00  0.00    +0.000 HD
ENDROOT
BRANCH   1   5
ATOM      3  C   UNL     1      45.227   3.993  11.552  0.00  0.00    +0.000 A 
ATOM      4  C   UNL     1      45.896   3.438  12.669  0.00  0.00    +0.000 A 
ATOM      5  C   UNL     1      46.403   4.284  13.684  0.00  0.00    +0.000 A 
ATOM      6  C   UNL     1      46.334   5.655  13.490  0.00  0.00    +0.000 A 
ATOM      7  C   UNL     1      45.741   6.222  12.356  0.00  0.00    +0.000 A 
ATOM      8  C   UNL     1      45.165   5.368  11.416  0.00  0.00    +0.000 A 
BRANCH   7   9
ATOM      9  C   UNL     1      45.784   7.704  12.145  0.00  0.00    +0.000 C 
ATOM     10  F   UNL     1      44.929   8.128  11.173  0.00  0.00    +0.000 F 
ATOM     11  F   UNL     1      45.452   8.398  13.264  0.00  0.00    +0.000 F 
ATOM     12  F   UNL     1      47.018   8.152  11.776  0.00  0.00    +0.000 F 
ENDBRANCH   7   9
BRANCH   3  13
ATOM     13  O   UNL     1      44.680   3.146  10.610  0.00  0.00    +0.000 OA
BRANCH  13  14
ATOM     14  C   UNL     1      44.420   3.778   9.336  0.00  0.00    +0.000 C 
BRANCH  14  18
ATOM     15  C   UNL     1      46.521   3.037   6.196  0.00  0.00    +0.000 C 
ATOM     16  C   UNL     1      46.331   3.079   7.675  0.00  0.00    +0.000 C 
ATOM     17  C   UNL     1      45.956   1.841   8.448  0.00  0.00    +0.000 C 
ATOM     18  C   UNL     1      44.923   2.914   8.223  0.00  0.00    +0.000 C 
ENDBRANCH  14  18
ENDBRANCH  13  14
ENDBRANCH   3  13
ENDBRANCH   1   5
BRANCH   1  19
ATOM     19  C   UNL     1      47.733   4.665  15.726  0.00  0.00    +0.000 C 
BRANCH  19  20
ATOM     20  C   UNL     1      47.873   4.117  17.168  0.00  0.00    +0.000 C 
ATOM     21  C   UNL     1      47.600   5.266  18.166  0.00  0.00    +0.000 C 
ATOM     22  C   UNL     1      46.856   2.988  17.417  0.00  0.00    +0.000 C 
BRANCH  20  23
ATOM     23  C   UNL     1      49.305   3.576  17.346  0.00  0.00    +0.000 A 
ATOM     24  C   UNL     1      49.607   2.235  17.118  0.00  0.00    +0.000 A 
ATOM     25  C   UNL     1      50.908   1.776  17.322  0.00  0.00    +0.000 A 
ATOM     26  C   UNL     1      51.901   2.659  17.748  0.00  0.00    +0.000 A 
ATOM     27  C   UNL     1      51.529   3.978  17.927  0.00  0.00    +0.000 A 
ATOM     28  N   UNL     1      50.270   4.448  17.739  0.00  0.00    +0.000 NA
BRANCH  26  29
ATOM     29  C   UNL     1      53.270   2.147  17.987  0.00  0.00    +0.000 C 
ATOM     30  N   UNL     1      54.341   2.916  17.639  0.00  0.00    +0.000 N 
ATOM     31  O   UNL     1      53.451   1.044  18.502  0.00  0.00    +0.000 OA
ATOM     32  H   UNL     1      54.308   3.841  17.238  0.00  0.00    +0.000 HD
ATOM     33  H   UNL     1      55.258   2.531  17.840  0.00  0.00    +0.000 HD
ENDBRANCH  26  29
ENDBRANCH  20  23
ENDBRANCH  19  20
ENDBRANCH   1  19
TORSDOF 9
ENDMDL
MODEL 5
REMARK VINA RESULT:    -7.555      3.796      8.395
REMARK INTER + INTRA:         -12.785
REMARK INTER:                 -11.308
REMARK INTRA:                  -1.477
REMARK UNBOUND:                -1.255
REMARK  Name = 
REMARK  12 active torsions:
REMARK  status: ('A' for Active; 'I' for Inactive)
REMARK    1  A    between atoms: C_1  and  C_2
REMARK    2  A    between atoms: C_4  and  C_5
REMARK    3  A    between atoms: C_5  and  O_6
REMARK    4  A    between atoms: O_6  and  C_7
REMARK    5  A    between atoms: C_9  and  N_10
REMARK    6  A    between atoms: N_10  and  C_11
REMARK    7  A    between atoms: C_11  and  C_12
REMARK    8  A    between atoms: C_12  and  C_13
REMARK    9  A    between atoms: C_12  and  C_14
REMARK   10  A    between atoms: C_12  and  C_15
REMARK   11  A    between atoms: C_18  and  C_19
REMARK   12  A    between atoms: C_25  and  C_26
REMARK                            x       y       z     vdW  Elec       q    Type
REMARK                         _______ _______ _______ _____ _____    ______ ____
ROOT
ATOM      1  N   UNL     1      46.958   7.592  12.895  0.00  0.00    +0.000 N 
ATOM      2  H   UNL     1      46.756   8.562  12.670  0.00  0.00    +0.000 HD
ENDROOT
BRANCH   1   5
ATOM      3  C   UNL     1      45.807   5.631   9.929  0.00  0.00    +0.000 A 
ATOM      4  C   UNL     1      46.547   6.534  10.728  0.00  0.00    +0.000 A 
ATOM      5  C   UNL     1      46.196   6.732  12.084  0.00  0.00    +0.000 A 
ATOM      6  C   UNL     1      45.049   6.118  12.561  0.00  0.00    +0.000 A 
ATOM      7  C   UNL     1      44.262   5.279  11.763  0.00  0.00    +0.000 A 
ATOM      8  C   UNL     1      44.682   5.026  10.458  0.00  0.00    +0.000 A 
BRANCH   7   9
ATOM      9  C   UNL     1      42.976   4.723  12.294  0.00  0.00    +0.000 C 
ATOM     10  F   UNL     1      42.665   3.506  11.765  0.00  0.00    +0.000 F 
ATOM     11  F   UNL     1      43.002   4.551  13.641  0.00  0.00    +0.000 F 
ATOM     12  F   UNL     1      41.905   5.525  12.037  0.00  0.00    +0.000 F 
ENDBRANCH   7   9
BRANCH   3  13
ATOM     13  O   UNL     1      46.210   5.401   8.629  0.00  0.00    +0.000 OA
BRANCH  13  14
ATOM     14  C   UNL     1      45.676   4.186   8.056  0.00  0.00    +0.000 C 
BRANCH  14  18
ATOM     15  C   UNL     1      48.314   1.658   6.843  0.00  0.00    +0.000 C 
ATOM     16  C   UNL     1      46.904   2.120   6.997  0.00  0.00    +0.000 C 
ATOM     17  C   UNL     1      46.188   2.821   5.871  0.00  0.00    +0.000 C 
ATOM     18  C   UNL     1      46.643   3.616   7.068  0.00  0.00    +0.000 C 
ENDBRANCH  14  18
ENDBRANCH  13  14
ENDBRANCH   3  13
ENDBRANCH   1   5
BRANCH   1  19
ATOM     19  C   UNL     1      48.400   7.291  13.040  0.00  0.00    +0.000 C 
BRANCH  19  20
ATOM     20  C   UNL     1      48.956   7.642  14.442  0.00  0.00    +0.000 C 
ATOM     21  C   UNL     1      50.492   7.789  14.346  0.00  0.00    +0.000 C 
ATOM     22  C   UNL     1      48.359   8.970  14.942  0.00  0.00    +0.000 C 
BRANCH  20  23
ATOM     23  C   UNL     1      48.581   6.505  15.413  0.00  0.00    +0.000 A 
ATOM     24  C   UNL     1      48.980   6.529  16.747  0.00  0.00    +0.000 A 
ATOM     25  C   UNL     1      48.649   5.465  17.585  0.00  0.00    +0.000 A 
ATOM     26  C   UNL     1      47.918   4.386  17.088  0.00  0.00    +0.000 A 
ATOM     27  C   UNL     1      47.538   4.447  15.761  0.00  0.00    +0.000 A 
ATOM     28  N   UNL     1      47.850   5.469  14.924  0.00  0.00    +0.000 NA
BRANCH  26  29
ATOM     29  C   UNL     1      47.602   3.252  17.987  0.00  0.00    +0.000 C 
ATOM     30  N   UNL     1      48.289   3.115  19.157  0.00  0.00    +0.000 N 
ATOM     31  O   UNL     1      46.723   2.441  17.696  0.00  0.00    +0.000 OA
ATOM     32  H   UNL     1      49.005   3.733  19.506  0.00  0.00    +0.000 HD
ATOM     33  H   UNL     1      48.023   2.335  19.748  0.00  0.00    +0.000 HD
ENDBRANCH  26  29
ENDBRANCH  20  23
ENDBRANCH  19  20
ENDBRANCH   1  19
TORSDOF 9
ENDMDL
MODEL 6
REMARK VINA RESULT:    -7.349      3.479      8.027
REMARK INTER + INTRA:         -12.471
REMARK INTER:                 -11.281
REMARK INTRA:                  -1.189
REMARK UNBOUND:                -1.255
REMARK  Name = 
REMARK  12 active torsions:
REMARK  status: ('A' for Active; 'I' for Inactive)
REMARK    1  A    between atoms: C_1  and  C_2
REMARK    2  A    between atoms: C_4  and  C_5
REMARK    3  A    between atoms: C_5  and  O_6
REMARK    4  A    between atoms: O_6  and  C_7
REMARK    5  A    between atoms: C_9  and  N_10
REMARK    6  A    between atoms: N_10  and  C_11
REMARK    7  A    between atoms: C_11  and  C_12
REMARK    8  A    between atoms: C_12  and  C_13
REMARK    9  A    between atoms: C_12  and  C_14
REMARK   10  A    between atoms: C_12  and  C_15
REMARK   11  A    between atoms: C_18  and  C_19
REMARK   12  A    between atoms: C_25  and  C_26
REMARK                            x       y       z     vdW  Elec       q    Type
REMARK                         _______ _______ _______ _____ _____    ______ ____
ROOT
ATOM      1  N   UNL     1      46.865   4.332  15.262  0.00  0.00    +0.000 N 
ATOM      2  H   UNL     1      46.001   4.183  15.776  0.00  0.00    +0.000 HD
ENDROOT
BRANCH   1   5
ATOM      3  C   UNL     1      45.316   5.271  11.993  0.00  0.00    +0.000 A 
ATOM      4  C   UNL     1      45.604   4.553  13.179  0.00  0.00    +0.000 A 
ATOM      5  C   UNL     1      46.610   5.015  14.060  0.00  0.00    +0.000 A 
ATOM      6  C   UNL     1      47.374   6.103  13.670  0.00  0.00    +0.000 A 
ATOM      7  C   UNL     1      47.153   6.781  12.466  0.00  0.00    +0.000 A 
ATOM      8  C   UNL     1      46.094   6.364  11.659  0.00  0.00    +0.000 A 
BRANCH   7   9
ATOM      9  C   UNL     1      48.073   7.884  12.042  0.00  0.00    +0.000 C 
ATOM     10  F   UNL     1      48.844   7.551  10.969  0.00  0.00    +0.000 F 
ATOM     11  F   UNL     1      47.403   9.011  11.688  0.00  0.00    +0.000 F 
ATOM     12  F   UNL     1      48.943   8.256  13.023  0.00  0.00    +0.000 F 
ENDBRANCH   7   9
BRANCH   3  13
ATOM     13  O   UNL     1      44.284   4.842  11.184  0.00  0.00    +0.000 OA
BRANCH  13  14
ATOM     14  C   UNL     1      44.387   3.455  10.789  0.00  0.00    +0.000 C 
BRANCH  14  18
ATOM     15  C   UNL     1      46.322   1.492   8.100  0.00  0.00    +0.000 C 
ATOM     16  C   UNL     1      45.107   2.203   8.595  0.00  0.00    +0.000 C 
ATOM     17  C   UNL     1      44.829   3.632   8.206  0.00  0.00    +0.000 C 
ATOM     18  C   UNL     1      45.293   3.323   9.606  0.00  0.00    +0.000 C 
ENDBRANCH  14  18
ENDBRANCH  13  14
ENDBRANCH   3  13
ENDBRANCH   1   5
BRANCH   1  19
ATOM     19  C   UNL     1      47.990   4.814  16.095  0.00  0.00    +0.000 C 
BRANCH  19  20
ATOM     20  C   UNL     1      48.130   4.045  17.432  0.00  0.00    +0.000 C 
ATOM     21  C   UNL     1      47.873   5.025  18.600  0.00  0.00    +0.000 C 
ATOM     22  C   UNL     1      47.102   2.901  17.506  0.00  0.00    +0.000 C 
BRANCH  20  23
ATOM     23  C   UNL     1      49.557   3.468  17.513  0.00  0.00    +0.000 A 
ATOM     24  C   UNL     1      49.835   2.161  17.117  0.00  0.00    +0.000 A 
ATOM     25  C   UNL     1      51.132   1.665  17.238  0.00  0.00    +0.000 A 
ATOM     26  C   UNL     1      52.146   2.476  17.748  0.00  0.00    +0.000 A 
ATOM     27  C   UNL     1      51.796   3.768  18.096  0.00  0.00    +0.000 A 
ATOM     28  N   UNL     1      50.541   4.273  17.992  0.00  0.00    +0.000 NA
BRANCH  26  29
ATOM     29  C   UNL     1      53.510   1.921  17.896  0.00  0.00    +0.000 C 
ATOM     30  N   UNL     1      53.711   0.851  18.717  0.00  0.00    +0.000 N 
ATOM     31  O   UNL     1      54.460   2.406  17.282  0.00  0.00    +0.000 OA
ATOM     32  H   UNL     1      53.005   0.360  19.243  0.00  0.00    +0.000 HD
ATOM     33  H   UNL     1      54.659   0.494  18.770  0.00  0.00    +0.000 HD
ENDBRANCH  26  29
ENDBRANCH  20  23
ENDBRANCH  19  20
ENDBRANCH   1  19
TORSDOF 9
ENDMDL
MODEL 7
REMARK VINA RESULT:    -7.106      4.058      7.378
REMARK INTER + INTRA:         -12.100
REMARK INTER:                  -9.760
REMARK INTRA:                  -2.340
REMARK UNBOUND:                -1.255
REMARK  Name = 
REMARK  12 active torsions:
REMARK  status: ('A' for Active; 'I' for Inactive)
REMARK    1  A    between atoms: C_1  and  C_2
REMARK    2  A    between atoms: C_4  and  C_5
REMARK    3  A    between atoms: C_5  and  O_6
REMARK    4  A    between atoms: O_6  and  C_7
REMARK    5  A    between atoms: C_9  and  N_10
REMARK    6  A    between atoms: N_10  and  C_11
REMARK    7  A    between atoms: C_11  and  C_12
REMARK    8  A    between atoms: C_12  and  C_13
REMARK    9  A    between atoms: C_12  and  C_14
REMARK   10  A    between atoms: C_12  and  C_15
REMARK   11  A    between atoms: C_18  and  C_19
REMARK   12  A    between atoms: C_25  and  C_26
REMARK                            x       y       z     vdW  Elec       q    Type
REMARK                         _______ _______ _______ _____ _____    ______ ____
ROOT
ATOM      1  N   UNL     1      47.270   7.723  11.883  0.00  0.00    +0.000 N 
ATOM      2  H   UNL     1      46.733   8.246  11.196  0.00  0.00    +0.000 HD
ENDROOT
BRANCH   1   5
ATOM      3  C   UNL     1      46.555   4.395  13.424  0.00  0.00    +0.000 A 
ATOM      4  C   UNL     1      47.218   5.601  13.098  0.00  0.00    +0.000 A 
ATOM      5  C   UNL     1      46.637   6.502  12.173  0.00  0.00    +0.000 A 
ATOM      6  C   UNL     1      45.481   6.112  11.516  0.00  0.00    +0.000 A 
ATOM      7  C   UNL     1      44.851   4.889  11.772  0.00  0.00    +0.000 A 
ATOM      8  C   UNL     1      45.391   4.061  12.756  0.00  0.00    +0.000 A 
BRANCH   7   9
ATOM      9  C   UNL     1      43.663   4.470  10.962  0.00  0.00    +0.000 C 
ATOM     10  F   UNL     1      42.683   5.416  10.926  0.00  0.00    +0.000 F 
ATOM     11  F   UNL     1      43.982   4.212   9.667  0.00  0.00    +0.000 F 
ATOM     12  F   UNL     1      43.069   3.338  11.436  0.00  0.00    +0.000 F 
ENDBRANCH   7   9
BRANCH   3  13
ATOM     13  O   UNL     1      47.104   3.565  14.380  0.00  0.00    +0.000 OA
BRANCH  13  14
ATOM     14  C   UNL     1      47.296   4.198  15.665  0.00  0.00    +0.000 C 
BRANCH  14  18
ATOM     15  C   UNL     1      50.255   2.377  17.325  0.00  0.00    +0.000 C 
ATOM     16  C   UNL     1      49.285   3.507  17.237  0.00  0.00    +0.000 C 
ATOM     17  C   UNL     1      48.046   3.539  18.094  0.00  0.00    +0.000 C 
ATOM     18  C   UNL     1      47.920   3.234  16.624  0.00  0.00    +0.000 C 
ENDBRANCH  14  18
ENDBRANCH  13  14
ENDBRANCH   3  13
ENDBRANCH   1   5
BRANCH   1  19
ATOM     19  C   UNL     1      48.726   7.691  11.618  0.00  0.00    +0.000 C 
BRANCH  19  20
ATOM     20  C   UNL     1      49.524   8.698  12.483  0.00  0.00    +0.000 C 
ATOM     21  C   UNL     1      51.015   8.625  12.083  0.00  0.00    +0.000 C 
ATOM     22  C   UNL     1      49.014  10.132  12.248  0.00  0.00    +0.000 C 
BRANCH  20  23
ATOM     23  C   UNL     1      49.341   8.318  13.965  0.00  0.00    +0.000 A 
ATOM     24  C   UNL     1      50.125   7.333  14.563  0.00  0.00    +0.000 A 
ATOM     25  C   UNL     1      49.906   6.993  15.897  0.00  0.00    +0.000 A 
ATOM     26  C   UNL     1      48.910   7.641  16.629  0.00  0.00    +0.000 A 
ATOM     27  C   UNL     1      48.192   8.623  15.972  0.00  0.00    +0.000 A 
ATOM     28  N   UNL     1      48.383   8.969  14.674  0.00  0.00    +0.000 NA
BRANCH  26  29
ATOM     29  C   UNL     1      48.673   7.246  18.036  0.00  0.00    +0.000 C 
ATOM     30  N   UNL     1      47.400   7.246  18.525  0.00  0.00    +0.000 N 
ATOM     31  O   UNL     1      49.607   6.909  18.764  0.00  0.00    +0.000 OA
ATOM     32  H   UNL     1      46.563   7.475  18.012  0.00  0.00    +0.000 HD
ATOM     33  H   UNL     1      47.286   6.948  19.488  0.00  0.00    +0.000 HD
ENDBRANCH  26  29
ENDBRANCH  20  23
ENDBRANCH  19  20
ENDBRANCH   1  19
TORSDOF 9
ENDMDL
MODEL 8
REMARK VINA RESULT:    -6.791      4.307      8.226
REMARK INTER + INTRA:         -11.619
REMARK INTER:                 -10.272
REMARK INTRA:                  -1.347
REMARK UNBOUND:                -1.255
REMARK  Name = 
REMARK  12 active torsions:
REMARK  status: ('A' for Active; 'I' for Inactive)
REMARK    1  A    between atoms: C_1  and  C_2
REMARK    2  A    between atoms: C_4  and  C_5
REMARK    3  A    between atoms: C_5  and  O_6
REMARK    4  A    between atoms: O_6  and  C_7
REMARK    5  A    between atoms: C_9  and  N_10
REMARK    6  A    between atoms: N_10  and  C_11
REMARK    7  A    between atoms: C_11  and  C_12
REMARK    8  A    between atoms: C_12  and  C_13
REMARK    9  A    between atoms: C_12  and  C_14
REMARK   10  A    between atoms: C_12  and  C_15
REMARK   11  A    between atoms: C_18  and  C_19
REMARK   12  A    between atoms: C_25  and  C_26
REMARK                            x       y       z     vdW  Elec       q    Type
REMARK                         _______ _______ _______ _____ _____    ______ ____
ROOT
ATOM      1  N   UNL     1      46.784   4.384  15.026  0.00  0.00    +0.000 N 
ATOM      2  H   UNL     1      45.997   4.242  15.653  0.00  0.00    +0.000 HD
ENDROOT
BRANCH   1   5
ATOM      3  C   UNL     1      46.061   6.603  12.106  0.00  0.00    +0.000 A 
ATOM      4  C   UNL     1      46.469   6.178  13.393  0.00  0.00    +0.000 A 
ATOM      5  C   UNL     1      46.335   4.819  13.767  0.00  0.00    +0.000 A 
ATOM      6  C   UNL     1      45.688   3.960  12.893  0.00  0.00    +0.000 A 
ATOM      7  C   UNL     1      45.211   4.379  11.646  0.00  0.00    +0.000 A 
ATOM      8  C   UNL     1      45.441   5.701  11.262  0.00  0.00    +0.000 A 
BRANCH   7   9
ATOM      9  C   UNL     1      44.428   3.438  10.783  0.00  0.00    +0.000 C 
ATOM     10  F   UNL     1      43.715   4.075   9.812  0.00  0.00    +0.000 F 
ATOM     11  F   UNL     1      45.221   2.542  10.140  0.00  0.00    +0.000 F 
ATOM     12  F   UNL     1      43.522   2.702  11.487  0.00  0.00    +0.000 F 
ENDBRANCH   7   9
BRANCH   3  13
ATOM     13  O   UNL     1      46.266   7.917  11.738  0.00  0.00    +0.000 OA
BRANCH  13  14
ATOM     14  C   UNL     1      47.224   8.615  12.565  0.00  0.00    +0.000 C 
BRANCH  14  18
ATOM     15  C   UNL     1      50.855   9.826  12.150  0.00  0.00    +0.000 C 
ATOM     16  C   UNL     1      49.845   8.786  12.500  0.00  0.00    +0.000 C 
ATOM     17  C   UNL     1      49.457   7.714  11.515  0.00  0.00    +0.000 C 
ATOM     18  C   UNL     1      48.494   8.835  11.805  0.00  0.00    +0.000 C 
ENDBRANCH  14  18
ENDBRANCH  13  14
ENDBRANCH   3  13
ENDBRANCH   1   5
BRANCH   1  19
ATOM     19  C   UNL     1      47.919   5.114  15.635  0.00  0.00    +0.000 C 
BRANCH  19  20
ATOM     20  C   UNL     1      48.135   4.765  17.128  0.00  0.00    +0.000 C 
ATOM     21  C   UNL     1      48.366   6.075  17.917  0.00  0.00    +0.000 C 
ATOM     22  C   UNL     1      46.896   4.051  17.700  0.00  0.00    +0.000 C 
BRANCH  20  23
ATOM     23  C   UNL     1      49.365   3.842  17.239  0.00  0.00    +0.000 A 
ATOM     24  C   UNL     1      49.280   2.482  16.947  0.00  0.00    +0.000 A 
ATOM     25  C   UNL     1      50.406   1.674  17.093  0.00  0.00    +0.000 A 
ATOM     26  C   UNL     1      51.612   2.228  17.523  0.00  0.00    +0.000 A 
ATOM     27  C   UNL     1      51.623   3.588  17.769  0.00  0.00    +0.000 A 
ATOM     28  N   UNL     1      50.540   4.395  17.639  0.00  0.00    +0.000 NA
BRANCH  26  29
ATOM     29  C   UNL     1      52.790   1.348  17.699  0.00  0.00    +0.000 C 
ATOM     30  N   UNL     1      52.608   0.065  18.126  0.00  0.00    +0.000 N 
ATOM     31  O   UNL     1      53.926   1.755  17.457  0.00  0.00    +0.000 OA
ATOM     32  H   UNL     1      51.725  -0.379  18.326  0.00  0.00    +0.000 HD
ATOM     33  H   UNL     1      53.442  -0.505  18.212  0.00  0.00    +0.000 HD
ENDBRANCH  26  29
ENDBRANCH  20  23
ENDBRANCH  19  20
ENDBRANCH   1  19
TORSDOF 9
ENDMDL
MODEL 9
REMARK VINA RESULT:    -6.075      3.899      5.629
REMARK INTER + INTRA:         -10.527
REMARK INTER:                  -9.124
REMARK INTRA:                  -1.404
REMARK UNBOUND:                -1.255
REMARK  Name = 
REMARK  12 active torsions:
REMARK  status: ('A' for Active; 'I' for Inactive)
REMARK    1  A    between atoms: C_1  and  C_2
REMARK    2  A    between atoms: C_4  and  C_5
REMARK    3  A    between atoms: C_5  and  O_6
REMARK    4  A    between atoms: O_6  and  C_7
REMARK    5  A    between atoms: C_9  and  N_10
REMARK    6  A    between atoms: N_10  and  C_11
REMARK    7  A    between atoms: C_11  and  C_12
REMARK    8  A    between atoms: C_12  and  C_13
REMARK    9  A    between atoms: C_12  and  C_14
REMARK   10  A    between atoms: C_12  and  C_15
REMARK   11  A    between atoms: C_18  and  C_19
REMARK   12  A    between atoms: C_25  and  C_26
REMARK                            x       y       z     vdW  Elec       q    Type
REMARK                         _______ _______ _______ _____ _____    ______ ____
ROOT
ATOM      1  N   UNL     1      48.932   6.987  14.672  0.00  0.00    +0.000 N 
ATOM      2  H   UNL     1      49.869   7.023  14.279  0.00  0.00    +0.000 HD
ENDROOT
BRANCH   1   5
ATOM      3  C   UNL     1      49.473   5.492  18.055  0.00  0.00    +0.000 A 
ATOM      4  C   UNL     1      49.367   5.613  16.649  0.00  0.00    +0.000 A 
ATOM      5  C   UNL     1      48.993   6.849  16.071  0.00  0.00    +0.000 A 
ATOM      6  C   UNL     1      48.620   7.882  16.916  0.00  0.00    +0.000 A 
ATOM      7  C   UNL     1      48.648   7.757  18.309  0.00  0.00    +0.000 A 
ATOM      8  C   UNL     1      49.111   6.560  18.855  0.00  0.00    +0.000 A 
BRANCH   7   9
ATOM      9  C   UNL     1      48.137   8.867  19.176  0.00  0.00    +0.000 C 
ATOM     10  F   UNL     1      48.517  10.100  18.740  0.00  0.00    +0.000 F 
ATOM     11  F   UNL     1      46.781   8.893  19.240  0.00  0.00    +0.000 F 
ATOM     12  F   UNL     1      48.573   8.778  20.465  0.00  0.00    +0.000 F 
ENDBRANCH   7   9
BRANCH   3  13
ATOM     13  O   UNL     1      49.907   4.298  18.594  0.00  0.00    +0.000 OA
BRANCH  13  14
ATOM     14  C   UNL     1      51.337   4.103  18.511  0.00  0.00    +0.000 C 
BRANCH  14  18
ATOM     15  C   UNL     1      52.928   0.782  17.384  0.00  0.00    +0.000 C 
ATOM     16  C   UNL     1      51.803   1.577  17.959  0.00  0.00    +0.000 C 
ATOM     17  C   UNL     1      50.632   1.997  17.108  0.00  0.00    +0.000 C 
ATOM     18  C   UNL     1      51.652   3.026  17.522  0.00  0.00    +0.000 C 
ENDBRANCH  14  18
ENDBRANCH  13  14
ENDBRANCH   3  13
ENDBRANCH   1   5
BRANCH   1  19
ATOM     19  C   UNL     1      48.006   8.005  14.127  0.00  0.00    +0.000 C 
BRANCH  19  20
ATOM     20  C   UNL     1      47.785   7.869  12.600  0.00  0.00    +0.000 C 
ATOM     21  C   UNL     1      47.215   9.201  12.060  0.00  0.00    +0.000 C 
ATOM     22  C   UNL     1      49.117   7.571  11.887  0.00  0.00    +0.000 C 
BRANCH  20  23
ATOM     23  C   UNL     1      46.793   6.716  12.353  0.00  0.00    +0.000 A 
ATOM     24  C   UNL     1      46.295   6.448  11.080  0.00  0.00    +0.000 A 
ATOM     25  C   UNL     1      45.373   5.417  10.902  0.00  0.00    +0.000 A 
ATOM     26  C   UNL     1      44.957   4.657  11.996  0.00  0.00    +0.000 A 
ATOM     27  C   UNL     1      45.515   4.967  13.222  0.00  0.00    +0.000 A 
ATOM     28  N   UNL     1      46.411   5.967  13.420  0.00  0.00    +0.000 NA
BRANCH  26  29
ATOM     29  C   UNL     1      43.955   3.585  11.792  0.00  0.00    +0.000 C 
ATOM     30  N   UNL     1      43.895   2.550  12.677  0.00  0.00    +0.000 N 
ATOM     31  O   UNL     1      43.174   3.623  10.843  0.00  0.00    +0.000 OA
ATOM     32  H   UNL     1      44.465   2.434  13.501  0.00  0.00    +0.000 HD
ATOM     33  H   UNL     1      43.180   1.851  12.508  0.00  0.00    +0.000 HD
ENDBRANCH  26  29
ENDBRANCH  20  23
ENDBRANCH  19  20
ENDBRANCH   1  19
TORSDOF 9
ENDMDL
