MODEL 1
REMARK VINA RESULT:    -9.270      0.000      0.000
REMARK INTER + INTRA:         -12.351
REMARK INTER:                 -11.438
REMARK INTRA:                  -0.913
REMARK UNBOUND:                -0.913
REMARK  Name = 
REMARK  4 active torsions:
REMARK  status: ('A' for Active; 'I' for Inactive)
REMARK    1  A    between atoms: C_2  and  C_4
REMARK    2  A    between atoms: N_8  and  C_9
REMARK    3  A    between atoms: C_9  and  C_10
REMARK    4  A    between atoms: C_14  and  C_15
REMARK                            x       y       z     vdW  Elec       q    Type
REMARK                         _______ _______ _______ _____ _____    ______ ____
ROOT
ATOM      1  C   UNL     1      43.417   4.843  11.044  0.00  0.00    +0.000 C 
ENDROOT
BRANCH   1   6
ATOM      2  C   UNL     1      46.366   2.286   7.719  0.00  0.00    +0.000 A 
ATOM      3  C   UNL     1      45.620   1.805   8.787  0.00  0.00    +0.000 A 
ATOM      4  C   UNL     1      44.766   2.675   9.465  0.00  0.00    +0.000 A 
ATOM      5  C   UNL     1      44.683   4.009   9.085  0.00  0.00    +0.000 A 
ATOM      6  N   UNL     1      43.810   4.908   9.653  0.00  0.00    +0.000 N 
ATOM      7  N   UNL     1      45.410   4.487   8.055  0.00  0.00    +0.000 NA
ATOM      8  C   UNL     1      46.240   3.630   7.402  0.00  0.00    +0.000 A 
ATOM      9  H   UNL     1      44.002   5.833   9.282  0.00  0.00    +0.000 HD
BRANCH   2  11
ATOM     10  N   UNL     1      48.372   2.042   6.376  0.00  0.00    +0.000 N 
ATOM     11  C   UNL     1      47.275   1.431   6.932  0.00  0.00    +0.000 C 
ATOM     12  O   UNL     1      47.084   0.232   6.802  0.00  0.00    +0.000 OA
ATOM     13  H   UNL     1      49.037   1.432   5.914  0.00  0.00    +0.000 HD
ATOM     14  H   UNL     1      48.698   2.950   6.670  0.00  0.00    +0.000 HD
ENDBRANCH   2  11
ENDBRANCH   1   6
BRANCH   1  15
ATOM     15  C   UNL     1      44.529   5.192  12.004  0.00  0.00    +0.000 A 
ATOM     16  C   UNL     1      44.955   4.287  12.982  0.00  0.00    +0.000 A 
ATOM     17  C   UNL     1      46.085   4.564  13.748  0.00  0.00    +0.000 A 
ATOM     18  C   UNL     1      46.816   5.736  13.528  0.00  0.00    +0.000 A 
ATOM     19  C   UNL     1      46.435   6.660  12.540  0.00  0.00    +0.000 A 
ATOM     20  C   UNL     1      45.257   6.381  11.819  0.00  0.00    +0.000 A 
BRANCH  19  21
ATOM     21  C   UNL     1      47.294   7.809  12.163  0.00  0.00    +0.000 A 
ATOM     22  C   UNL     1      46.800   9.129  12.221  0.00  0.00    +0.000 A 
ATOM     23  C   UNL     1      47.631  10.238  12.014  0.00  0.00    +0.000 A 
ATOM     24  C   UNL     1      48.981  10.050  11.747  0.00  0.00    +0.000 A 
ATOM     25  C   UNL     1      49.480   8.758  11.657  0.00  0.00    +0.000 A 
ATOM     26  F   UNL     1      50.784   8.571  11.415  0.00  0.00    +0.000 F 
ATOM     27  C   UNL     1      48.655   7.650  11.845  0.00  0.00    +0.000 A 
ENDBRANCH  19  21
ENDBRANCH   1  15
TORSDOF 4
ENDMDL
MODEL 2
REMARK VINA RESULT:    -8.326      2.423      3.613
REMARK INTER + INTRA:         -11.185
REMARK INTER:                 -10.374
REMARK INTRA:                  -0.811
REMARK UNBOUND:                -0.913
REMARK  Name = 
REMARK  4 active torsions:
REMARK  status: ('A' for Active; 'I' for Inactive)
REMARK    1  A    between atoms: C_2  and  C_4
REMARK    2  A    between atoms: N_8  and  C_9
REMARK    3  A    between atoms: C_9  and  C_10
REMARK    4  A    between atoms: C_14  and  C_15
REMARK                            x       y       z     vdW  Elec       q    Type
REMARK                         _______ _______ _______ _____ _____    ______ ____
ROOT
ATOM      1  C   UNL     1      43.966   5.382  10.985  0.00  0.00    +0.000 C 
ENDROOT
BRANCH   1   6
ATOM      2  C   UNL     1      46.334   2.035   7.906  0.00  0.00    +0.000 A 
ATOM      3  C   UNL     1      45.636   1.808   9.086  0.00  0.00    +0.000 A 
ATOM      4  C   UNL     1      44.939   2.862   9.676  0.00  0.00    +0.000 A 
ATOM      5  C   UNL     1      44.965   4.125   9.098  0.00  0.00    +0.000 A 
ATOM      6  N   UNL     1      44.243   5.194   9.577  0.00  0.00    +0.000 N 
ATOM      7  N   UNL     1      45.647   4.357   7.959  0.00  0.00    +0.000 NA
ATOM      8  C   UNL     1      46.323   3.322   7.393  0.00  0.00    +0.000 A 
ATOM      9  H   UNL     1      44.499   6.025   9.053  0.00  0.00    +0.000 HD
BRANCH   2  11
ATOM     10  N   UNL     1      46.779  -0.323   7.547  0.00  0.00    +0.000 N 
ATOM     11  C   UNL     1      47.078   0.972   7.203  0.00  0.00    +0.000 C 
ATOM     12  O   UNL     1      47.900   1.224   6.336  0.00  0.00    +0.000 OA
ATOM     13  H   UNL     1      47.229  -1.047   6.998  0.00  0.00    +0.000 HD
ATOM     14  H   UNL     1      45.944  -0.574   8.055  0.00  0.00    +0.000 HD
ENDBRANCH   2  11
ENDBRANCH   1   6
BRANCH   1  15
ATOM     15  C   UNL     1      44.976   6.257  11.688  0.00  0.00    +0.000 A 
ATOM     16  C   UNL     1      44.940   7.650  11.566  0.00  0.00    +0.000 A 
ATOM     17  C   UNL     1      45.776   8.444  12.347  0.00  0.00    +0.000 A 
ATOM     18  C   UNL     1      46.639   7.856  13.277  0.00  0.00    +0.000 A 
ATOM     19  C   UNL     1      46.689   6.462  13.448  0.00  0.00    +0.000 A 
ATOM     20  C   UNL     1      45.873   5.682  12.605  0.00  0.00    +0.000 A 
BRANCH  19  21
ATOM     21  C   UNL     1      47.453   5.830  14.552  0.00  0.00    +0.000 A 
ATOM     22  C   UNL     1      48.500   6.523  15.194  0.00  0.00    +0.000 A 
ATOM     23  C   UNL     1      49.137   6.010  16.331  0.00  0.00    +0.000 A 
ATOM     24  C   UNL     1      48.735   4.788  16.856  0.00  0.00    +0.000 A 
ATOM     25  C   UNL     1      47.726   4.078  16.221  0.00  0.00    +0.000 A 
ATOM     26  F   UNL     1      47.324   2.906  16.732  0.00  0.00    +0.000 F 
ATOM     27  C   UNL     1      47.100   4.575  15.079  0.00  0.00    +0.000 A 
ENDBRANCH  19  21
ENDBRANCH   1  15
TORSDOF 4
ENDMDL
MODEL 3
REMARK VINA RESULT:    -8.031      5.127      8.026
REMARK INTER + INTRA:         -10.822
REMARK INTER:                 -10.277
REMARK INTRA:                  -0.546
REMARK UNBOUND:                -0.913
REMARK  Name = 
REMARK  4 active torsions:
REMARK  status: ('A' for Active; 'I' for Inactive)
REMARK    1  A    between atoms: C_2  and  C_4
REMARK    2  A    between atoms: N_8  and  C_9
REMARK    3  A    between atoms: C_9  and  C_10
REMARK    4  A    between atoms: C_14  and  C_15
REMARK                            x       y       z     vdW  Elec       q    Type
REMARK                         _______ _______ _______ _____ _____    ______ ____
ROOT
ATOM      1  C   UNL     1      46.101   5.249  13.835  0.00  0.00    +0.000 C 
ENDROOT
BRANCH   1   6
ATOM      2  C   UNL     1      49.523   4.024  17.451  0.00  0.00    +0.000 A 
ATOM      3  C   UNL     1      49.091   5.276  17.034  0.00  0.00    +0.000 A 
ATOM      4  C   UNL     1      48.030   5.362  16.132  0.00  0.00    +0.000 A 
ATOM      5  C   UNL     1      47.433   4.206  15.645  0.00  0.00    +0.000 A 
ATOM      6  N   UNL     1      46.336   4.210  14.815  0.00  0.00    +0.000 N 
ATOM      7  N   UNL     1      47.852   2.986  16.037  0.00  0.00    +0.000 NA
ATOM      8  C   UNL     1      48.887   2.915  16.917  0.00  0.00    +0.000 A 
ATOM      9  H   UNL     1      46.145   3.259  14.518  0.00  0.00    +0.000 HD
BRANCH   2  11
ATOM     10  N   UNL     1      50.394   4.276  19.702  0.00  0.00    +0.000 N 
ATOM     11  C   UNL     1      50.622   3.842  18.420  0.00  0.00    +0.000 C 
ATOM     12  O   UNL     1      51.674   3.305  18.110  0.00  0.00    +0.000 OA
ATOM     13  H   UNL     1      51.118   4.066  20.380  0.00  0.00    +0.000 HD
ATOM     14  H   UNL     1      49.470   4.478  20.053  0.00  0.00    +0.000 HD
ENDBRANCH   2  11
ENDBRANCH   1   6
BRANCH   1  15
ATOM     15  C   UNL     1      45.101   4.861  12.772  0.00  0.00    +0.000 A 
ATOM     16  C   UNL     1      43.788   5.343  12.800  0.00  0.00    +0.000 A 
ATOM     17  C   UNL     1      42.932   5.105  11.728  0.00  0.00    +0.000 A 
ATOM     18  C   UNL     1      43.385   4.405  10.605  0.00  0.00    +0.000 A 
ATOM     19  C   UNL     1      44.703   3.924  10.527  0.00  0.00    +0.000 A 
ATOM     20  C   UNL     1      45.530   4.131  11.649  0.00  0.00    +0.000 A 
BRANCH  19  21
ATOM     21  C   UNL     1      45.259   3.347   9.279  0.00  0.00    +0.000 A 
ATOM     22  C   UNL     1      45.707   4.183   8.235  0.00  0.00    +0.000 A 
ATOM     23  C   UNL     1      46.369   3.670   7.112  0.00  0.00    +0.000 A 
ATOM     24  C   UNL     1      46.603   2.305   7.010  0.00  0.00    +0.000 A 
ATOM     25  C   UNL     1      46.145   1.463   8.014  0.00  0.00    +0.000 A 
ATOM     26  F   UNL     1      46.381   0.148   7.928  0.00  0.00    +0.000 F 
ATOM     27  C   UNL     1      45.470   1.965   9.126  0.00  0.00    +0.000 A 
ENDBRANCH  19  21
ENDBRANCH   1  15
TORSDOF 4
ENDMDL
MODEL 4
REMARK VINA RESULT:    -7.984      2.694      3.543
REMARK INTER + INTRA:         -10.764
REMARK INTER:                 -10.181
REMARK INTRA:                  -0.583
REMARK UNBOUND:                -0.913
REMARK  Name = 
REMARK  4 active torsions:
REMARK  status: ('A' for Active; 'I' for Inactive)
REMARK    1  A    between atoms: C_2  and  C_4
REMARK    2  A    between atoms: N_8  and  C_9
REMARK    3  A    between atoms: C_9  and  C_10
REMARK    4  A    between atoms: C_14  and  C_15
REMARK                            x       y       z     vdW  Elec       q    Type
REMARK                         _______ _______ _______ _____ _____    ______ ____
ROOT
ATOM      1  C   UNL     1      43.621   3.605  11.060  0.00  0.00    +0.000 C 
ENDROOT
BRANCH   1   6
ATOM      2  C   UNL     1      46.770   2.485   7.173  0.00  0.00    +0.000 A 
ATOM      3  C   UNL     1      46.476   3.717   7.743  0.00  0.00    +0.000 A 
ATOM      4  C   UNL     1      45.700   3.761   8.901  0.00  0.00    +0.000 A 
ATOM      5  C   UNL     1      45.213   2.585   9.459  0.00  0.00    +0.000 A 
ATOM      6  N   UNL     1      44.507   2.541  10.639  0.00  0.00    +0.000 N 
ATOM      7  N   UNL     1      45.485   1.386   8.907  0.00  0.00    +0.000 NA
ATOM      8  C   UNL     1      46.242   1.355   7.778  0.00  0.00    +0.000 A 
ATOM      9  H   UNL     1      44.176   1.593  10.789  0.00  0.00    +0.000 HD
BRANCH   2  11
ATOM     10  N   UNL     1      47.399   3.264   4.962  0.00  0.00    +0.000 N 
ATOM     11  C   UNL     1      47.603   2.345   5.962  0.00  0.00    +0.000 C 
ATOM     12  O   UNL     1      48.453   1.474   5.859  0.00  0.00    +0.000 OA
ATOM     13  H   UNL     1      48.035   3.215   4.174  0.00  0.00    +0.000 HD
ATOM     14  H   UNL     1      46.906   4.131   5.111  0.00  0.00    +0.000 HD
ENDBRANCH   2  11
ENDBRANCH   1   6
BRANCH   1  15
ATOM     15  C   UNL     1      44.345   4.841  11.537  0.00  0.00    +0.000 A 
ATOM     16  C   UNL     1      43.874   6.122  11.231  0.00  0.00    +0.000 A 
ATOM     17  C   UNL     1      44.462   7.243  11.811  0.00  0.00    +0.000 A 
ATOM     18  C   UNL     1      45.512   7.095  12.724  0.00  0.00    +0.000 A 
ATOM     19  C   UNL     1      46.000   5.825  13.077  0.00  0.00    +0.000 A 
ATOM     20  C   UNL     1      45.423   4.713  12.431  0.00  0.00    +0.000 A 
BRANCH  19  21
ATOM     21  C   UNL     1      46.977   5.633  14.176  0.00  0.00    +0.000 A 
ATOM     22  C   UNL     1      47.948   6.616  14.457  0.00  0.00    +0.000 A 
ATOM     23  C   UNL     1      48.785   6.529  15.577  0.00  0.00    +0.000 A 
ATOM     24  C   UNL     1      48.663   5.453  16.448  0.00  0.00    +0.000 A 
ATOM     25  C   UNL     1      47.734   4.460  16.172  0.00  0.00    +0.000 A 
ATOM     26  F   UNL     1      47.603   3.428  17.016  0.00  0.00    +0.000 F 
ATOM     27  C   UNL     1      46.910   4.533  15.049  0.00  0.00    +0.000 A 
ENDBRANCH  19  21
ENDBRANCH   1  15
TORSDOF 4
ENDMDL
MODEL 5
REMARK VINA RESULT:    -7.905      2.693      3.224
REMARK INTER + INTRA:         -10.667
REMARK INTER:                  -9.877
REMARK INTRA:                  -0.790
REMARK UNBOUND:                -0.913
REMARK  Name = 
REMARK  4 active torsions:
REMARK  status: ('A' for Active; 'I' for Inactive)
REMARK    1  A    between atoms: C_2  and  C_4
REMARK    2  A    between atoms: N_8  and  C_9
REMARK    3  A    between atoms: C_9  and  C_10
REMARK    4  A    between atoms: C_14  and  C_15
REMARK                            x       y       z     vdW  Elec       q    Type
REMARK                         _______ _______ _______ _____ _____    ______ ____
ROOT
ATOM      1  C   UNL     1      43.519   4.036  11.137  0.00  0.00    +0.000 C 
ENDROOT
BRANCH   1   6
ATOM      2  C   UNL     1      46.614   2.561   7.325  0.00  0.00    +0.000 A 
ATOM      3  C   UNL     1      46.363   3.837   7.814  0.00  0.00    +0.000 A 
ATOM      4  C   UNL     1      45.593   3.982   8.968  0.00  0.00    +0.000 A 
ATOM      5  C   UNL     1      45.070   2.862   9.603  0.00  0.00    +0.000 A 
ATOM      6  N   UNL     1      44.368   2.918  10.785  0.00  0.00    +0.000 N 
ATOM      7  N   UNL     1      45.301   1.621   9.130  0.00  0.00    +0.000 NA
ATOM      8  C   UNL     1      46.052   1.492   8.004  0.00  0.00    +0.000 A 
ATOM      9  H   UNL     1      44.007   1.994  10.997  0.00  0.00    +0.000 HD
BRANCH   2  11
ATOM     10  N   UNL     1      47.240   3.156   5.057  0.00  0.00    +0.000 N 
ATOM     11  C   UNL     1      47.437   2.316   6.125  0.00  0.00    +0.000 C 
ATOM     12  O   UNL     1      48.274   1.427   6.086  0.00  0.00    +0.000 OA
ATOM     13  H   UNL     1      47.870   3.037   4.272  0.00  0.00    +0.000 HD
ATOM     14  H   UNL     1      46.760   4.040   5.140  0.00  0.00    +0.000 HD
ENDBRANCH   2  11
ENDBRANCH   1   6
BRANCH   1  15
ATOM     15  C   UNL     1      44.250   5.151  11.845  0.00  0.00    +0.000 A 
ATOM     16  C   UNL     1      45.320   4.885  12.707  0.00  0.00    +0.000 A 
ATOM     17  C   UNL     1      46.081   5.931  13.222  0.00  0.00    +0.000 A 
ATOM     18  C   UNL     1      45.798   7.253  12.862  0.00  0.00    +0.000 A 
ATOM     19  C   UNL     1      44.747   7.561  11.981  0.00  0.00    +0.000 A 
ATOM     20  C   UNL     1      43.960   6.488  11.520  0.00  0.00    +0.000 A 
BRANCH  19  21
ATOM     21  C   UNL     1      44.547   8.928  11.440  0.00  0.00    +0.000 A 
ATOM     22  C   UNL     1      45.471   9.956  11.718  0.00  0.00    +0.000 A 
ATOM     23  C   UNL     1      45.387  11.211  11.102  0.00  0.00    +0.000 A 
ATOM     24  C   UNL     1      44.374  11.465  10.186  0.00  0.00    +0.000 A 
ATOM     25  C   UNL     1      43.438  10.475   9.921  0.00  0.00    +0.000 A 
ATOM     26  F   UNL     1      42.468  10.709   9.027  0.00  0.00    +0.000 F 
ATOM     27  C   UNL     1      43.506   9.230  10.544  0.00  0.00    +0.000 A 
ENDBRANCH  19  21
ENDBRANCH   1  15
TORSDOF 4
ENDMDL
MODEL 6
REMARK VINA RESULT:    -7.655      4.120      7.079
REMARK INTER + INTRA:         -10.358
REMARK INTER:                  -9.579
REMARK INTRA:                  -0.779
REMARK UNBOUND:                -0.913
REMARK  Name = 
REMARK  4 active torsions:
REMARK  status: ('A' for Active; 'I' for Inactive)
REMARK    1  A    between atoms: C_2  and  C_4
REMARK    2  A    between atoms: N_8  and  C_9
REMARK    3  A    between atoms: C_9  and  C_10
REMARK    4  A    between atoms: C_14  and  C_15
REMARK                            x       y       z     vdW  Elec       q    Type
REMARK                         _______ _______ _______ _____ _____    ______ ____
ROOT
ATOM      1  C   UNL     1      45.089   7.326  12.358  0.00  0.00    +0.000 C 
ENDROOT
BRANCH   1   6
ATOM      2  C   UNL     1      50.133   8.238  12.480  0.00  0.00    +0.000 A 
ATOM      3  C   UNL     1      49.152   8.810  11.680  0.00  0.00    +0.000 A 
ATOM      4  C   UNL     1      47.812   8.514  11.932  0.00  0.00    +0.000 A 
ATOM      5  C   UNL     1      47.472   7.640  12.957  0.00  0.00    +0.000 A 
ATOM      6  N   UNL     1      46.174   7.358  13.315  0.00  0.00    +0.000 N 
ATOM      7  N   UNL     1      48.418   7.072  13.733  0.00  0.00    +0.000 NA
ATOM      8  C   UNL     1      49.720   7.369  13.478  0.00  0.00    +0.000 A 
ATOM      9  H   UNL     1      46.178   6.625  14.017  0.00  0.00    +0.000 HD
BRANCH   2  11
ATOM     10  N   UNL     1      52.419   8.035  13.266  0.00  0.00    +0.000 N 
ATOM     11  C   UNL     1      51.571   8.515  12.299  0.00  0.00    +0.000 C 
ATOM     12  O   UNL     1      51.996   9.116  11.325  0.00  0.00    +0.000 OA
ATOM     13  H   UNL     1      53.411   8.151  13.088  0.00  0.00    +0.000 HD
ATOM     14  H   UNL     1      52.144   7.327  13.930  0.00  0.00    +0.000 HD
ENDBRANCH   2  11
ENDBRANCH   1   6
BRANCH   1  15
ATOM     15  C   UNL     1      44.634   5.929  12.007  0.00  0.00    +0.000 A 
ATOM     16  C   UNL     1      43.483   5.375  12.577  0.00  0.00    +0.000 A 
ATOM     17  C   UNL     1      42.993   4.154  12.122  0.00  0.00    +0.000 A 
ATOM     18  C   UNL     1      43.634   3.484  11.074  0.00  0.00    +0.000 A 
ATOM     19  C   UNL     1      44.780   4.016  10.459  0.00  0.00    +0.000 A 
ATOM     20  C   UNL     1      45.285   5.225  10.978  0.00  0.00    +0.000 A 
BRANCH  19  21
ATOM     21  C   UNL     1      45.364   3.422   9.231  0.00  0.00    +0.000 A 
ATOM     22  C   UNL     1      45.883   4.243   8.209  0.00  0.00    +0.000 A 
ATOM     23  C   UNL     1      46.570   3.710   7.111  0.00  0.00    +0.000 A 
ATOM     24  C   UNL     1      46.758   2.337   7.014  0.00  0.00    +0.000 A 
ATOM     25  C   UNL     1      46.229   1.510   7.996  0.00  0.00    +0.000 A 
ATOM     26  F   UNL     1      46.420   0.187   7.914  0.00  0.00    +0.000 F 
ATOM     27  C   UNL     1      45.529   2.034   9.082  0.00  0.00    +0.000 A 
ENDBRANCH  19  21
ENDBRANCH   1  15
TORSDOF 4
ENDMDL
MODEL 7
REMARK VINA RESULT:    -7.573      4.122      7.236
REMARK INTER + INTRA:         -10.256
REMARK INTER:                  -9.741
REMARK INTRA:                  -0.515
REMARK UNBOUND:                -0.913
REMARK  Name = 
REMARK  4 active torsions:
REMARK  status: ('A' for Active; 'I' for Inactive)
REMARK    1  A    between atoms: C_2  and  C_4
REMARK    2  A    between atoms: N_8  and  C_9
REMARK    3  A    between atoms: C_9  and  C_10
REMARK    4  A    between atoms: C_14  and  C_15
REMARK                            x       y       z     vdW  Elec       q    Type
REMARK                         _______ _______ _______ _____ _____    ______ ____
ROOT
ATOM      1  C   UNL     1      44.405   6.792  11.372  0.00  0.00    +0.000 C 
ENDROOT
BRANCH   1   6
ATOM      2  C   UNL     1      48.312   6.608  14.686  0.00  0.00    +0.000 A 
ATOM      3  C   UNL     1      47.362   5.639  14.388  0.00  0.00    +0.000 A 
ATOM      4  C   UNL     1      46.478   5.858  13.331  0.00  0.00    +0.000 A 
ATOM      5  C   UNL     1      46.538   7.042  12.606  0.00  0.00    +0.000 A 
ATOM      6  N   UNL     1      45.753   7.298  11.505  0.00  0.00    +0.000 N 
ATOM      7  N   UNL     1      47.450   7.992  12.895  0.00  0.00    +0.000 NA
ATOM      8  C   UNL     1      48.306   7.767  13.927  0.00  0.00    +0.000 A 
ATOM      9  H   UNL     1      45.906   8.256  11.208  0.00  0.00    +0.000 HD
BRANCH   2  11
ATOM     10  N   UNL     1      49.058   5.453  16.686  0.00  0.00    +0.000 N 
ATOM     11  C   UNL     1      49.300   6.448  15.771  0.00  0.00    +0.000 C 
ATOM     12  O   UNL     1      50.301   7.144  15.841  0.00  0.00    +0.000 OA
ATOM     13  H   UNL     1      49.785   5.292  17.374  0.00  0.00    +0.000 HD
ATOM     14  H   UNL     1      48.400   4.707  16.519  0.00  0.00    +0.000 HD
ENDBRANCH   2  11
ENDBRANCH   1   6
BRANCH   1  15
ATOM     15  C   UNL     1      44.338   5.297  11.167  0.00  0.00    +0.000 A 
ATOM     16  C   UNL     1      43.404   4.511  11.852  0.00  0.00    +0.000 A 
ATOM     17  C   UNL     1      43.252   3.165  11.530  0.00  0.00    +0.000 A 
ATOM     18  C   UNL     1      44.012   2.595  10.504  0.00  0.00    +0.000 A 
ATOM     19  C   UNL     1      44.944   3.354   9.776  0.00  0.00    +0.000 A 
ATOM     20  C   UNL     1      45.117   4.699  10.161  0.00  0.00    +0.000 A 
BRANCH  19  21
ATOM     21  C   UNL     1      45.622   2.824   8.568  0.00  0.00    +0.000 A 
ATOM     22  C   UNL     1      46.074   3.693   7.554  0.00  0.00    +0.000 A 
ATOM     23  C   UNL     1      46.844   3.235   6.478  0.00  0.00    +0.000 A 
ATOM     24  C   UNL     1      47.185   1.891   6.395  0.00  0.00    +0.000 A 
ATOM     25  C   UNL     1      46.725   1.015   7.368  0.00  0.00    +0.000 A 
ATOM     26  F   UNL     1      47.064  -0.280   7.301  0.00  0.00    +0.000 F 
ATOM     27  C   UNL     1      45.944   1.462   8.432  0.00  0.00    +0.000 A 
ENDBRANCH  19  21
ENDBRANCH   1  15
TORSDOF 4
ENDMDL
MODEL 8
REMARK VINA RESULT:    -6.665      5.582      8.240
REMARK INTER + INTRA:          -9.137
REMARK INTER:                  -8.583
REMARK INTRA:                  -0.554
REMARK UNBOUND:                -0.913
REMARK  Name = 
REMARK  4 active torsions:
REMARK  status: ('A' for Active; 'I' for Inactive)
REMARK    1  A    between atoms: C_2  and  C_4
REMARK    2  A    between atoms: N_8  and  C_9
REMARK    3  A    between atoms: C_9  and  C_10
REMARK    4  A    between atoms: C_14  and  C_15
REMARK                            x       y       z     vdW  Elec       q    Type
REMARK                         _______ _______ _______ _____ _____    ______ ____
ROOT
ATOM      1  C   UNL     1      48.085   7.166  14.160  0.00  0.00    +0.000 C 
ENDROOT
BRANCH   1   6
ATOM      2  C   UNL     1      50.882   4.770  17.726  0.00  0.00    +0.000 A 
ATOM      3  C   UNL     1      51.120   5.977  17.083  0.00  0.00    +0.000 A 
ATOM      4  C   UNL     1      50.134   6.511  16.253  0.00  0.00    +0.000 A 
ATOM      5  C   UNL     1      48.940   5.826  16.060  0.00  0.00    +0.000 A 
ATOM      6  N   UNL     1      47.892   6.323  15.319  0.00  0.00    +0.000 N 
ATOM      7  N   UNL     1      48.704   4.649  16.673  0.00  0.00    +0.000 NA
ATOM      8  C   UNL     1      49.672   4.139  17.479  0.00  0.00    +0.000 A 
ATOM      9  H   UNL     1      47.176   5.608  15.242  0.00  0.00    +0.000 HD
BRANCH   2  11
ATOM     10  N   UNL     1      52.069   2.797  18.492  0.00  0.00    +0.000 N 
ATOM     11  C   UNL     1      51.859   4.146  18.639  0.00  0.00    +0.000 C 
ATOM     12  O   UNL     1      52.477   4.797  19.468  0.00  0.00    +0.000 OA
ATOM     13  H   UNL     1      52.805   2.394  19.061  0.00  0.00    +0.000 HD
ATOM     14  H   UNL     1      51.783   2.287  17.670  0.00  0.00    +0.000 HD
ENDBRANCH   2  11
ENDBRANCH   1   6
BRANCH   1  15
ATOM     15  C   UNL     1      46.879   7.232  13.253  0.00  0.00    +0.000 A 
ATOM     16  C   UNL     1      46.235   8.445  12.986  0.00  0.00    +0.000 A 
ATOM     17  C   UNL     1      45.230   8.508  12.025  0.00  0.00    +0.000 A 
ATOM     18  C   UNL     1      44.873   7.365  11.302  0.00  0.00    +0.000 A 
ATOM     19  C   UNL     1      45.511   6.132  11.522  0.00  0.00    +0.000 A 
ATOM     20  C   UNL     1      46.485   6.086  12.539  0.00  0.00    +0.000 A 
BRANCH  19  21
ATOM     21  C   UNL     1      45.283   4.959  10.643  0.00  0.00    +0.000 A 
ATOM     22  C   UNL     1      44.552   3.845  11.103  0.00  0.00    +0.000 A 
ATOM     23  C   UNL     1      44.197   2.792  10.249  0.00  0.00    +0.000 A 
ATOM     24  C   UNL     1      44.564   2.834   8.910  0.00  0.00    +0.000 A 
ATOM     25  C   UNL     1      45.310   3.909   8.446  0.00  0.00    +0.000 A 
ATOM     26  F   UNL     1      45.653   3.961   7.153  0.00  0.00    +0.000 F 
ATOM     27  C   UNL     1      45.680   4.951   9.294  0.00  0.00    +0.000 A 
ENDBRANCH  19  21
ENDBRANCH   1  15
TORSDOF 4
ENDMDL
MODEL 9
REMARK VINA RESULT:    -6.562      5.759      8.622
REMARK INTER + INTRA:          -9.009
REMARK INTER:                  -8.232
REMARK INTRA:                  -0.777
REMARK UNBOUND:                -0.913
REMARK  Name = 
REMARK  4 active torsions:
REMARK  status: ('A' for Active; 'I' for Inactive)
REMARK    1  A    between atoms: C_2  and  C_4
REMARK    2  A    between atoms: N_8  and  C_9
REMARK    3  A    between atoms: C_9  and  C_10
REMARK    4  A    between atoms: C_14  and  C_15
REMARK                            x       y       z     vdW  Elec       q    Type
REMARK                         _______ _______ _______ _____ _____    ______ ____
ROOT
ATOM      1  C   UNL     1      49.028   7.016  13.816  0.00  0.00    +0.000 C 
ENDROOT
BRANCH   1   6
ATOM      2  C   UNL     1      48.347   5.833  18.758  0.00  0.00    +0.000 A 
ATOM      3  C   UNL     1      48.649   5.003  17.686  0.00  0.00    +0.000 A 
ATOM      4  C   UNL     1      48.942   5.574  16.447  0.00  0.00    +0.000 A 
ATOM      5  C   UNL     1      48.907   6.954  16.290  0.00  0.00    +0.000 A 
ATOM      6  N   UNL     1      49.257   7.594  15.123  0.00  0.00    +0.000 N 
ATOM      7  N   UNL     1      48.605   7.767  17.322  0.00  0.00    +0.000 NA
ATOM      8  C   UNL     1      48.322   7.199  18.525  0.00  0.00    +0.000 A 
ATOM      9  H   UNL     1      49.058   8.585  15.219  0.00  0.00    +0.000 HD
BRANCH   2  11
ATOM     10  N   UNL     1      48.530   4.066  20.411  0.00  0.00    +0.000 N 
ATOM     11  C   UNL     1      48.048   5.315  20.107  0.00  0.00    +0.000 C 
ATOM     12  O   UNL     1      47.428   5.972  20.929  0.00  0.00    +0.000 OA
ATOM     13  H   UNL     1      48.398   3.756  21.367  0.00  0.00    +0.000 HD
ATOM     14  H   UNL     1      49.250   3.612  19.868  0.00  0.00    +0.000 HD
ENDBRANCH   2  11
ENDBRANCH   1   6
BRANCH   1  15
ATOM     15  C   UNL     1      47.617   7.203  13.311  0.00  0.00    +0.000 A 
ATOM     16  C   UNL     1      46.971   8.441  13.401  0.00  0.00    +0.000 A 
ATOM     17  C   UNL     1      45.737   8.633  12.787  0.00  0.00    +0.000 A 
ATOM     18  C   UNL     1      45.145   7.599  12.055  0.00  0.00    +0.000 A 
ATOM     19  C   UNL     1      45.771   6.348  11.920  0.00  0.00    +0.000 A 
ATOM     20  C   UNL     1      46.992   6.165  12.598  0.00  0.00    +0.000 A 
BRANCH  19  21
ATOM     21  C   UNL     1      45.257   5.305  10.998  0.00  0.00    +0.000 A 
ATOM     22  C   UNL     1      45.643   5.286   9.642  0.00  0.00    +0.000 A 
ATOM     23  C   UNL     1      45.292   4.232   8.789  0.00  0.00    +0.000 A 
ATOM     24  C   UNL     1      44.548   3.166   9.278  0.00  0.00    +0.000 A 
ATOM     25  C   UNL     1      44.134   3.180  10.603  0.00  0.00    +0.000 A 
ATOM     26  F   UNL     1      43.429   2.147  11.083  0.00  0.00    +0.000 F 
ATOM     27  C   UNL     1      44.465   4.235  11.452  0.00  0.00    +0.000 A 
ENDBRANCH  19  21
ENDBRANCH   1  15
TORSDOF 4
ENDMDL
