MODEL 1
REMARK VINA RESULT:    -7.829      0.000      0.000
REMARK INTER + INTRA:         -10.220
REMARK INTER:                  -9.889
REMARK INTRA:                  -0.331
REMARK UNBOUND:                -0.331
REMARK  Name = 
REMARK  5 active torsions:
REMARK  status: ('A' for Active; 'I' for Inactive)
REMARK    1  A    between atoms: C_2  and  C_4
REMARK    2  A    between atoms: C_7  and  C_8
REMARK    3  A    between atoms: C_8  and  C_9
REMARK    4  A    between atoms: C_9  and  N_10
REMARK    5  A    between atoms: C_13  and  O_14
REMARK                            x       y       z     vdW  Elec       q    Type
REMARK                         _______ _______ _______ _____ _____    ______ ____
ROOT
ATOM      1  C   UNL     1      43.940   4.771  10.378  0.00  0.00    +0.000 C 
ENDROOT
BRANCH   1   5
ATOM      2  C   UNL     1      46.307   2.343   7.899  0.00  0.00    +0.000 A 
ATOM      3  N   UNL     1      46.370   3.680   7.683  0.00  0.00    +0.000 NA
ATOM      4  C   UNL     1      45.562   4.433   8.458  0.00  0.00    +0.000 A 
ATOM      5  C   UNL     1      44.718   3.917   9.424  0.00  0.00    +0.000 A 
ATOM      6  C   UNL     1      44.728   2.538   9.530  0.00  0.00    +0.000 A 
ATOM      7  N   UNL     1      45.503   1.728   8.785  0.00  0.00    +0.000 NA
BRANCH   2   9
ATOM      8  N   UNL     1      48.368   2.139   6.594  0.00  0.00    +0.000 N 
ATOM      9  C   UNL     1      47.278   1.482   7.121  0.00  0.00    +0.000 C 
ATOM     10  O   UNL     1      47.150   0.274   6.964  0.00  0.00    +0.000 OA
ATOM     11  H   UNL     1      49.070   1.604   6.105  0.00  0.00    +0.000 HD
ATOM     12  H   UNL     1      48.489   3.132   6.753  0.00  0.00    +0.000 HD
ENDBRANCH   2   9
ENDBRANCH   1   5
BRANCH   1  13
ATOM     13  C   UNL     1      44.217   4.502  11.855  0.00  0.00    +0.000 C 
ATOM     14  C   UNL     1      43.645   3.235  12.466  0.00  0.00    +0.000 C 
ATOM     15  C   UNL     1      42.989   4.544  12.756  0.00  0.00    +0.000 C 
BRANCH  13  16
ATOM     16  N   UNL     1      45.405   5.109  12.492  0.00  0.00    +0.000 NA
ATOM     17  C   UNL     1      46.069   6.194  11.777  0.00  0.00    +0.000 C 
ATOM     18  C   UNL     1      46.793   7.087  12.783  0.00  0.00    +0.000 C 
ATOM     19  C   UNL     1      47.748   6.289  13.668  0.00  0.00    +0.000 C 
ATOM     20  C   UNL     1      47.081   5.044  14.255  0.00  0.00    +0.000 C 
ATOM     21  C   UNL     1      46.330   4.229  13.196  0.00  0.00    +0.000 C 
BRANCH  19  22
ATOM     22  O   UNL     1      48.916   5.926  12.932  0.00  0.00    +0.000 OA
ATOM     23  H   UNL     1      49.005   4.958  12.940  0.00  0.00    +0.000 HD
ENDBRANCH  19  22
ENDBRANCH  13  16
ENDBRANCH   1  13
TORSDOF 5
ENDMDL
MODEL 2
REMARK VINA RESULT:    -7.153      1.212      1.667
REMARK INTER + INTRA:          -9.366
REMARK INTER:                  -9.445
REMARK INTRA:                   0.079
REMARK UNBOUND:                -0.331
REMARK  Name = 
REMARK  5 active torsions:
REMARK  status: ('A' for Active; 'I' for Inactive)
REMARK    1  A    between atoms: C_2  and  C_4
REMARK    2  A    between atoms: C_7  and  C_8
REMARK    3  A    between atoms: C_8  and  C_9
REMARK    4  A    between atoms: C_9  and  N_10
REMARK    5  A    between atoms: C_13  and  O_14
REMARK                            x       y       z     vdW  Elec       q    Type
REMARK                         _______ _______ _______ _____ _____    ______ ____
ROOT
ATOM      1  C   UNL     1      43.782   4.353  10.324  0.00  0.00    +0.000 C 
ENDROOT
BRANCH   1   5
ATOM      2  C   UNL     1      46.503   2.755   7.552  0.00  0.00    +0.000 A 
ATOM      3  N   UNL     1      46.393   4.106   7.589  0.00  0.00    +0.000 NA
ATOM      4  C   UNL     1      45.476   4.591   8.452  0.00  0.00    +0.000 A 
ATOM      5  C   UNL     1      44.687   3.800   9.265  0.00  0.00    +0.000 A 
ATOM      6  C   UNL     1      44.877   2.438   9.116  0.00  0.00    +0.000 A 
ATOM      7  N   UNL     1      45.768   1.888   8.270  0.00  0.00    +0.000 NA
BRANCH   2   9
ATOM      8  N   UNL     1      47.979   2.976   5.611  0.00  0.00    +0.000 N 
ATOM      9  C   UNL     1      47.596   2.187   6.673  0.00  0.00    +0.000 C 
ATOM     10  O   UNL     1      48.145   1.110   6.872  0.00  0.00    +0.000 OA
ATOM     11  H   UNL     1      48.736   2.664   5.021  0.00  0.00    +0.000 HD
ATOM     12  H   UNL     1      47.548   3.880   5.468  0.00  0.00    +0.000 HD
ENDBRANCH   2   9
ENDBRANCH   1   5
BRANCH   1  13
ATOM     13  C   UNL     1      44.429   4.532  11.695  0.00  0.00    +0.000 C 
ATOM     14  C   UNL     1      44.709   3.285  12.516  0.00  0.00    +0.000 C 
ATOM     15  C   UNL     1      43.545   4.149  12.876  0.00  0.00    +0.000 C 
BRANCH  13  16
ATOM     16  N   UNL     1      45.238   5.741  11.964  0.00  0.00    +0.000 NA
ATOM     17  C   UNL     1      46.521   5.553  12.633  0.00  0.00    +0.000 C 
ATOM     18  C   UNL     1      47.452   6.705  12.259  0.00  0.00    +0.000 C 
ATOM     19  C   UNL     1      46.823   8.065  12.553  0.00  0.00    +0.000 C 
ATOM     20  C   UNL     1      45.399   8.168  12.006  0.00  0.00    +0.000 C 
ATOM     21  C   UNL     1      44.541   6.953  12.377  0.00  0.00    +0.000 C 
BRANCH  19  22
ATOM     22  O   UNL     1      46.836   8.321  13.956  0.00  0.00    +0.000 OA
ATOM     23  H   UNL     1      46.045   8.835  14.191  0.00  0.00    +0.000 HD
ENDBRANCH  19  22
ENDBRANCH  13  16
ENDBRANCH   1  13
TORSDOF 5
ENDMDL
MODEL 3
REMARK VINA RESULT:    -5.950      2.207      6.070
REMARK INTER + INTRA:          -7.846
REMARK INTER:                  -7.586
REMARK INTRA:                  -0.260
REMARK UNBOUND:                -0.331
REMARK  Name = 
REMARK  5 active torsions:
REMARK  status: ('A' for Active; 'I' for Inactive)
REMARK    1  A    between atoms: C_2  and  C_4
REMARK    2  A    between atoms: C_7  and  C_8
REMARK    3  A    between atoms: C_8  and  C_9
REMARK    4  A    between atoms: C_9  and  N_10
REMARK    5  A    between atoms: C_13  and  O_14
REMARK                            x       y       z     vdW  Elec       q    Type
REMARK                         _______ _______ _______ _____ _____    ______ ____
ROOT
ATOM      1  C   UNL     1      44.880   4.752  12.886  0.00  0.00    +0.000 C 
ENDROOT
BRANCH   1   5
ATOM      2  C   UNL     1      48.518   6.802  13.337  0.00  0.00    +0.000 A 
ATOM      3  N   UNL     1      47.773   7.114  12.247  0.00  0.00    +0.000 NA
ATOM      4  C   UNL     1      46.635   6.405  12.099  0.00  0.00    +0.000 A 
ATOM      5  C   UNL     1      46.215   5.425  12.979  0.00  0.00    +0.000 A 
ATOM      6  C   UNL     1      47.074   5.185  14.037  0.00  0.00    +0.000 A 
ATOM      7  N   UNL     1      48.227   5.849  14.240  0.00  0.00    +0.000 NA
BRANCH   2   9
ATOM      8  N   UNL     1      50.714   7.604  12.611  0.00  0.00    +0.000 N 
ATOM      9  C   UNL     1      49.745   7.653  13.587  0.00  0.00    +0.000 C 
ATOM     10  O   UNL     1      49.894   8.368  14.570  0.00  0.00    +0.000 OA
ATOM     11  H   UNL     1      51.532   8.187  12.707  0.00  0.00    +0.000 HD
ATOM     12  H   UNL     1      50.574   7.038  11.783  0.00  0.00    +0.000 HD
ENDBRANCH   2   9
ENDBRANCH   1   5
BRANCH   1  13
ATOM     13  C   UNL     1      44.137   4.976  11.571  0.00  0.00    +0.000 C 
ATOM     14  C   UNL     1      43.500   6.335  11.337  0.00  0.00    +0.000 C 
ATOM     15  C   UNL     1      42.633   5.178  11.711  0.00  0.00    +0.000 C 
BRANCH  13  16
ATOM     16  N   UNL     1      44.489   4.158  10.390  0.00  0.00    +0.000 NA
ATOM     17  C   UNL     1      44.803   2.751  10.619  0.00  0.00    +0.000 C 
ATOM     18  C   UNL     1      44.504   1.959   9.348  0.00  0.00    +0.000 C 
ATOM     19  C   UNL     1      45.226   2.538   8.133  0.00  0.00    +0.000 C 
ATOM     20  C   UNL     1      45.039   4.052   8.023  0.00  0.00    +0.000 C 
ATOM     21  C   UNL     1      45.305   4.771   9.350  0.00  0.00    +0.000 C 
BRANCH  19  22
ATOM     22  O   UNL     1      46.614   2.211   8.183  0.00  0.00    +0.000 OA
ATOM     23  H   UNL     1      46.729   1.402   8.709  0.00  0.00    +0.000 HD
ENDBRANCH  19  22
ENDBRANCH  13  16
ENDBRANCH   1  13
TORSDOF 5
ENDMDL
MODEL 4
REMARK VINA RESULT:    -5.500      1.966      6.223
REMARK INTER + INTRA:          -7.278
REMARK INTER:                  -7.662
REMARK INTRA:                   0.383
REMARK UNBOUND:                -0.331
REMARK  Name = 
REMARK  5 active torsions:
REMARK  status: ('A' for Active; 'I' for Inactive)
REMARK    1  A    between atoms: C_2  and  C_4
REMARK    2  A    between atoms: C_7  and  C_8
REMARK    3  A    between atoms: C_8  and  C_9
REMARK    4  A    between atoms: C_9  and  N_10
REMARK    5  A    between atoms: C_13  and  O_14
REMARK                            x       y       z     vdW  Elec       q    Type
REMARK                         _______ _______ _______ _____ _____    ______ ____
ROOT
ATOM      1  C   UNL     1      43.970   5.178  10.550  0.00  0.00    +0.000 C 
ENDROOT
BRANCH   1   5
ATOM      2  C   UNL     1      46.700   7.536  12.702  0.00  0.00    +0.000 A 
ATOM      3  N   UNL     1      45.417   7.533  13.142  0.00  0.00    +0.000 NA
ATOM      4  C   UNL     1      44.551   6.809  12.403  0.00  0.00    +0.000 A 
ATOM      5  C   UNL     1      44.907   6.097  11.273  0.00  0.00    +0.000 A 
ATOM      6  C   UNL     1      46.239   6.200  10.915  0.00  0.00    +0.000 A 
ATOM      7  N   UNL     1      47.153   6.910  11.602  0.00  0.00    +0.000 NA
BRANCH   2   9
ATOM      8  N   UNL     1      47.196   8.969  14.624  0.00  0.00    +0.000 N 
ATOM      9  C   UNL     1      47.713   8.251  13.569  0.00  0.00    +0.000 C 
ATOM     10  O   UNL     1      48.924   8.202  13.390  0.00  0.00    +0.000 OA
ATOM     11  H   UNL     1      47.831   9.428  15.259  0.00  0.00    +0.000 HD
ATOM     12  H   UNL     1      46.197   8.981  14.790  0.00  0.00    +0.000 HD
ENDBRANCH   2   9
ENDBRANCH   1   5
BRANCH   1  13
ATOM     13  C   UNL     1      44.438   3.728  10.455  0.00  0.00    +0.000 C 
ATOM     14  C   UNL     1      43.622   2.669  11.177  0.00  0.00    +0.000 C 
ATOM     15  C   UNL     1      44.917   3.120  11.768  0.00  0.00    +0.000 C 
BRANCH  13  16
ATOM     16  N   UNL     1      45.265   3.306   9.304  0.00  0.00    +0.000 NA
ATOM     17  C   UNL     1      45.475   4.280   8.237  0.00  0.00    +0.000 C 
ATOM     18  C   UNL     1      46.786   3.961   7.520  0.00  0.00    +0.000 C 
ATOM     19  C   UNL     1      46.825   2.517   7.022  0.00  0.00    +0.000 C 
ATOM     20  C   UNL     1      46.412   1.524   8.109  0.00  0.00    +0.000 C 
ATOM     21  C   UNL     1      45.119   1.939   8.819  0.00  0.00    +0.000 C 
BRANCH  19  22
ATOM     22  O   UNL     1      45.993   2.370   5.872  0.00  0.00    +0.000 OA
ATOM     23  H   UNL     1      46.512   1.963   5.158  0.00  0.00    +0.000 HD
ENDBRANCH  19  22
ENDBRANCH  13  16
ENDBRANCH   1  13
TORSDOF 5
ENDMDL
MODEL 5
REMARK VINA RESULT:    -5.485      4.541      7.319
REMARK INTER + INTRA:          -7.259
REMARK INTER:                  -6.558
REMARK INTRA:                  -0.701
REMARK UNBOUND:                -0.331
REMARK  Name = 
REMARK  5 active torsions:
REMARK  status: ('A' for Active; 'I' for Inactive)
REMARK    1  A    between atoms: C_2  and  C_4
REMARK    2  A    between atoms: C_7  and  C_8
REMARK    3  A    between atoms: C_8  and  C_9
REMARK    4  A    between atoms: C_9  and  N_10
REMARK    5  A    between atoms: C_13  and  O_14
REMARK                            x       y       z     vdW  Elec       q    Type
REMARK                         _______ _______ _______ _____ _____    ______ ____
ROOT
ATOM      1  C   UNL     1      49.426   6.466  15.981  0.00  0.00    +0.000 C 
ENDROOT
BRANCH   1   5
ATOM      2  C   UNL     1      46.304   4.844  13.688  0.00  0.00    +0.000 A 
ATOM      3  N   UNL     1      46.872   5.984  13.224  0.00  0.00    +0.000 NA
ATOM      4  C   UNL     1      47.837   6.512  14.006  0.00  0.00    +0.000 A 
ATOM      5  C   UNL     1      48.254   5.956  15.200  0.00  0.00    +0.000 A 
ATOM      6  C   UNL     1      47.580   4.806  15.574  0.00  0.00    +0.000 A 
ATOM      7  N   UNL     1      46.605   4.232  14.846  0.00  0.00    +0.000 NA
BRANCH   2   9
ATOM      8  N   UNL     1      45.456   2.814  12.613  0.00  0.00    +0.000 N 
ATOM      9  C   UNL     1      45.295   4.171  12.782  0.00  0.00    +0.000 C 
ATOM     10  O   UNL     1      44.368   4.756  12.234  0.00  0.00    +0.000 OA
ATOM     11  H   UNL     1      44.783   2.309  12.055  0.00  0.00    +0.000 HD
ATOM     12  H   UNL     1      46.202   2.326  13.094  0.00  0.00    +0.000 HD
ENDBRANCH   2   9
ENDBRANCH   1   5
BRANCH   1  13
ATOM     13  C   UNL     1      49.070   7.172  17.288  0.00  0.00    +0.000 C 
ATOM     14  C   UNL     1      48.300   8.478  17.203  0.00  0.00    +0.000 C 
ATOM     15  C   UNL     1      49.762   8.513  17.502  0.00  0.00    +0.000 C 
BRANCH  13  16
ATOM     16  N   UNL     1      48.970   6.383  18.535  0.00  0.00    +0.000 NA
ATOM     17  C   UNL     1      49.902   5.272  18.701  0.00  0.00    +0.000 C 
ATOM     18  C   UNL     1      50.108   5.012  20.192  0.00  0.00    +0.000 C 
ATOM     19  C   UNL     1      48.784   4.789  20.920  0.00  0.00    +0.000 C 
ATOM     20  C   UNL     1      47.754   5.867  20.577  0.00  0.00    +0.000 C 
ATOM     21  C   UNL     1      47.642   6.109  19.068  0.00  0.00    +0.000 C 
BRANCH  19  22
ATOM     22  O   UNL     1      48.267   3.494  20.618  0.00  0.00    +0.000 OA
ATOM     23  H   UNL     1      48.776   2.829  21.111  0.00  0.00    +0.000 HD
ENDBRANCH  19  22
ENDBRANCH  13  16
ENDBRANCH   1  13
TORSDOF 5
ENDMDL
MODEL 6
REMARK VINA RESULT:    -5.331      4.488      6.232
REMARK INTER + INTRA:          -7.064
REMARK INTER:                  -6.430
REMARK INTRA:                  -0.634
REMARK UNBOUND:                -0.331
REMARK  Name = 
REMARK  5 active torsions:
REMARK  status: ('A' for Active; 'I' for Inactive)
REMARK    1  A    between atoms: C_2  and  C_4
REMARK    2  A    between atoms: C_7  and  C_8
REMARK    3  A    between atoms: C_8  and  C_9
REMARK    4  A    between atoms: C_9  and  N_10
REMARK    5  A    between atoms: C_13  and  O_14
REMARK                            x       y       z     vdW  Elec       q    Type
REMARK                         _______ _______ _______ _____ _____    ______ ____
ROOT
ATOM      1  C   UNL     1      48.560   6.931  12.210  0.00  0.00    +0.000 C 
ENDROOT
BRANCH   1   5
ATOM      2  C   UNL     1      44.507   5.922  12.642  0.00  0.00    +0.000 A 
ATOM      3  N   UNL     1      44.783   7.048  11.939  0.00  0.00    +0.000 NA
ATOM      4  C   UNL     1      46.089   7.377  11.859  0.00  0.00    +0.000 A 
ATOM      5  C   UNL     1      47.108   6.640  12.432  0.00  0.00    +0.000 A 
ATOM      6  C   UNL     1      46.694   5.527  13.143  0.00  0.00    +0.000 A 
ATOM      7  N   UNL     1      45.409   5.146  13.268  0.00  0.00    +0.000 NA
BRANCH   2   9
ATOM      8  N   UNL     1      42.225   6.114  11.777  0.00  0.00    +0.000 N 
ATOM      9  C   UNL     1      43.063   5.469  12.659  0.00  0.00    +0.000 C 
ATOM     10  O   UNL     1      42.632   4.577  13.380  0.00  0.00    +0.000 OA
ATOM     11  H   UNL     1      41.261   5.819  11.716  0.00  0.00    +0.000 HD
ATOM     12  H   UNL     1      42.589   6.828  11.158  0.00  0.00    +0.000 HD
ENDBRANCH   2   9
ENDBRANCH   1   5
BRANCH   1  13
ATOM     13  C   UNL     1      49.088   8.165  12.938  0.00  0.00    +0.000 C 
ATOM     14  C   UNL     1      49.096   9.485  12.186  0.00  0.00    +0.000 C 
ATOM     15  C   UNL     1      50.379   8.743  12.370  0.00  0.00    +0.000 C 
BRANCH  13  16
ATOM     16  N   UNL     1      49.056   8.205  14.416  0.00  0.00    +0.000 NA
ATOM     17  C   UNL     1      49.467   7.000  15.128  0.00  0.00    +0.000 C 
ATOM     18  C   UNL     1      49.984   7.388  16.512  0.00  0.00    +0.000 C 
ATOM     19  C   UNL     1      48.963   8.217  17.289  0.00  0.00    +0.000 C 
ATOM     20  C   UNL     1      48.401   9.366  16.451  0.00  0.00    +0.000 C 
ATOM     21  C   UNL     1      47.952   8.909  15.059  0.00  0.00    +0.000 C 
BRANCH  19  22
ATOM     22  O   UNL     1      47.906   7.382  17.760  0.00  0.00    +0.000 OA
ATOM     23  H   UNL     1      47.110   7.924  17.890  0.00  0.00    +0.000 HD
ENDBRANCH  19  22
ENDBRANCH  13  16
ENDBRANCH   1  13
TORSDOF 5
ENDMDL
MODEL 7
REMARK VINA RESULT:    -5.048      5.056      6.686
REMARK INTER + INTRA:          -6.707
REMARK INTER:                  -6.041
REMARK INTRA:                  -0.667
REMARK UNBOUND:                -0.331
REMARK  Name = 
REMARK  5 active torsions:
REMARK  status: ('A' for Active; 'I' for Inactive)
REMARK    1  A    between atoms: C_2  and  C_4
REMARK    2  A    between atoms: C_7  and  C_8
REMARK    3  A    between atoms: C_8  and  C_9
REMARK    4  A    between atoms: C_9  and  N_10
REMARK    5  A    between atoms: C_13  and  O_14
REMARK                            x       y       z     vdW  Elec       q    Type
REMARK                         _______ _______ _______ _____ _____    ______ ____
ROOT
ATOM      1  C   UNL     1      47.213   6.792  12.031  0.00  0.00    +0.000 C 
ENDROOT
BRANCH   1   5
ATOM      2  C   UNL     1      47.479   4.430  15.493  0.00  0.00    +0.000 A 
ATOM      3  N   UNL     1      48.262   5.535  15.447  0.00  0.00    +0.000 NA
ATOM      4  C   UNL     1      48.196   6.249  14.304  0.00  0.00    +0.000 A 
ATOM      5  C   UNL     1      47.391   5.914  13.231  0.00  0.00    +0.000 A 
ATOM      6  C   UNL     1      46.658   4.751  13.392  0.00  0.00    +0.000 A 
ATOM      7  N   UNL     1      46.684   3.990  14.501  0.00  0.00    +0.000 NA
BRANCH   2   9
ATOM      8  N   UNL     1      48.658   3.568  17.457  0.00  0.00    +0.000 N 
ATOM      9  C   UNL     1      47.452   3.670  16.801  0.00  0.00    +0.000 C 
ATOM     10  O   UNL     1      46.440   3.182  17.290  0.00  0.00    +0.000 OA
ATOM     11  H   UNL     1      48.686   3.110  18.356  0.00  0.00    +0.000 HD
ATOM     12  H   UNL     1      49.487   4.001  17.069  0.00  0.00    +0.000 HD
ENDBRANCH   2   9
ENDBRANCH   1   5
BRANCH   1  13
ATOM     13  C   UNL     1      46.865   8.246  12.343  0.00  0.00    +0.000 C 
ATOM     14  C   UNL     1      45.597   8.520  13.132  0.00  0.00    +0.000 C 
ATOM     15  C   UNL     1      45.606   8.766  11.659  0.00  0.00    +0.000 C 
BRANCH  13  16
ATOM     16  N   UNL     1      47.944   9.257  12.382  0.00  0.00    +0.000 NA
ATOM     17  C   UNL     1      49.118   9.018  11.549  0.00  0.00    +0.000 C 
ATOM     18  C   UNL     1      49.770  10.357  11.209  0.00  0.00    +0.000 C 
ATOM     19  C   UNL     1      50.088  11.170  12.462  0.00  0.00    +0.000 C 
ATOM     20  C   UNL     1      48.894  11.245  13.415  0.00  0.00    +0.000 C 
ATOM     21  C   UNL     1      48.260   9.872  13.665  0.00  0.00    +0.000 C 
BRANCH  19  22
ATOM     22  O   UNL     1      51.224  10.623  13.130  0.00  0.00    +0.000 OA
ATOM     23  H   UNL     1      51.680  10.012  12.528  0.00  0.00    +0.000 HD
ENDBRANCH  19  22
ENDBRANCH  13  16
ENDBRANCH   1  13
TORSDOF 5
ENDMDL
MODEL 8
REMARK VINA RESULT:    -5.040      3.572      5.585
REMARK INTER + INTRA:          -6.697
REMARK INTER:                  -6.409
REMARK INTRA:                  -0.288
REMARK UNBOUND:                -0.331
REMARK  Name = 
REMARK  5 active torsions:
REMARK  status: ('A' for Active; 'I' for Inactive)
REMARK    1  A    between atoms: C_2  and  C_4
REMARK    2  A    between atoms: C_7  and  C_8
REMARK    3  A    between atoms: C_8  and  C_9
REMARK    4  A    between atoms: C_9  and  N_10
REMARK    5  A    between atoms: C_13  and  O_14
REMARK                            x       y       z     vdW  Elec       q    Type
REMARK                         _______ _______ _______ _____ _____    ______ ____
ROOT
ATOM      1  C   UNL     1      48.535   6.580  13.032  0.00  0.00    +0.000 C 
ENDROOT
BRANCH   1   5
ATOM      2  C   UNL     1      45.033   4.413  12.210  0.00  0.00    +0.000 A 
ATOM      3  N   UNL     1      45.299   5.469  11.403  0.00  0.00    +0.000 NA
ATOM      4  C   UNL     1      46.402   6.179  11.720  0.00  0.00    +0.000 A 
ATOM      5  C   UNL     1      47.235   5.878  12.781  0.00  0.00    +0.000 A 
ATOM      6  C   UNL     1      46.842   4.791  13.542  0.00  0.00    +0.000 A 
ATOM      7  N   UNL     1      45.751   4.046  13.286  0.00  0.00    +0.000 NA
BRANCH   2   9
ATOM      8  N   UNL     1      43.745   2.352  12.511  0.00  0.00    +0.000 N 
ATOM      9  C   UNL     1      43.864   3.535  11.817  0.00  0.00    +0.000 C 
ATOM     10  O   UNL     1      43.042   3.832  10.957  0.00  0.00    +0.000 OA
ATOM     11  H   UNL     1      42.957   1.752  12.319  0.00  0.00    +0.000 HD
ATOM     12  H   UNL     1      44.405   2.124  13.244  0.00  0.00    +0.000 HD
ENDBRANCH   2   9
ENDBRANCH   1   5
BRANCH   1  13
ATOM     13  C   UNL     1      48.524   7.553  14.208  0.00  0.00    +0.000 C 
ATOM     14  C   UNL     1      47.422   8.596  14.257  0.00  0.00    +0.000 C 
ATOM     15  C   UNL     1      48.795   9.007  13.841  0.00  0.00    +0.000 C 
BRANCH  13  16
ATOM     16  N   UNL     1      49.172   7.163  15.479  0.00  0.00    +0.000 NA
ATOM     17  C   UNL     1      50.628   7.061  15.485  0.00  0.00    +0.000 C 
ATOM     18  C   UNL     1      51.139   7.296  16.905  0.00  0.00    +0.000 C 
ATOM     19  C   UNL     1      50.475   6.359  17.912  0.00  0.00    +0.000 C 
ATOM     20  C   UNL     1      48.954   6.337  17.757  0.00  0.00    +0.000 C 
ATOM     21  C   UNL     1      48.518   6.150  16.299  0.00  0.00    +0.000 C 
BRANCH  19  22
ATOM     22  O   UNL     1      51.007   5.042  17.784  0.00  0.00    +0.000 OA
ATOM     23  H   UNL     1      50.497   4.559  17.113  0.00  0.00    +0.000 HD
ENDBRANCH  19  22
ENDBRANCH  13  16
ENDBRANCH   1  13
TORSDOF 5
ENDMDL
MODEL 9
REMARK VINA RESULT:    -5.029      4.513      7.774
REMARK INTER + INTRA:          -6.684
REMARK INTER:                  -6.089
REMARK INTRA:                  -0.595
REMARK UNBOUND:                -0.331
REMARK  Name = 
REMARK  5 active torsions:
REMARK  status: ('A' for Active; 'I' for Inactive)
REMARK    1  A    between atoms: C_2  and  C_4
REMARK    2  A    between atoms: C_7  and  C_8
REMARK    3  A    between atoms: C_8  and  C_9
REMARK    4  A    between atoms: C_9  and  N_10
REMARK    5  A    between atoms: C_13  and  O_14
REMARK                            x       y       z     vdW  Elec       q    Type
REMARK                         _______ _______ _______ _____ _____    ______ ____
ROOT
ATOM      1  C   UNL     1      48.630   8.167  14.445  0.00  0.00    +0.000 C 
ENDROOT
BRANCH   1   5
ATOM      2  C   UNL     1      50.036   5.084  16.926  0.00  0.00    +0.000 A 
ATOM      3  N   UNL     1      50.933   6.035  16.568  0.00  0.00    +0.000 NA
ATOM      4  C   UNL     1      50.469   6.986  15.730  0.00  0.00    +0.000 A 
ATOM      5  C   UNL     1      49.173   7.028  15.252  0.00  0.00    +0.000 A 
ATOM      6  C   UNL     1      48.363   5.988  15.672  0.00  0.00    +0.000 A 
ATOM      7  N   UNL     1      48.763   5.005  16.500  0.00  0.00    +0.000 NA
BRANCH   2   9
ATOM      8  N   UNL     1      49.745   3.996  19.100  0.00  0.00    +0.000 N 
ATOM      9  C   UNL     1      50.496   4.067  17.948  0.00  0.00    +0.000 C 
ATOM     10  O   UNL     1      51.456   3.322  17.790  0.00  0.00    +0.000 OA
ATOM     11  H   UNL     1      49.982   3.304  19.795  0.00  0.00    +0.000 HD
ATOM     12  H   UNL     1      48.932   4.589  19.214  0.00  0.00    +0.000 HD
ENDBRANCH   2   9
ENDBRANCH   1   5
BRANCH   1  13
ATOM     13  C   UNL     1      48.433   7.868  12.961  0.00  0.00    +0.000 C 
ATOM     14  C   UNL     1      49.645   7.431  12.156  0.00  0.00    +0.000 C 
ATOM     15  C   UNL     1      49.140   8.829  12.012  0.00  0.00    +0.000 C 
BRANCH  13  16
ATOM     16  N   UNL     1      47.093   7.477  12.471  0.00  0.00    +0.000 NA
ATOM     17  C   UNL     1      45.957   8.277  12.917  0.00  0.00    +0.000 C 
ATOM     18  C   UNL     1      44.839   8.177  11.881  0.00  0.00    +0.000 C 
ATOM     19  C   UNL     1      44.463   6.726  11.586  0.00  0.00    +0.000 C 
ATOM     20  C   UNL     1      45.693   5.861  11.310  0.00  0.00    +0.000 C 
ATOM     21  C   UNL     1      46.792   6.055  12.362  0.00  0.00    +0.000 C 
BRANCH  19  22
ATOM     22  O   UNL     1      43.706   6.184  12.667  0.00  0.00    +0.000 OA
ATOM     23  H   UNL     1      43.161   6.888  13.055  0.00  0.00    +0.000 HD
ENDBRANCH  19  22
ENDBRANCH  13  16
ENDBRANCH   1  13
TORSDOF 5
ENDMDL
