MODEL 1
REMARK VINA RESULT:    -7.797      0.000      0.000
REMARK INTER + INTRA:         -11.863
REMARK INTER:                 -10.987
REMARK INTRA:                  -0.876
REMARK UNBOUND:                -0.876
REMARK  Name = 
REMARK  7 active torsions:
REMARK  status: ('A' for Active; 'I' for Inactive)
REMARK    1  A    between atoms: C_2  and  C_3
REMARK    2  A    between atoms: C_6  and  C_7
REMARK    3  A    between atoms: N_9  and  C_10
REMARK    4  A    between atoms: C_10  and  C_11
REMARK    5  A    between atoms: C_14  and  C_15
REMARK    6  A    between atoms: C_15  and  N_16
REMARK    7  A    between atoms: C_17  and  C_19
REMARK                            x       y       z     vdW  Elec       q    Type
REMARK                         _______ _______ _______ _____ _____    ______ ____
ROOT
ATOM      1  C   UNL     1      45.124   5.631  12.140  0.00  0.00    +0.000 A 
ATOM      2  C   UNL     1      46.190   6.431  12.575  0.00  0.00    +0.000 A 
ATOM      3  C   UNL     1      46.999   6.022  13.640  0.00  0.00    +0.000 A 
ATOM      4  C   UNL     1      46.773   4.795  14.278  0.00  0.00    +0.000 A 
ATOM      5  C   UNL     1      45.697   4.004  13.852  0.00  0.00    +0.000 A 
ATOM      6  C   UNL     1      44.890   4.410  12.786  0.00  0.00    +0.000 A 
ENDROOT
BRANCH   1   7
ATOM      7  C   UNL     1      44.247   6.069  11.000  0.00  0.00    +0.000 C 
BRANCH   7  10
ATOM      8  C   UNL     1      44.966   4.750   9.077  0.00  0.00    +0.000 C 
ATOM      9  O   UNL     1      46.009   5.392   8.984  0.00  0.00    +0.000 OA
ATOM     10  N   UNL     1      44.024   5.011  10.042  0.00  0.00    +0.000 N 
ATOM     11  H   UNL     1      43.134   4.529  10.043  0.00  0.00    +0.000 HD
BRANCH   8  15
ATOM     12  C   UNL     1      46.787   2.725   7.616  0.00  0.00    +0.000 C 
ATOM     13  C   UNL     1      46.098   1.693   8.511  0.00  0.00    +0.000 C 
ATOM     14  C   UNL     1      44.696   2.240   8.804  0.00  0.00    +0.000 C 
ATOM     15  C   UNL     1      44.617   3.608   8.123  0.00  0.00    +0.000 C 
ATOM     16  C   UNL     1      45.630   3.489   6.979  0.00  0.00    +0.000 C 
BRANCH  12  18
ATOM     17  N   UNL     1      48.429   1.508   5.731  0.00  0.00    +0.000 NA
ATOM     18  C   UNL     1      47.684   2.060   6.586  0.00  0.00    +0.000 C 
ENDBRANCH  12  18
ENDBRANCH   8  15
ENDBRANCH   7  10
ENDBRANCH   1   7
BRANCH   4  19
ATOM     19  C   UNL     1      47.645   4.338  15.420  0.00  0.00    +0.000 C 
BRANCH  19  20
ATOM     20  N   UNL     1      47.632   5.283  16.508  0.00  0.00    +0.000 N 
ATOM     21  C   UNL     1      48.757   5.993  16.845  0.00  0.00    +0.000 C 
ATOM     22  O   UNL     1      49.801   5.900  16.207  0.00  0.00    +0.000 OA
ATOM     23  H   UNL     1      46.878   5.198  17.183  0.00  0.00    +0.000 HD
BRANCH  21  24
ATOM     24  C   UNL     1      48.630   6.921  17.977  0.00  0.00    +0.000 A 
ATOM     25  C   UNL     1      48.800   6.455  19.275  0.00  0.00    +0.000 A 
ATOM     26  S   UNL     1      48.671   7.672  20.462  0.00  0.00    +0.000 S 
ATOM     27  C   UNL     1      48.331   8.856  19.289  0.00  0.00    +0.000 A 
ATOM     28  N   UNL     1      48.088  10.148  19.644  0.00  0.00    +0.000 NA
ATOM     29  C   UNL     1      47.819  10.932  18.656  0.00  0.00    +0.000 A 
ATOM     30  N   UNL     1      47.776  10.546  17.340  0.00  0.00    +0.000 N 
ATOM     31  C   UNL     1      48.038   9.260  16.932  0.00  0.00    +0.000 A 
ATOM     32  O   UNL     1      48.032   8.956  15.744  0.00  0.00    +0.000 OA
ATOM     33  C   UNL     1      48.336   8.334  18.007  0.00  0.00    +0.000 A 
ATOM     34  H   UNL     1      47.570  11.214  16.612  0.00  0.00    +0.000 HD
ENDBRANCH  21  24
ENDBRANCH  19  20
ENDBRANCH   4  19
TORSDOF 7
ENDMDL
MODEL 2
REMARK VINA RESULT:    -7.460      3.503      9.301
REMARK INTER + INTRA:         -11.389
REMARK INTER:                 -10.027
REMARK INTRA:                  -1.362
REMARK UNBOUND:                -0.876
REMARK  Name = 
REMARK  7 active torsions:
REMARK  status: ('A' for Active; 'I' for Inactive)
REMARK    1  A    between atoms: C_2  and  C_3
REMARK    2  A    between atoms: C_6  and  C_7
REMARK    3  A    between atoms: N_9  and  C_10
REMARK    4  A    between atoms: C_10  and  C_11
REMARK    5  A    between atoms: C_14  and  C_15
REMARK    6  A    between atoms: C_15  and  N_16
REMARK    7  A    between atoms: C_17  and  C_19
REMARK                            x       y       z     vdW  Elec       q    Type
REMARK                         _______ _______ _______ _____ _____    ______ ____
ROOT
ATOM      1  C   UNL     1      50.536   7.633  15.223  0.00  0.00    +0.000 A 
ATOM      2  C   UNL     1      50.927   8.350  14.083  0.00  0.00    +0.000 A 
ATOM      3  C   UNL     1      50.098   8.406  12.958  0.00  0.00    +0.000 A 
ATOM      4  C   UNL     1      48.851   7.767  12.957  0.00  0.00    +0.000 A 
ATOM      5  C   UNL     1      48.468   7.039  14.092  0.00  0.00    +0.000 A 
ATOM      6  C   UNL     1      49.295   6.983  15.217  0.00  0.00    +0.000 A 
ENDROOT
BRANCH   1   7
ATOM      7  C   UNL     1      51.427   7.563  16.433  0.00  0.00    +0.000 C 
BRANCH   7  10
ATOM      8  C   UNL     1      51.892   5.390  17.442  0.00  0.00    +0.000 C 
ATOM      9  O   UNL     1      52.944   5.289  16.817  0.00  0.00    +0.000 OA
ATOM     10  N   UNL     1      51.064   6.480  17.317  0.00  0.00    +0.000 N 
ATOM     11  H   UNL     1      50.161   6.501  17.772  0.00  0.00    +0.000 HD
BRANCH   8  15
ATOM     12  C   UNL     1      49.369   3.608  17.346  0.00  0.00    +0.000 C 
ATOM     13  C   UNL     1      50.371   2.465  17.163  0.00  0.00    +0.000 C 
ATOM     14  C   UNL     1      51.658   2.899  17.874  0.00  0.00    +0.000 C 
ATOM     15  C   UNL     1      51.401   4.311  18.406  0.00  0.00    +0.000 C 
ATOM     16  C   UNL     1      49.879   4.348  18.579  0.00  0.00    +0.000 C 
BRANCH  12  18
ATOM     17  N   UNL     1      46.779   2.651  17.669  0.00  0.00    +0.000 NA
ATOM     18  C   UNL     1      47.954   3.085  17.523  0.00  0.00    +0.000 C 
ENDBRANCH  12  18
ENDBRANCH   8  15
ENDBRANCH   7  10
ENDBRANCH   1   7
BRANCH   4  19
ATOM     19  C   UNL     1      47.944   7.831  11.754  0.00  0.00    +0.000 C 
BRANCH  19  20
ATOM     20  N   UNL     1      47.169   6.625  11.610  0.00  0.00    +0.000 N 
ATOM     21  C   UNL     1      45.801   6.641  11.729  0.00  0.00    +0.000 C 
ATOM     22  O   UNL     1      45.176   7.683  11.905  0.00  0.00    +0.000 OA
ATOM     23  H   UNL     1      47.664   5.744  11.707  0.00  0.00    +0.000 HD
BRANCH  21  24
ATOM     24  C   UNL     1      45.116   5.352  11.573  0.00  0.00    +0.000 A 
ATOM     25  C   UNL     1      44.427   4.801  12.647  0.00  0.00    +0.000 A 
ATOM     26  S   UNL     1      43.647   3.331  12.278  0.00  0.00    +0.000 S 
ATOM     27  C   UNL     1      44.245   3.349  10.686  0.00  0.00    +0.000 A 
ATOM     28  N   UNL     1      43.963   2.339   9.817  0.00  0.00    +0.000 NA
ATOM     29  C   UNL     1      44.502   2.470   8.654  0.00  0.00    +0.000 A 
ATOM     30  N   UNL     1      45.295   3.523   8.272  0.00  0.00    +0.000 N 
ATOM     31  C   UNL     1      45.586   4.576   9.105  0.00  0.00    +0.000 A 
ATOM     32  O   UNL     1      46.264   5.522   8.720  0.00  0.00    +0.000 OA
ATOM     33  C   UNL     1      45.012   4.473  10.432  0.00  0.00    +0.000 A 
ATOM     34  H   UNL     1      45.678   3.570   7.339  0.00  0.00    +0.000 HD
ENDBRANCH  21  24
ENDBRANCH  19  20
ENDBRANCH   4  19
TORSDOF 7
ENDMDL
MODEL 3
REMARK VINA RESULT:    -7.204      4.129      5.952
REMARK INTER + INTRA:         -11.027
REMARK INTER:                  -9.787
REMARK INTRA:                  -1.240
REMARK UNBOUND:                -0.876
REMARK  Name = 
REMARK  7 active torsions:
REMARK  status: ('A' for Active; 'I' for Inactive)
REMARK    1  A    between atoms: C_2  and  C_3
REMARK    2  A    between atoms: C_6  and  C_7
REMARK    3  A    between atoms: N_9  and  C_10
REMARK    4  A    between atoms: C_10  and  C_11
REMARK    5  A    between atoms: C_14  and  C_15
REMARK    6  A    between atoms: C_15  and  N_16
REMARK    7  A    between atoms: C_17  and  C_19
REMARK                            x       y       z     vdW  Elec       q    Type
REMARK                         _______ _______ _______ _____ _____    ______ ____
ROOT
ATOM      1  C   UNL     1      47.844   6.107  14.407  0.00  0.00    +0.000 A 
ATOM      2  C   UNL     1      47.146   4.892  14.410  0.00  0.00    +0.000 A 
ATOM      3  C   UNL     1      47.258   4.009  15.491  0.00  0.00    +0.000 A 
ATOM      4  C   UNL     1      48.053   4.334  16.598  0.00  0.00    +0.000 A 
ATOM      5  C   UNL     1      48.762   5.542  16.585  0.00  0.00    +0.000 A 
ATOM      6  C   UNL     1      48.649   6.426  15.508  0.00  0.00    +0.000 A 
ENDROOT
BRANCH   1   7
ATOM      7  C   UNL     1      47.733   7.056  13.245  0.00  0.00    +0.000 C 
BRANCH   7  10
ATOM      8  C   UNL     1      45.565   7.113  12.124  0.00  0.00    +0.000 C 
ATOM      9  O   UNL     1      45.165   8.000  12.873  0.00  0.00    +0.000 OA
ATOM     10  N   UNL     1      46.824   6.574  12.230  0.00  0.00    +0.000 N 
ATOM     11  H   UNL     1      47.100   5.783  11.662  0.00  0.00    +0.000 HD
BRANCH   8  15
ATOM     12  C   UNL     1      43.850   4.544  12.069  0.00  0.00    +0.000 C 
ATOM     13  C   UNL     1      42.672   5.516  11.962  0.00  0.00    +0.000 C 
ATOM     14  C   UNL     1      43.206   6.766  11.252  0.00  0.00    +0.000 C 
ATOM     15  C   UNL     1      44.698   6.521  11.014  0.00  0.00    +0.000 C 
ATOM     16  C   UNL     1      44.799   4.993  10.963  0.00  0.00    +0.000 C 
BRANCH  12  18
ATOM     17  N   UNL     1      43.027   1.906  11.764  0.00  0.00    +0.000 NA
ATOM     18  C   UNL     1      43.400   3.102  11.902  0.00  0.00    +0.000 C 
ENDBRANCH  12  18
ENDBRANCH   8  15
ENDBRANCH   7  10
ENDBRANCH   1   7
BRANCH   4  19
ATOM     19  C   UNL     1      48.173   3.395  17.773  0.00  0.00    +0.000 C 
BRANCH  19  20
ATOM     20  N   UNL     1      49.547   3.066  18.050  0.00  0.00    +0.000 N 
ATOM     21  C   UNL     1      50.256   2.225  17.229  0.00  0.00    +0.000 C 
ATOM     22  O   UNL     1      49.775   1.763  16.199  0.00  0.00    +0.000 OA
ATOM     23  H   UNL     1      49.879   3.233  18.995  0.00  0.00    +0.000 HD
BRANCH  21  24
ATOM     24  C   UNL     1      51.647   1.953  17.615  0.00  0.00    +0.000 A 
ATOM     25  C   UNL     1      52.079   0.641  17.762  0.00  0.00    +0.000 A 
ATOM     26  S   UNL     1      53.731   0.505  18.161  0.00  0.00    +0.000 S 
ATOM     27  C   UNL     1      53.916   2.195  18.203  0.00  0.00    +0.000 A 
ATOM     28  N   UNL     1      55.115   2.764  18.514  0.00  0.00    +0.000 NA
ATOM     29  C   UNL     1      55.105   4.053  18.533  0.00  0.00    +0.000 A 
ATOM     30  N   UNL     1      54.007   4.831  18.264  0.00  0.00    +0.000 N 
ATOM     31  C   UNL     1      52.785   4.304  17.923  0.00  0.00    +0.000 A 
ATOM     32  O   UNL     1      51.834   5.027  17.648  0.00  0.00    +0.000 OA
ATOM     33  C   UNL     1      52.739   2.855  17.896  0.00  0.00    +0.000 A 
ATOM     34  H   UNL     1      54.070   5.838  18.286  0.00  0.00    +0.000 HD
ENDBRANCH  21  24
ENDBRANCH  19  20
ENDBRANCH   4  19
TORSDOF 7
ENDMDL
MODEL 4
REMARK VINA RESULT:    -7.154      5.266      9.822
REMARK INTER + INTRA:         -10.958
REMARK INTER:                  -9.787
REMARK INTRA:                  -1.171
REMARK UNBOUND:                -0.876
REMARK  Name = 
REMARK  7 active torsions:
REMARK  status: ('A' for Active; 'I' for Inactive)
REMARK    1  A    between atoms: C_2  and  C_3
REMARK    2  A    between atoms: C_6  and  C_7
REMARK    3  A    between atoms: N_9  and  C_10
REMARK    4  A    between atoms: C_10  and  C_11
REMARK    5  A    between atoms: C_14  and  C_15
REMARK    6  A    between atoms: C_15  and  N_16
REMARK    7  A    between atoms: C_17  and  C_19
REMARK                            x       y       z     vdW  Elec       q    Type
REMARK                         _______ _______ _______ _____ _____    ______ ____
ROOT
ATOM      1  C   UNL     1      51.425   4.444  17.765  0.00  0.00    +0.000 A 
ATOM      2  C   UNL     1      50.997   3.110  17.725  0.00  0.00    +0.000 A 
ATOM      3  C   UNL     1      49.680   2.794  17.372  0.00  0.00    +0.000 A 
ATOM      4  C   UNL     1      48.772   3.804  17.031  0.00  0.00    +0.000 A 
ATOM      5  C   UNL     1      49.198   5.138  17.085  0.00  0.00    +0.000 A 
ATOM      6  C   UNL     1      50.513   5.455  17.436  0.00  0.00    +0.000 A 
ENDROOT
BRANCH   1   7
ATOM      7  C   UNL     1      52.838   4.788  18.151  0.00  0.00    +0.000 C 
BRANCH   7  10
ATOM      8  C   UNL     1      54.429   3.032  18.732  0.00  0.00    +0.000 C 
ATOM      9  O   UNL     1      54.253   3.223  19.932  0.00  0.00    +0.000 OA
ATOM     10  N   UNL     1      53.777   3.760  17.766  0.00  0.00    +0.000 N 
ATOM     11  H   UNL     1      54.004   3.646  16.787  0.00  0.00    +0.000 HD
BRANCH   8  15
ATOM     12  C   UNL     1      54.102  -0.028  18.447  0.00  0.00    +0.000 C 
ATOM     13  C   UNL     1      54.175   0.258  16.945  0.00  0.00    +0.000 C 
ATOM     14  C   UNL     1      55.036   1.517  16.785  0.00  0.00    +0.000 C 
ATOM     15  C   UNL     1      55.397   1.974  18.201  0.00  0.00    +0.000 C 
ATOM     16  C   UNL     1      55.329   0.678  19.016  0.00  0.00    +0.000 C 
BRANCH  12  18
ATOM     17  N   UNL     1      54.105  -2.759  18.966  0.00  0.00    +0.000 NA
ATOM     18  C   UNL     1      54.103  -1.520  18.731  0.00  0.00    +0.000 C 
ENDBRANCH  12  18
ENDBRANCH   8  15
ENDBRANCH   7  10
ENDBRANCH   1   7
BRANCH   4  19
ATOM     19  C   UNL     1      47.353   3.476  16.637  0.00  0.00    +0.000 C 
BRANCH  19  20
ATOM     20  N   UNL     1      46.824   4.442  15.709  0.00  0.00    +0.000 N 
ATOM     21  C   UNL     1      46.828   4.204  14.357  0.00  0.00    +0.000 C 
ATOM     22  O   UNL     1      47.227   3.144  13.884  0.00  0.00    +0.000 OA
ATOM     23  H   UNL     1      46.719   5.394  16.045  0.00  0.00    +0.000 HD
BRANCH  21  24
ATOM     24  C   UNL     1      46.272   5.263  13.505  0.00  0.00    +0.000 A 
ATOM     25  C   UNL     1      47.016   6.408  13.251  0.00  0.00    +0.000 A 
ATOM     26  S   UNL     1      46.244   7.508  12.202  0.00  0.00    +0.000 S 
ATOM     27  C   UNL     1      44.865   6.519  12.092  0.00  0.00    +0.000 A 
ATOM     28  N   UNL     1      43.787   6.895  11.348  0.00  0.00    +0.000 NA
ATOM     29  C   UNL     1      42.803   6.062  11.374  0.00  0.00    +0.000 A 
ATOM     30  N   UNL     1      42.797   4.881  12.072  0.00  0.00    +0.000 N 
ATOM     31  C   UNL     1      43.868   4.448  12.816  0.00  0.00    +0.000 A 
ATOM     32  O   UNL     1      43.846   3.368  13.394  0.00  0.00    +0.000 OA
ATOM     33  C   UNL     1      44.999   5.355  12.828  0.00  0.00    +0.000 A 
ATOM     34  H   UNL     1      41.996   4.267  12.042  0.00  0.00    +0.000 HD
ENDBRANCH  21  24
ENDBRANCH  19  20
ENDBRANCH   4  19
TORSDOF 7
ENDMDL
MODEL 5
REMARK VINA RESULT:    -6.958      2.928      9.310
REMARK INTER + INTRA:         -10.682
REMARK INTER:                  -9.176
REMARK INTRA:                  -1.506
REMARK UNBOUND:                -0.876
REMARK  Name = 
REMARK  7 active torsions:
REMARK  status: ('A' for Active; 'I' for Inactive)
REMARK    1  A    between atoms: C_2  and  C_3
REMARK    2  A    between atoms: C_6  and  C_7
REMARK    3  A    between atoms: N_9  and  C_10
REMARK    4  A    between atoms: C_10  and  C_11
REMARK    5  A    between atoms: C_14  and  C_15
REMARK    6  A    between atoms: C_15  and  N_16
REMARK    7  A    between atoms: C_17  and  C_19
REMARK                            x       y       z     vdW  Elec       q    Type
REMARK                         _______ _______ _______ _____ _____    ______ ____
ROOT
ATOM      1  C   UNL     1      49.676   8.969  15.411  0.00  0.00    +0.000 A 
ATOM      2  C   UNL     1      49.244   9.982  14.544  0.00  0.00    +0.000 A 
ATOM      3  C   UNL     1      48.782   9.671  13.260  0.00  0.00    +0.000 A 
ATOM      4  C   UNL     1      48.722   8.340  12.826  0.00  0.00    +0.000 A 
ATOM      5  C   UNL     1      49.169   7.331  13.689  0.00  0.00    +0.000 A 
ATOM      6  C   UNL     1      49.628   7.640  14.972  0.00  0.00    +0.000 A 
ENDROOT
BRANCH   1   7
ATOM      7  C   UNL     1      50.180   9.299  16.789  0.00  0.00    +0.000 C 
BRANCH   7  10
ATOM      8  C   UNL     1      48.768   8.155  18.418  0.00  0.00    +0.000 C 
ATOM      9  O   UNL     1      47.875   8.987  18.278  0.00  0.00    +0.000 OA
ATOM     10  N   UNL     1      49.953   8.224  17.727  0.00  0.00    +0.000 N 
ATOM     11  H   UNL     1      50.708   7.579  17.925  0.00  0.00    +0.000 HD
BRANCH   8  15
ATOM     12  C   UNL     1      48.061   5.195  17.884  0.00  0.00    +0.000 C 
ATOM     13  C   UNL     1      49.501   4.930  18.329  0.00  0.00    +0.000 C 
ATOM     14  C   UNL     1      49.863   6.047  19.315  0.00  0.00    +0.000 C 
ATOM     15  C   UNL     1      48.646   6.974  19.380  0.00  0.00    +0.000 C 
ATOM     16  C   UNL     1      47.481   6.051  19.007  0.00  0.00    +0.000 C 
BRANCH  12  18
ATOM     17  N   UNL     1      46.656   2.824  17.515  0.00  0.00    +0.000 NA
ATOM     18  C   UNL     1      47.292   3.900  17.682  0.00  0.00    +0.000 C 
ENDBRANCH  12  18
ENDBRANCH   8  15
ENDBRANCH   7  10
ENDBRANCH   1   7
BRANCH   4  19
ATOM     19  C   UNL     1      48.216   7.992  11.448  0.00  0.00    +0.000 C 
BRANCH  19  20
ATOM     20  N   UNL     1      47.374   6.824  11.473  0.00  0.00    +0.000 N 
ATOM     21  C   UNL     1      46.016   6.930  11.646  0.00  0.00    +0.000 C 
ATOM     22  O   UNL     1      45.454   8.018  11.729  0.00  0.00    +0.000 OA
ATOM     23  H   UNL     1      47.827   5.932  11.648  0.00  0.00    +0.000 HD
BRANCH  21  24
ATOM     24  C   UNL     1      45.259   5.672  11.665  0.00  0.00    +0.000 A 
ATOM     25  C   UNL     1      44.605   5.277  12.825  0.00  0.00    +0.000 A 
ATOM     26  S   UNL     1      43.732   3.822  12.657  0.00  0.00    +0.000 S 
ATOM     27  C   UNL     1      44.238   3.640  11.043  0.00  0.00    +0.000 A 
ATOM     28  N   UNL     1      43.857   2.562  10.303  0.00  0.00    +0.000 NA
ATOM     29  C   UNL     1      44.334   2.540   9.106  0.00  0.00    +0.000 A 
ATOM     30  N   UNL     1      45.156   3.501   8.574  0.00  0.00    +0.000 N 
ATOM     31  C   UNL     1      45.548   4.618   9.273  0.00  0.00    +0.000 A 
ATOM     32  O   UNL     1      46.250   5.479   8.755  0.00  0.00    +0.000 OA
ATOM     33  C   UNL     1      45.046   4.686  10.631  0.00  0.00    +0.000 A 
ATOM     34  H   UNL     1      45.488   3.429   7.623  0.00  0.00    +0.000 HD
ENDBRANCH  21  24
ENDBRANCH  19  20
ENDBRANCH   4  19
TORSDOF 7
ENDMDL
MODEL 6
REMARK VINA RESULT:    -6.829      3.786      5.479
REMARK INTER + INTRA:         -10.500
REMARK INTER:                  -9.934
REMARK INTRA:                  -0.566
REMARK UNBOUND:                -0.876
REMARK  Name = 
REMARK  7 active torsions:
REMARK  status: ('A' for Active; 'I' for Inactive)
REMARK    1  A    between atoms: C_2  and  C_3
REMARK    2  A    between atoms: C_6  and  C_7
REMARK    3  A    between atoms: N_9  and  C_10
REMARK    4  A    between atoms: C_10  and  C_11
REMARK    5  A    between atoms: C_14  and  C_15
REMARK    6  A    between atoms: C_15  and  N_16
REMARK    7  A    between atoms: C_17  and  C_19
REMARK                            x       y       z     vdW  Elec       q    Type
REMARK                         _______ _______ _______ _____ _____    ______ ____
ROOT
ATOM      1  C   UNL     1      47.360   6.124  13.151  0.00  0.00    +0.000 A 
ATOM      2  C   UNL     1      46.893   4.853  13.511  0.00  0.00    +0.000 A 
ATOM      3  C   UNL     1      47.148   4.336  14.786  0.00  0.00    +0.000 A 
ATOM      4  C   UNL     1      47.856   5.088  15.733  0.00  0.00    +0.000 A 
ATOM      5  C   UNL     1      48.335   6.352  15.366  0.00  0.00    +0.000 A 
ATOM      6  C   UNL     1      48.079   6.871  14.093  0.00  0.00    +0.000 A 
ENDROOT
BRANCH   1   7
ATOM      7  C   UNL     1      47.095   6.682  11.779  0.00  0.00    +0.000 C 
BRANCH   7  10
ATOM      8  C   UNL     1      44.730   6.195  11.427  0.00  0.00    +0.000 C 
ATOM      9  O   UNL     1      44.402   6.987  12.306  0.00  0.00    +0.000 OA
ATOM     10  N   UNL     1      46.043   5.968  11.092  0.00  0.00    +0.000 N 
ATOM     11  H   UNL     1      46.293   5.247  10.429  0.00  0.00    +0.000 HD
BRANCH   8  15
ATOM     12  C   UNL     1      44.898   3.329  10.283  0.00  0.00    +0.000 C 
ATOM     13  C   UNL     1      43.796   3.023  11.300  0.00  0.00    +0.000 C 
ATOM     14  C   UNL     1      43.011   4.326  11.494  0.00  0.00    +0.000 C 
ATOM     15  C   UNL     1      43.709   5.381  10.632  0.00  0.00    +0.000 C 
ATOM     16  C   UNL     1      44.374   4.549   9.531  0.00  0.00    +0.000 C 
BRANCH  12  18
ATOM     17  N   UNL     1      45.368   1.162   8.605  0.00  0.00    +0.000 NA
ATOM     18  C   UNL     1      45.155   2.145   9.366  0.00  0.00    +0.000 C 
ENDBRANCH  12  18
ENDBRANCH   8  15
ENDBRANCH   7  10
ENDBRANCH   1   7
BRANCH   4  19
ATOM     19  C   UNL     1      48.127   4.545  17.114  0.00  0.00    +0.000 C 
BRANCH  19  20
ATOM     20  N   UNL     1      49.498   4.131  17.261  0.00  0.00    +0.000 N 
ATOM     21  C   UNL     1      50.166   4.292  18.449  0.00  0.00    +0.000 C 
ATOM     22  O   UNL     1      49.615   4.740  19.450  0.00  0.00    +0.000 OA
ATOM     23  H   UNL     1      50.031   3.990  16.408  0.00  0.00    +0.000 HD
BRANCH  21  24
ATOM     24  C   UNL     1      51.564   3.842  18.481  0.00  0.00    +0.000 A 
ATOM     25  C   UNL     1      52.546   4.674  19.002  0.00  0.00    +0.000 A 
ATOM     26  S   UNL     1      54.102   3.976  19.011  0.00  0.00    +0.000 S 
ATOM     27  C   UNL     1      53.528   2.557  18.269  0.00  0.00    +0.000 A 
ATOM     28  N   UNL     1      54.373   1.532  17.965  0.00  0.00    +0.000 NA
ATOM     29  C   UNL     1      53.807   0.530  17.383  0.00  0.00    +0.000 A 
ATOM     30  N   UNL     1      52.471   0.452  17.081  0.00  0.00    +0.000 N 
ATOM     31  C   UNL     1      51.578   1.449  17.390  0.00  0.00    +0.000 A 
ATOM     32  O   UNL     1      50.383   1.331  17.143  0.00  0.00    +0.000 OA
ATOM     33  C   UNL     1      52.164   2.606  18.037  0.00  0.00    +0.000 A 
ATOM     34  H   UNL     1      52.090  -0.368  16.633  0.00  0.00    +0.000 HD
ENDBRANCH  21  24
ENDBRANCH  19  20
ENDBRANCH   4  19
TORSDOF 7
ENDMDL
MODEL 7
REMARK VINA RESULT:    -6.676      4.630      9.151
REMARK INTER + INTRA:         -10.284
REMARK INTER:                  -9.140
REMARK INTRA:                  -1.144
REMARK UNBOUND:                -0.876
REMARK  Name = 
REMARK  7 active torsions:
REMARK  status: ('A' for Active; 'I' for Inactive)
REMARK    1  A    between atoms: C_2  and  C_3
REMARK    2  A    between atoms: C_6  and  C_7
REMARK    3  A    between atoms: N_9  and  C_10
REMARK    4  A    between atoms: C_10  and  C_11
REMARK    5  A    between atoms: C_14  and  C_15
REMARK    6  A    between atoms: C_15  and  N_16
REMARK    7  A    between atoms: C_17  and  C_19
REMARK                            x       y       z     vdW  Elec       q    Type
REMARK                         _______ _______ _______ _____ _____    ______ ____
ROOT
ATOM      1  C   UNL     1      51.427   3.451  18.061  0.00  0.00    +0.000 A 
ATOM      2  C   UNL     1      50.901   2.360  17.355  0.00  0.00    +0.000 A 
ATOM      3  C   UNL     1      49.543   2.315  17.021  0.00  0.00    +0.000 A 
ATOM      4  C   UNL     1      48.688   3.370  17.368  0.00  0.00    +0.000 A 
ATOM      5  C   UNL     1      49.212   4.452  18.087  0.00  0.00    +0.000 A 
ATOM      6  C   UNL     1      50.569   4.500  18.418  0.00  0.00    +0.000 A 
ENDROOT
BRANCH   1   7
ATOM      7  C   UNL     1      52.885   3.501  18.428  0.00  0.00    +0.000 C 
BRANCH   7  10
ATOM      8  C   UNL     1      54.619   4.852  17.367  0.00  0.00    +0.000 C 
ATOM      9  O   UNL     1      55.170   3.851  16.918  0.00  0.00    +0.000 OA
ATOM     10  N   UNL     1      53.480   4.784  18.133  0.00  0.00    +0.000 N 
ATOM     11  H   UNL     1      53.095   5.614  18.566  0.00  0.00    +0.000 HD
BRANCH   8  15
ATOM     12  C   UNL     1      54.411   6.679  14.884  0.00  0.00    +0.000 C 
ATOM     13  C   UNL     1      53.553   7.561  15.794  0.00  0.00    +0.000 C 
ATOM     14  C   UNL     1      54.053   7.323  17.224  0.00  0.00    +0.000 C 
ATOM     15  C   UNL     1      55.153   6.263  17.124  0.00  0.00    +0.000 C 
ATOM     16  C   UNL     1      55.680   6.437  15.696  0.00  0.00    +0.000 C 
BRANCH  12  18
ATOM     17  N   UNL     1      54.924   7.919  12.448  0.00  0.00    +0.000 NA
ATOM     18  C   UNL     1      54.691   7.357  13.553  0.00  0.00    +0.000 C 
ENDBRANCH  12  18
ENDBRANCH   8  15
ENDBRANCH   7  10
ENDBRANCH   1   7
BRANCH   4  19
ATOM     19  C   UNL     1      47.224   3.337  17.004  0.00  0.00    +0.000 C 
BRANCH  19  20
ATOM     20  N   UNL     1      46.897   4.352  16.035  0.00  0.00    +0.000 N 
ATOM     21  C   UNL     1      47.021   4.115  14.689  0.00  0.00    +0.000 C 
ATOM     22  O   UNL     1      47.359   3.020  14.249  0.00  0.00    +0.000 OA
ATOM     23  H   UNL     1      46.854   5.310  16.368  0.00  0.00    +0.000 HD
BRANCH  21  24
ATOM     24  C   UNL     1      46.668   5.225  13.795  0.00  0.00    +0.000 A 
ATOM     25  C   UNL     1      47.569   6.264  13.595  0.00  0.00    +0.000 A 
ATOM     26  S   UNL     1      47.022   7.440  12.487  0.00  0.00    +0.000 S 
ATOM     27  C   UNL     1      45.541   6.631  12.275  0.00  0.00    +0.000 A 
ATOM     28  N   UNL     1      44.578   7.131  11.451  0.00  0.00    +0.000 NA
ATOM     29  C   UNL     1      43.498   6.429  11.405  0.00  0.00    +0.000 A 
ATOM     30  N   UNL     1      43.290   5.266  12.103  0.00  0.00    +0.000 N 
ATOM     31  C   UNL     1      44.240   4.711  12.927  0.00  0.00    +0.000 A 
ATOM     32  O   UNL     1      44.038   3.649  13.505  0.00  0.00    +0.000 OA
ATOM     33  C   UNL     1      45.472   5.468  13.023  0.00  0.00    +0.000 A 
ATOM     34  H   UNL     1      42.422   4.758  12.014  0.00  0.00    +0.000 HD
ENDBRANCH  21  24
ENDBRANCH  19  20
ENDBRANCH   4  19
TORSDOF 7
ENDMDL
MODEL 8
REMARK VINA RESULT:    -6.598      5.317      8.903
REMARK INTER + INTRA:         -10.174
REMARK INTER:                  -8.882
REMARK INTRA:                  -1.292
REMARK UNBOUND:                -0.876
REMARK  Name = 
REMARK  7 active torsions:
REMARK  status: ('A' for Active; 'I' for Inactive)
REMARK    1  A    between atoms: C_2  and  C_3
REMARK    2  A    between atoms: C_6  and  C_7
REMARK    3  A    between atoms: N_9  and  C_10
REMARK    4  A    between atoms: C_10  and  C_11
REMARK    5  A    between atoms: C_14  and  C_15
REMARK    6  A    between atoms: C_15  and  N_16
REMARK    7  A    between atoms: C_17  and  C_19
REMARK                            x       y       z     vdW  Elec       q    Type
REMARK                         _______ _______ _______ _____ _____    ______ ____
ROOT
ATOM      1  C   UNL     1      50.573   8.463  13.219  0.00  0.00    +0.000 A 
ATOM      2  C   UNL     1      49.564   9.105  13.950  0.00  0.00    +0.000 A 
ATOM      3  C   UNL     1      48.231   9.042  13.530  0.00  0.00    +0.000 A 
ATOM      4  C   UNL     1      47.877   8.317  12.385  0.00  0.00    +0.000 A 
ATOM      5  C   UNL     1      48.889   7.689  11.647  0.00  0.00    +0.000 A 
ATOM      6  C   UNL     1      50.221   7.749  12.066  0.00  0.00    +0.000 A 
ENDROOT
BRANCH   1   7
ATOM      7  C   UNL     1      52.009   8.534  13.662  0.00  0.00    +0.000 C 
BRANCH   7  10
ATOM      8  C   UNL     1      53.578   8.685  11.799  0.00  0.00    +0.000 C 
ATOM      9  O   UNL     1      53.445   9.905  11.743  0.00  0.00    +0.000 OA
ATOM     10  N   UNL     1      52.906   7.913  12.714  0.00  0.00    +0.000 N 
ATOM     11  H   UNL     1      52.962   6.903  12.683  0.00  0.00    +0.000 HD
BRANCH   8  15
ATOM     12  C   UNL     1      53.059   7.574   8.963  0.00  0.00    +0.000 C 
ATOM     13  C   UNL     1      54.100   8.610   8.533  0.00  0.00    +0.000 C 
ATOM     14  C   UNL     1      55.042   8.799   9.727  0.00  0.00    +0.000 C 
ATOM     15  C   UNL     1      54.496   7.914  10.851  0.00  0.00    +0.000 C 
ATOM     16  C   UNL     1      53.743   6.814  10.096  0.00  0.00    +0.000 C 
BRANCH  12  18
ATOM     17  N   UNL     1      52.335   5.916   6.851  0.00  0.00    +0.000 NA
ATOM     18  C   UNL     1      52.663   6.668   7.809  0.00  0.00    +0.000 C 
ENDBRANCH  12  18
ENDBRANCH   8  15
ENDBRANCH   7  10
ENDBRANCH   1   7
BRANCH   4  19
ATOM     19  C   UNL     1      46.441   8.233  11.929  0.00  0.00    +0.000 C 
BRANCH  19  20
ATOM     20  N   UNL     1      46.045   6.871  11.676  0.00  0.00    +0.000 N 
ATOM     21  C   UNL     1      44.732   6.543  11.450  0.00  0.00    +0.000 C 
ATOM     22  O   UNL     1      43.849   7.394  11.398  0.00  0.00    +0.000 OA
ATOM     23  H   UNL     1      46.698   6.143  11.950  0.00  0.00    +0.000 HD
BRANCH  21  24
ATOM     24  C   UNL     1      44.443   5.123  11.213  0.00  0.00    +0.000 A 
ATOM     25  C   UNL     1      43.679   4.411  12.129  0.00  0.00    +0.000 A 
ATOM     26  S   UNL     1      43.396   2.793  11.674  0.00  0.00    +0.000 S 
ATOM     27  C   UNL     1      44.329   2.970  10.263  0.00  0.00    +0.000 A 
ATOM     28  N   UNL     1      44.519   1.924   9.410  0.00  0.00    +0.000 NA
ATOM     29  C   UNL     1      45.268   2.193   8.395  0.00  0.00    +0.000 A 
ATOM     30  N   UNL     1      45.842   3.414   8.148  0.00  0.00    +0.000 N 
ATOM     31  C   UNL     1      45.660   4.503   8.966  0.00  0.00    +0.000 A 
ATOM     32  O   UNL     1      46.153   5.592   8.695  0.00  0.00    +0.000 OA
ATOM     33  C   UNL     1      44.832   4.252  10.130  0.00  0.00    +0.000 A 
ATOM     34  H   UNL     1      46.411   3.561   7.327  0.00  0.00    +0.000 HD
ENDBRANCH  21  24
ENDBRANCH  19  20
ENDBRANCH   4  19
TORSDOF 7
ENDMDL
MODEL 9
REMARK VINA RESULT:    -6.457      4.556      7.173
REMARK INTER + INTRA:          -9.975
REMARK INTER:                  -8.592
REMARK INTRA:                  -1.383
REMARK UNBOUND:                -0.876
REMARK  Name = 
REMARK  7 active torsions:
REMARK  status: ('A' for Active; 'I' for Inactive)
REMARK    1  A    between atoms: C_2  and  C_3
REMARK    2  A    between atoms: C_6  and  C_7
REMARK    3  A    between atoms: N_9  and  C_10
REMARK    4  A    between atoms: C_10  and  C_11
REMARK    5  A    between atoms: C_14  and  C_15
REMARK    6  A    between atoms: C_15  and  N_16
REMARK    7  A    between atoms: C_17  and  C_19
REMARK                            x       y       z     vdW  Elec       q    Type
REMARK                         _______ _______ _______ _____ _____    ______ ____
ROOT
ATOM      1  C   UNL     1      47.396   4.363  15.785  0.00  0.00    +0.000 A 
ATOM      2  C   UNL     1      48.190   5.517  15.837  0.00  0.00    +0.000 A 
ATOM      3  C   UNL     1      48.957   5.804  16.972  0.00  0.00    +0.000 A 
ATOM      4  C   UNL     1      48.961   4.932  18.069  0.00  0.00    +0.000 A 
ATOM      5  C   UNL     1      48.154   3.787  18.021  0.00  0.00    +0.000 A 
ATOM      6  C   UNL     1      47.390   3.498  16.886  0.00  0.00    +0.000 A 
ENDROOT
BRANCH   1   7
ATOM      7  C   UNL     1      46.565   4.055  14.569  0.00  0.00    +0.000 C 
BRANCH   7  10
ATOM      8  C   UNL     1      45.799   5.385  12.672  0.00  0.00    +0.000 C 
ATOM      9  O   UNL     1      44.641   5.006  12.832  0.00  0.00    +0.000 OA
ATOM     10  N   UNL     1      46.828   4.966  13.480  0.00  0.00    +0.000 N 
ATOM     11  H   UNL     1      47.786   5.220  13.275  0.00  0.00    +0.000 HD
BRANCH   8  15
ATOM     12  C   UNL     1      45.522   8.456  12.470  0.00  0.00    +0.000 C 
ATOM     13  C   UNL     1      47.052   8.442  12.505  0.00  0.00    +0.000 C 
ATOM     14  C   UNL     1      47.488   7.109  11.884  0.00  0.00    +0.000 C 
ATOM     15  C   UNL     1      46.202   6.347  11.556  0.00  0.00    +0.000 C 
ATOM     16  C   UNL     1      45.171   7.464  11.364  0.00  0.00    +0.000 C 
BRANCH  12  18
ATOM     17  N   UNL     1      44.536  11.007  11.970  0.00  0.00    +0.000 NA
ATOM     18  C   UNL     1      44.983   9.849  12.196  0.00  0.00    +0.000 C 
ENDBRANCH  12  18
ENDBRANCH   8  15
ENDBRANCH   7  10
ENDBRANCH   1   7
BRANCH   4  19
ATOM     19  C   UNL     1      49.792   5.224  19.293  0.00  0.00    +0.000 C 
BRANCH  19  20
ATOM     20  N   UNL     1      50.897   4.308  19.415  0.00  0.00    +0.000 N 
ATOM     21  C   UNL     1      52.139   4.625  18.924  0.00  0.00    +0.000 C 
ATOM     22  O   UNL     1      52.379   5.716  18.413  0.00  0.00    +0.000 OA
ATOM     23  H   UNL     1      50.672   3.337  19.604  0.00  0.00    +0.000 HD
BRANCH  21  24
ATOM     24  C   UNL     1      53.188   3.612  19.095  0.00  0.00    +0.000 A 
ATOM     25  C   UNL     1      54.318   3.907  19.847  0.00  0.00    +0.000 A 
ATOM     26  S   UNL     1      55.407   2.602  19.987  0.00  0.00    +0.000 S 
ATOM     27  C   UNL     1      54.433   1.613  19.004  0.00  0.00    +0.000 A 
ATOM     28  N   UNL     1      54.809   0.340  18.697  0.00  0.00    +0.000 NA
ATOM     29  C   UNL     1      53.989  -0.286  17.923  0.00  0.00    +0.000 A 
ATOM     30  N   UNL     1      52.822   0.240  17.430  0.00  0.00    +0.000 N 
ATOM     31  C   UNL     1      52.390   1.509  17.731  0.00  0.00    +0.000 A 
ATOM     32  O   UNL     1      51.322   1.935  17.308  0.00  0.00    +0.000 OA
ATOM     33  C   UNL     1      53.283   2.261  18.591  0.00  0.00    +0.000 A 
ATOM     34  H   UNL     1      52.218  -0.309  16.836  0.00  0.00    +0.000 HD
ENDBRANCH  21  24
ENDBRANCH  19  20
ENDBRANCH   4  19
TORSDOF 7
ENDMDL
