MODEL 1
REMARK VINA RESULT:    -8.359      0.000      0.000
REMARK INTER + INTRA:         -12.646
REMARK INTER:                 -11.779
REMARK INTRA:                  -0.867
REMARK UNBOUND:                -0.867
REMARK  Name = 
REMARK  7 active torsions:
REMARK  status: ('A' for Active; 'I' for Inactive)
REMARK    1  A    between atoms: C_2  and  C_25
REMARK    2  A    between atoms: N_3  and  C_4
REMARK    3  A    between atoms: C_4  and  C_5
REMARK    4  A    between atoms: C_8  and  C_9
REMARK    5  A    between atoms: C_9  and  O_10
REMARK    6  A    between atoms: O_10  and  C_11
REMARK    7  A    between atoms: C_11  and  C_13
REMARK                            x       y       z     vdW  Elec       q    Type
REMARK                         _______ _______ _______ _____ _____    ______ ____
ROOT
ATOM      1  C   UNL     1      45.739   6.014  11.876  0.00  0.00    +0.000 A 
ATOM      2  C   UNL     1      45.734   5.000  12.843  0.00  0.00    +0.000 A 
ATOM      3  C   UNL     1      46.563   5.082  13.966  0.00  0.00    +0.000 A 
ATOM      4  C   UNL     1      47.402   6.187  14.152  0.00  0.00    +0.000 A 
ATOM      5  C   UNL     1      47.387   7.216  13.201  0.00  0.00    +0.000 A 
ATOM      6  C   UNL     1      46.560   7.132  12.076  0.00  0.00    +0.000 A 
ENDROOT
BRANCH   1   7
ATOM      7  C   UNL     1      44.885   5.890  10.642  0.00  0.00    +0.000 C 
BRANCH   7  10
ATOM      8  O   UNL     1      44.226   3.261  10.057  0.00  0.00    +0.000 OA
ATOM      9  C   UNL     1      45.116   3.795   9.402  0.00  0.00    +0.000 C 
ATOM     10  N   UNL     1      45.517   5.092   9.621  0.00  0.00    +0.000 N 
ATOM     11  H   UNL     1      46.183   5.530   9.002  0.00  0.00    +0.000 HD
BRANCH   9  12
ATOM     12  C   UNL     1      45.811   3.096   8.340  0.00  0.00    +0.000 A 
ATOM     13  C   UNL     1      46.372   3.526   7.148  0.00  0.00    +0.000 A 
ATOM     14  C   UNL     1      46.947   2.404   6.506  0.00  0.00    +0.000 A 
ATOM     15 CL   UNL     1      47.764   2.443   5.021  0.00  0.00    +0.000 Cl
ATOM     16  C   UNL     1      46.723   1.309   7.303  0.00  0.00    +0.000 A 
ATOM     17  N   UNL     1      46.039   1.734   8.409  0.00  0.00    +0.000 N 
ATOM     18  H   UNL     1      45.739   1.154   9.185  0.00  0.00    +0.000 HD
ENDBRANCH   9  12
ENDBRANCH   7  10
ENDBRANCH   1   7
BRANCH   4  19
ATOM     19  C   UNL     1      48.327   6.256  15.345  0.00  0.00    +0.000 C 
BRANCH  19  20
ATOM     20  O   UNL     1      48.689   4.938  15.775  0.00  0.00    +0.000 OA
BRANCH  20  21
ATOM     21  C   UNL     1      48.686   4.750  17.121  0.00  0.00    +0.000 C 
ATOM     22  O   UNL     1      47.686   4.769  17.829  0.00  0.00    +0.000 OA
BRANCH  21  23
ATOM     23  C   UNL     1      50.009   4.433  17.649  0.00  0.00    +0.000 A 
ATOM     24  C   UNL     1      50.763   5.393  18.303  0.00  0.00    +0.000 A 
ATOM     25  S   UNL     1      52.262   4.799  18.865  0.00  0.00    +0.000 S 
ATOM     26  C   UNL     1      51.963   3.257  18.205  0.00  0.00    +0.000 A 
ATOM     27  N   UNL     1      52.885   2.263  18.304  0.00  0.00    +0.000 NA
ATOM     28  C   UNL     1      52.535   1.158  17.735  0.00  0.00    +0.000 A 
ATOM     29  N   UNL     1      51.346   0.955  17.080  0.00  0.00    +0.000 N 
ATOM     30  C   UNL     1      50.396   1.940  16.922  0.00  0.00    +0.000 A 
ATOM     31  O   UNL     1      49.391   1.748  16.247  0.00  0.00    +0.000 OA
ATOM     32  C   UNL     1      50.733   3.192  17.576  0.00  0.00    +0.000 A 
ATOM     33  H   UNL     1      51.150   0.075  16.628  0.00  0.00    +0.000 HD
ENDBRANCH  21  23
ENDBRANCH  20  21
ENDBRANCH  19  20
ENDBRANCH   4  19
TORSDOF 7
ENDMDL
MODEL 2
REMARK VINA RESULT:    -7.884      2.347      2.820
REMARK INTER + INTRA:         -11.977
REMARK INTER:                 -10.851
REMARK INTRA:                  -1.126
REMARK UNBOUND:                -0.867
REMARK  Name = 
REMARK  7 active torsions:
REMARK  status: ('A' for Active; 'I' for Inactive)
REMARK    1  A    between atoms: C_2  and  C_25
REMARK    2  A    between atoms: N_3  and  C_4
REMARK    3  A    between atoms: C_4  and  C_5
REMARK    4  A    between atoms: C_8  and  C_9
REMARK    5  A    between atoms: C_9  and  O_10
REMARK    6  A    between atoms: O_10  and  C_11
REMARK    7  A    between atoms: C_11  and  C_13
REMARK                            x       y       z     vdW  Elec       q    Type
REMARK                         _______ _______ _______ _____ _____    ______ ____
ROOT
ATOM      1  C   UNL     1      45.650   6.775  11.499  0.00  0.00    +0.000 A 
ATOM      2  C   UNL     1      45.162   7.704  12.427  0.00  0.00    +0.000 A 
ATOM      3  C   UNL     1      46.039   8.424  13.244  0.00  0.00    +0.000 A 
ATOM      4  C   UNL     1      47.423   8.239  13.139  0.00  0.00    +0.000 A 
ATOM      5  C   UNL     1      47.914   7.332  12.191  0.00  0.00    +0.000 A 
ATOM      6  C   UNL     1      47.036   6.610  11.375  0.00  0.00    +0.000 A 
ENDROOT
BRANCH   1   7
ATOM      7  C   UNL     1      44.695   5.963  10.663  0.00  0.00    +0.000 C 
BRANCH   7  10
ATOM      8  O   UNL     1      43.941   3.390   9.958  0.00  0.00    +0.000 OA
ATOM      9  C   UNL     1      44.926   3.876   9.410  0.00  0.00    +0.000 C 
ATOM     10  N   UNL     1      45.381   5.141   9.697  0.00  0.00    +0.000 N 
ATOM     11  H   UNL     1      46.134   5.546   9.161  0.00  0.00    +0.000 HD
BRANCH   9  12
ATOM     12  C   UNL     1      45.684   3.149   8.413  0.00  0.00    +0.000 A 
ATOM     13  C   UNL     1      46.267   3.536   7.217  0.00  0.00    +0.000 A 
ATOM     14  C   UNL     1      46.909   2.406   6.657  0.00  0.00    +0.000 A 
ATOM     15 CL   UNL     1      47.774   2.399   5.199  0.00  0.00    +0.000 Cl
ATOM     16  C   UNL     1      46.703   1.348   7.508  0.00  0.00    +0.000 A 
ATOM     17  N   UNL     1      45.965   1.804   8.566  0.00  0.00    +0.000 N 
ATOM     18  H   UNL     1      45.662   1.256   9.364  0.00  0.00    +0.000 HD
ENDBRANCH   9  12
ENDBRANCH   7  10
ENDBRANCH   1   7
BRANCH   4  19
ATOM     19  C   UNL     1      48.368   8.987  14.050  0.00  0.00    +0.000 C 
BRANCH  19  20
ATOM     20  O   UNL     1      48.482   8.318  15.311  0.00  0.00    +0.000 OA
BRANCH  20  21
ATOM     21  C   UNL     1      49.522   7.450  15.412  0.00  0.00    +0.000 C 
ATOM     22  O   UNL     1      50.503   7.443  14.676  0.00  0.00    +0.000 OA
BRANCH  21  23
ATOM     23  C   UNL     1      49.403   6.555  16.558  0.00  0.00    +0.000 A 
ATOM     24  C   UNL     1      50.148   6.765  17.706  0.00  0.00    +0.000 A 
ATOM     25  S   UNL     1      49.829   5.619  18.931  0.00  0.00    +0.000 S 
ATOM     26  C   UNL     1      48.724   4.783  17.940  0.00  0.00    +0.000 A 
ATOM     27  N   UNL     1      48.103   3.657  18.380  0.00  0.00    +0.000 NA
ATOM     28  C   UNL     1      47.314   3.114  17.514  0.00  0.00    +0.000 A 
ATOM     29  N   UNL     1      47.086   3.598  16.250  0.00  0.00    +0.000 N 
ATOM     30  C   UNL     1      47.718   4.713  15.745  0.00  0.00    +0.000 A 
ATOM     31  O   UNL     1      47.562   5.056  14.578  0.00  0.00    +0.000 OA
ATOM     32  C   UNL     1      48.590   5.376  16.697  0.00  0.00    +0.000 A 
ATOM     33  H   UNL     1      46.482   3.105  15.610  0.00  0.00    +0.000 HD
ENDBRANCH  21  23
ENDBRANCH  20  21
ENDBRANCH  19  20
ENDBRANCH   4  19
TORSDOF 7
ENDMDL
MODEL 3
REMARK VINA RESULT:    -7.879      1.361      1.708
REMARK INTER + INTRA:         -11.969
REMARK INTER:                 -11.293
REMARK INTRA:                  -0.677
REMARK UNBOUND:                -0.867
REMARK  Name = 
REMARK  7 active torsions:
REMARK  status: ('A' for Active; 'I' for Inactive)
REMARK    1  A    between atoms: C_2  and  C_25
REMARK    2  A    between atoms: N_3  and  C_4
REMARK    3  A    between atoms: C_4  and  C_5
REMARK    4  A    between atoms: C_8  and  C_9
REMARK    5  A    between atoms: C_9  and  O_10
REMARK    6  A    between atoms: O_10  and  C_11
REMARK    7  A    between atoms: C_11  and  C_13
REMARK                            x       y       z     vdW  Elec       q    Type
REMARK                         _______ _______ _______ _____ _____    ______ ____
ROOT
ATOM      1  C   UNL     1      45.660   5.646  11.720  0.00  0.00    +0.000 A 
ATOM      2  C   UNL     1      45.553   4.519  12.546  0.00  0.00    +0.000 A 
ATOM      3  C   UNL     1      46.259   4.450  13.751  0.00  0.00    +0.000 A 
ATOM      4  C   UNL     1      47.075   5.511  14.160  0.00  0.00    +0.000 A 
ATOM      5  C   UNL     1      47.159   6.651  13.349  0.00  0.00    +0.000 A 
ATOM      6  C   UNL     1      46.455   6.719  12.142  0.00  0.00    +0.000 A 
ENDROOT
BRANCH   1   7
ATOM      7  C   UNL     1      44.940   5.688  10.397  0.00  0.00    +0.000 C 
BRANCH   7  10
ATOM      8  O   UNL     1      44.214   3.125   9.628  0.00  0.00    +0.000 OA
ATOM      9  C   UNL     1      45.175   3.647   9.070  0.00  0.00    +0.000 C 
ATOM     10  N   UNL     1      45.614   4.911   9.386  0.00  0.00    +0.000 N 
ATOM     11  H   UNL     1      46.344   5.347   8.844  0.00  0.00    +0.000 HD
BRANCH   9  12
ATOM     12  C   UNL     1      45.918   2.968   8.029  0.00  0.00    +0.000 A 
ATOM     13  C   UNL     1      46.453   3.402   6.827  0.00  0.00    +0.000 A 
ATOM     14  C   UNL     1      47.104   2.305   6.216  0.00  0.00    +0.000 A 
ATOM     15 CL   UNL     1      47.921   2.360   4.732  0.00  0.00    +0.000 Cl
ATOM     16  C   UNL     1      46.952   1.219   7.042  0.00  0.00    +0.000 A 
ATOM     17  N   UNL     1      46.236   1.626   8.135  0.00  0.00    +0.000 N 
ATOM     18  H   UNL     1      45.973   1.049   8.926  0.00  0.00    +0.000 HD
ENDBRANCH   9  12
ENDBRANCH   7  10
ENDBRANCH   1   7
BRANCH   4  19
ATOM     19  C   UNL     1      47.869   5.419  15.442  0.00  0.00    +0.000 C 
BRANCH  19  20
ATOM     20  O   UNL     1      47.970   4.056  15.872  0.00  0.00    +0.000 OA
BRANCH  20  21
ATOM     21  C   UNL     1      47.485   3.807  17.117  0.00  0.00    +0.000 C 
ATOM     22  O   UNL     1      46.512   3.102  17.361  0.00  0.00    +0.000 OA
BRANCH  21  23
ATOM     23  C   UNL     1      48.299   4.404  18.170  0.00  0.00    +0.000 A 
ATOM     24  C   UNL     1      47.777   5.374  19.009  0.00  0.00    +0.000 A 
ATOM     25  S   UNL     1      48.890   5.911  20.186  0.00  0.00    +0.000 S 
ATOM     26  C   UNL     1      50.115   4.898  19.573  0.00  0.00    +0.000 A 
ATOM     27  N   UNL     1      51.360   4.896  20.118  0.00  0.00    +0.000 NA
ATOM     28  C   UNL     1      52.192   4.099  19.536  0.00  0.00    +0.000 A 
ATOM     29  N   UNL     1      51.891   3.301  18.461  0.00  0.00    +0.000 N 
ATOM     30  C   UNL     1      50.656   3.293  17.850  0.00  0.00    +0.000 A 
ATOM     31  O   UNL     1      50.456   2.640  16.832  0.00  0.00    +0.000 OA
ATOM     32  C   UNL     1      49.677   4.151  18.494  0.00  0.00    +0.000 A 
ATOM     33  H   UNL     1      52.599   2.725  18.031  0.00  0.00    +0.000 HD
ENDBRANCH  21  23
ENDBRANCH  20  21
ENDBRANCH  19  20
ENDBRANCH   4  19
TORSDOF 7
ENDMDL
MODEL 4
REMARK VINA RESULT:    -7.392      4.237      9.041
REMARK INTER + INTRA:         -11.283
REMARK INTER:                 -10.431
REMARK INTRA:                  -0.852
REMARK UNBOUND:                -0.867
REMARK  Name = 
REMARK  7 active torsions:
REMARK  status: ('A' for Active; 'I' for Inactive)
REMARK    1  A    between atoms: C_2  and  C_25
REMARK    2  A    between atoms: N_3  and  C_4
REMARK    3  A    between atoms: C_4  and  C_5
REMARK    4  A    between atoms: C_8  and  C_9
REMARK    5  A    between atoms: C_9  and  O_10
REMARK    6  A    between atoms: O_10  and  C_11
REMARK    7  A    between atoms: C_11  and  C_13
REMARK                            x       y       z     vdW  Elec       q    Type
REMARK                         _______ _______ _______ _____ _____    ______ ____
ROOT
ATOM      1  C   UNL     1      48.325   5.011  16.584  0.00  0.00    +0.000 A 
ATOM      2  C   UNL     1      48.993   6.240  16.503  0.00  0.00    +0.000 A 
ATOM      3  C   UNL     1      48.898   7.028  15.352  0.00  0.00    +0.000 A 
ATOM      4  C   UNL     1      48.120   6.610  14.265  0.00  0.00    +0.000 A 
ATOM      5  C   UNL     1      47.428   5.395  14.357  0.00  0.00    +0.000 A 
ATOM      6  C   UNL     1      47.526   4.606  15.507  0.00  0.00    +0.000 A 
ENDROOT
BRANCH   1   7
ATOM      7  C   UNL     1      48.480   4.143  17.805  0.00  0.00    +0.000 C 
BRANCH   7  10
ATOM      8  O   UNL     1      49.360   1.757  16.699  0.00  0.00    +0.000 OA
ATOM      9  C   UNL     1      50.161   2.427  17.345  0.00  0.00    +0.000 C 
ATOM     10  N   UNL     1      49.817   3.620  17.935  0.00  0.00    +0.000 N 
ATOM     11  H   UNL     1      50.522   4.192  18.376  0.00  0.00    +0.000 HD
BRANCH   9  12
ATOM     12  C   UNL     1      51.535   2.010  17.529  0.00  0.00    +0.000 A 
ATOM     13  C   UNL     1      52.632   2.632  18.105  0.00  0.00    +0.000 A 
ATOM     14  C   UNL     1      53.729   1.742  18.030  0.00  0.00    +0.000 A 
ATOM     15 CL   UNL     1      55.285   2.060  18.622  0.00  0.00    +0.000 Cl
ATOM     16  C   UNL     1      53.294   0.599  17.405  0.00  0.00    +0.000 A 
ATOM     17  N   UNL     1      51.969   0.767  17.107  0.00  0.00    +0.000 N 
ATOM     18  H   UNL     1      51.369   0.089  16.652  0.00  0.00    +0.000 HD
ENDBRANCH   9  12
ENDBRANCH   7  10
ENDBRANCH   1   7
BRANCH   4  19
ATOM     19  C   UNL     1      48.050   7.443  13.007  0.00  0.00    +0.000 C 
BRANCH  19  20
ATOM     20  O   UNL     1      47.570   6.654  11.911  0.00  0.00    +0.000 OA
BRANCH  20  21
ATOM     21  C   UNL     1      46.261   6.840  11.596  0.00  0.00    +0.000 C 
ATOM     22  O   UNL     1      45.626   7.864  11.820  0.00  0.00    +0.000 OA
BRANCH  21  23
ATOM     23  C   UNL     1      45.688   5.709  10.875  0.00  0.00    +0.000 A 
ATOM     24  C   UNL     1      45.900   5.551   9.515  0.00  0.00    +0.000 A 
ATOM     25  S   UNL     1      45.165   4.147   8.881  0.00  0.00    +0.000 S 
ATOM     26  C   UNL     1      44.502   3.740  10.397  0.00  0.00    +0.000 A 
ATOM     27  N   UNL     1      43.716   2.642  10.545  0.00  0.00    +0.000 NA
ATOM     28  C   UNL     1      43.262   2.472  11.742  0.00  0.00    +0.000 A 
ATOM     29  N   UNL     1      43.526   3.299  12.805  0.00  0.00    +0.000 N 
ATOM     30  C   UNL     1      44.287   4.443  12.698  0.00  0.00    +0.000 A 
ATOM     31  O   UNL     1      44.419   5.207  13.648  0.00  0.00    +0.000 OA
ATOM     32  C   UNL     1      44.847   4.655  11.376  0.00  0.00    +0.000 A 
ATOM     33  H   UNL     1      43.111   3.127  13.708  0.00  0.00    +0.000 HD
ENDBRANCH  21  23
ENDBRANCH  20  21
ENDBRANCH  19  20
ENDBRANCH   4  19
TORSDOF 7
ENDMDL
MODEL 5
REMARK VINA RESULT:    -7.358      1.748      2.272
REMARK INTER + INTRA:         -11.235
REMARK INTER:                 -10.216
REMARK INTRA:                  -1.020
REMARK UNBOUND:                -0.867
REMARK  Name = 
REMARK  7 active torsions:
REMARK  status: ('A' for Active; 'I' for Inactive)
REMARK    1  A    between atoms: C_2  and  C_25
REMARK    2  A    between atoms: N_3  and  C_4
REMARK    3  A    between atoms: C_4  and  C_5
REMARK    4  A    between atoms: C_8  and  C_9
REMARK    5  A    between atoms: C_9  and  O_10
REMARK    6  A    between atoms: O_10  and  C_11
REMARK    7  A    between atoms: C_11  and  C_13
REMARK                            x       y       z     vdW  Elec       q    Type
REMARK                         _______ _______ _______ _____ _____    ______ ____
ROOT
ATOM      1  C   UNL     1      45.584   6.559  11.949  0.00  0.00    +0.000 A 
ATOM      2  C   UNL     1      45.561   7.930  12.237  0.00  0.00    +0.000 A 
ATOM      3  C   UNL     1      46.441   8.476  13.176  0.00  0.00    +0.000 A 
ATOM      4  C   UNL     1      47.371   7.664  13.836  0.00  0.00    +0.000 A 
ATOM      5  C   UNL     1      47.415   6.297  13.528  0.00  0.00    +0.000 A 
ATOM      6  C   UNL     1      46.533   5.751  12.590  0.00  0.00    +0.000 A 
ENDROOT
BRANCH   1   7
ATOM      7  C   UNL     1      44.595   5.971  10.977  0.00  0.00    +0.000 C 
BRANCH   7  10
ATOM      8  O   UNL     1      44.026   3.303  10.478  0.00  0.00    +0.000 OA
ATOM      9  C   UNL     1      44.881   3.852   9.790  0.00  0.00    +0.000 C 
ATOM     10  N   UNL     1      45.237   5.168   9.966  0.00  0.00    +0.000 N 
ATOM     11  H   UNL     1      45.872   5.614   9.322  0.00  0.00    +0.000 HD
BRANCH   9  12
ATOM     12  C   UNL     1      45.581   3.150   8.734  0.00  0.00    +0.000 A 
ATOM     13  C   UNL     1      46.194   3.584   7.569  0.00  0.00    +0.000 A 
ATOM     14  C   UNL     1      46.745   2.455   6.918  0.00  0.00    +0.000 A 
ATOM     15 CL   UNL     1      47.608   2.496   5.460  0.00  0.00    +0.000 Cl
ATOM     16  C   UNL     1      46.456   1.352   7.683  0.00  0.00    +0.000 A 
ATOM     17  N   UNL     1      45.755   1.779   8.778  0.00  0.00    +0.000 N 
ATOM     18  H   UNL     1      45.409   1.195   9.531  0.00  0.00    +0.000 HD
ENDBRANCH   9  12
ENDBRANCH   7  10
ENDBRANCH   1   7
BRANCH   4  19
ATOM     19  C   UNL     1      48.294   8.246  14.881  0.00  0.00    +0.000 C 
BRANCH  19  20
ATOM     20  O   UNL     1      49.145   7.229  15.421  0.00  0.00    +0.000 OA
BRANCH  20  21
ATOM     21  C   UNL     1      48.883   6.881  16.708  0.00  0.00    +0.000 C 
ATOM     22  O   UNL     1      48.621   7.671  17.607  0.00  0.00    +0.000 OA
BRANCH  21  23
ATOM     23  C   UNL     1      48.861   5.437  16.909  0.00  0.00    +0.000 A 
ATOM     24  C   UNL     1      47.668   4.732  16.881  0.00  0.00    +0.000 A 
ATOM     25  S   UNL     1      47.876   3.053  17.108  0.00  0.00    +0.000 S 
ATOM     26  C   UNL     1      49.560   3.230  17.301  0.00  0.00    +0.000 A 
ATOM     27  N   UNL     1      50.351   2.156  17.564  0.00  0.00    +0.000 NA
ATOM     28  C   UNL     1      51.601   2.443  17.713  0.00  0.00    +0.000 A 
ATOM     29  N   UNL     1      52.133   3.704  17.617  0.00  0.00    +0.000 N 
ATOM     30  C   UNL     1      51.369   4.828  17.388  0.00  0.00    +0.000 A 
ATOM     31  O   UNL     1      51.868   5.948  17.407  0.00  0.00    +0.000 OA
ATOM     32  C   UNL     1      49.960   4.549  17.181  0.00  0.00    +0.000 A 
ATOM     33  H   UNL     1      53.116   3.863  17.777  0.00  0.00    +0.000 HD
ENDBRANCH  21  23
ENDBRANCH  20  21
ENDBRANCH  19  20
ENDBRANCH   4  19
TORSDOF 7
ENDMDL
MODEL 6
REMARK VINA RESULT:    -7.010      2.151      2.799
REMARK INTER + INTRA:         -10.746
REMARK INTER:                  -9.911
REMARK INTRA:                  -0.835
REMARK UNBOUND:                -0.867
REMARK  Name = 
REMARK  7 active torsions:
REMARK  status: ('A' for Active; 'I' for Inactive)
REMARK    1  A    between atoms: C_2  and  C_25
REMARK    2  A    between atoms: N_3  and  C_4
REMARK    3  A    between atoms: C_4  and  C_5
REMARK    4  A    between atoms: C_8  and  C_9
REMARK    5  A    between atoms: C_9  and  O_10
REMARK    6  A    between atoms: O_10  and  C_11
REMARK    7  A    between atoms: C_11  and  C_13
REMARK                            x       y       z     vdW  Elec       q    Type
REMARK                         _______ _______ _______ _____ _____    ______ ____
ROOT
ATOM      1  C   UNL     1      45.482   5.634  11.530  0.00  0.00    +0.000 A 
ATOM      2  C   UNL     1      46.206   6.813  11.312  0.00  0.00    +0.000 A 
ATOM      3  C   UNL     1      47.038   7.333  12.308  0.00  0.00    +0.000 A 
ATOM      4  C   UNL     1      47.172   6.677  13.537  0.00  0.00    +0.000 A 
ATOM      5  C   UNL     1      46.470   5.482  13.746  0.00  0.00    +0.000 A 
ATOM      6  C   UNL     1      45.636   4.963  12.750  0.00  0.00    +0.000 A 
ENDROOT
BRANCH   1   7
ATOM      7  C   UNL     1      44.545   5.112  10.472  0.00  0.00    +0.000 C 
BRANCH   7  10
ATOM      8  O   UNL     1      44.727   2.366  10.136  0.00  0.00    +0.000 OA
ATOM      9  C   UNL     1      45.278   3.088   9.311  0.00  0.00    +0.000 C 
ATOM     10  N   UNL     1      45.248   4.460   9.395  0.00  0.00    +0.000 N 
ATOM     11  H   UNL     1      45.628   5.025   8.650  0.00  0.00    +0.000 HD
BRANCH   9  12
ATOM     12  C   UNL     1      46.000   2.546   8.179  0.00  0.00    +0.000 A 
ATOM     13  C   UNL     1      46.500   3.126   7.024  0.00  0.00    +0.000 A 
ATOM     14  C   UNL     1      47.144   2.116   6.271  0.00  0.00    +0.000 A 
ATOM     15 CL   UNL     1      47.923   2.356   4.784  0.00  0.00    +0.000 Cl
ATOM     16  C   UNL     1      47.024   0.939   6.966  0.00  0.00    +0.000 A 
ATOM     17  N   UNL     1      46.333   1.206   8.117  0.00  0.00    +0.000 N 
ATOM     18  H   UNL     1      46.096   0.536   8.841  0.00  0.00    +0.000 HD
ENDBRANCH   9  12
ENDBRANCH   7  10
ENDBRANCH   1   7
BRANCH   4  19
ATOM     19  C   UNL     1      48.039   7.261  14.628  0.00  0.00    +0.000 C 
BRANCH  19  20
ATOM     20  O   UNL     1      49.092   6.352  14.972  0.00  0.00    +0.000 OA
BRANCH  20  21
ATOM     21  C   UNL     1      50.035   6.853  15.812  0.00  0.00    +0.000 C 
ATOM     22  O   UNL     1      51.144   7.244  15.466  0.00  0.00    +0.000 OA
BRANCH  21  23
ATOM     23  C   UNL     1      49.564   6.962  17.188  0.00  0.00    +0.000 A 
ATOM     24  C   UNL     1      49.326   8.200  17.763  0.00  0.00    +0.000 A 
ATOM     25  S   UNL     1      48.752   8.095  19.367  0.00  0.00    +0.000 S 
ATOM     26  C   UNL     1      48.855   6.394  19.353  0.00  0.00    +0.000 A 
ATOM     27  N   UNL     1      48.535   5.665  20.454  0.00  0.00    +0.000 NA
ATOM     28  C   UNL     1      48.685   4.390  20.308  0.00  0.00    +0.000 A 
ATOM     29  N   UNL     1      49.122   3.780  19.159  0.00  0.00    +0.000 N 
ATOM     30  C   UNL     1      49.493   4.477  18.030  0.00  0.00    +0.000 A 
ATOM     31  O   UNL     1      49.971   3.901  17.058  0.00  0.00    +0.000 OA
ATOM     32  C   UNL     1      49.308   5.912  18.138  0.00  0.00    +0.000 A 
ATOM     33  H   UNL     1      49.250   2.780  19.123  0.00  0.00    +0.000 HD
ENDBRANCH  21  23
ENDBRANCH  20  21
ENDBRANCH  19  20
ENDBRANCH   4  19
TORSDOF 7
ENDMDL
MODEL 7
REMARK VINA RESULT:    -6.484      4.317      6.571
REMARK INTER + INTRA:         -10.004
REMARK INTER:                  -8.296
REMARK INTRA:                  -1.708
REMARK UNBOUND:                -0.867
REMARK  Name = 
REMARK  7 active torsions:
REMARK  status: ('A' for Active; 'I' for Inactive)
REMARK    1  A    between atoms: C_2  and  C_25
REMARK    2  A    between atoms: N_3  and  C_4
REMARK    3  A    between atoms: C_4  and  C_5
REMARK    4  A    between atoms: C_8  and  C_9
REMARK    5  A    between atoms: C_9  and  O_10
REMARK    6  A    between atoms: O_10  and  C_11
REMARK    7  A    between atoms: C_11  and  C_13
REMARK                            x       y       z     vdW  Elec       q    Type
REMARK                         _______ _______ _______ _____ _____    ______ ____
ROOT
ATOM      1  C   UNL     1      48.160   4.492  17.621  0.00  0.00    +0.000 A 
ATOM      2  C   UNL     1      49.532   4.441  17.901  0.00  0.00    +0.000 A 
ATOM      3  C   UNL     1      50.098   5.298  18.849  0.00  0.00    +0.000 A 
ATOM      4  C   UNL     1      49.302   6.216  19.545  0.00  0.00    +0.000 A 
ATOM      5  C   UNL     1      47.925   6.248  19.287  0.00  0.00    +0.000 A 
ATOM      6  C   UNL     1      47.359   5.392  18.336  0.00  0.00    +0.000 A 
ENDROOT
BRANCH   1   7
ATOM      7  C   UNL     1      47.568   3.604  16.558  0.00  0.00    +0.000 C 
BRANCH   7  10
ATOM      8  O   UNL     1      47.472   3.367  13.797  0.00  0.00    +0.000 OA
ATOM      9  C   UNL     1      46.676   4.127  14.342  0.00  0.00    +0.000 C 
ATOM     10  N   UNL     1      46.650   4.315  15.703  0.00  0.00    +0.000 N 
ATOM     11  H   UNL     1      45.922   4.871  16.126  0.00  0.00    +0.000 HD
BRANCH   9  12
ATOM     12  C   UNL     1      45.698   4.882  13.586  0.00  0.00    +0.000 A 
ATOM     13  C   UNL     1      44.494   4.527  12.999  0.00  0.00    +0.000 A 
ATOM     14  C   UNL     1      43.939   5.685  12.404  0.00  0.00    +0.000 A 
ATOM     15 CL   UNL     1      42.459   5.744  11.580  0.00  0.00    +0.000 Cl
ATOM     16  C   UNL     1      44.809   6.723  12.626  0.00  0.00    +0.000 A 
ATOM     17  N   UNL     1      45.868   6.231  13.341  0.00  0.00    +0.000 N 
ATOM     18  H   UNL     1      46.669   6.763  13.664  0.00  0.00    +0.000 HD
ENDBRANCH   9  12
ENDBRANCH   7  10
ENDBRANCH   1   7
BRANCH   4  19
ATOM     19  C   UNL     1      49.921   7.170  20.539  0.00  0.00    +0.000 C 
BRANCH  19  20
ATOM     20  O   UNL     1      51.010   7.881  19.939  0.00  0.00    +0.000 OA
BRANCH  20  21
ATOM     21  C   UNL     1      50.656   8.976  19.217  0.00  0.00    +0.000 C 
ATOM     22  O   UNL     1      50.377  10.070  19.696  0.00  0.00    +0.000 OA
BRANCH  21  23
ATOM     23  C   UNL     1      50.720   8.749  17.778  0.00  0.00    +0.000 A 
ATOM     24  C   UNL     1      51.922   8.451  17.157  0.00  0.00    +0.000 A 
ATOM     25  S   UNL     1      51.763   8.194  15.477  0.00  0.00    +0.000 S 
ATOM     26  C   UNL     1      50.093   8.524  15.527  0.00  0.00    +0.000 A 
ATOM     27  N   UNL     1      49.342   8.510  14.394  0.00  0.00    +0.000 NA
ATOM     28  C   UNL     1      48.099   8.805  14.578  0.00  0.00    +0.000 A 
ATOM     29  N   UNL     1      47.537   9.109  15.792  0.00  0.00    +0.000 N 
ATOM     30  C   UNL     1      48.261   9.172  16.963  0.00  0.00    +0.000 A 
ATOM     31  O   UNL     1      47.742   9.543  18.010  0.00  0.00    +0.000 OA
ATOM     32  C   UNL     1      49.659   8.814  16.809  0.00  0.00    +0.000 A 
ATOM     33  H   UNL     1      46.563   9.364  15.861  0.00  0.00    +0.000 HD
ENDBRANCH  21  23
ENDBRANCH  20  21
ENDBRANCH  19  20
ENDBRANCH   4  19
TORSDOF 7
ENDMDL
MODEL 8
REMARK VINA RESULT:    -6.251      2.715      3.443
REMARK INTER + INTRA:          -9.676
REMARK INTER:                  -8.779
REMARK INTRA:                  -0.897
REMARK UNBOUND:                -0.867
REMARK  Name = 
REMARK  7 active torsions:
REMARK  status: ('A' for Active; 'I' for Inactive)
REMARK    1  A    between atoms: C_2  and  C_25
REMARK    2  A    between atoms: N_3  and  C_4
REMARK    3  A    between atoms: C_4  and  C_5
REMARK    4  A    between atoms: C_8  and  C_9
REMARK    5  A    between atoms: C_9  and  O_10
REMARK    6  A    between atoms: O_10  and  C_11
REMARK    7  A    between atoms: C_11  and  C_13
REMARK                            x       y       z     vdW  Elec       q    Type
REMARK                         _______ _______ _______ _____ _____    ______ ____
ROOT
ATOM      1  C   UNL     1      46.314   7.416  12.225  0.00  0.00    +0.000 A 
ATOM      2  C   UNL     1      47.572   6.813  12.092  0.00  0.00    +0.000 A 
ATOM      3  C   UNL     1      48.664   7.270  12.836  0.00  0.00    +0.000 A 
ATOM      4  C   UNL     1      48.516   8.331  13.737  0.00  0.00    +0.000 A 
ATOM      5  C   UNL     1      47.253   8.917  13.892  0.00  0.00    +0.000 A 
ATOM      6  C   UNL     1      46.161   8.461  13.146  0.00  0.00    +0.000 A 
ENDROOT
BRANCH   1   7
ATOM      7  C   UNL     1      45.158   6.954  11.378  0.00  0.00    +0.000 C 
BRANCH   7  10
ATOM      8  O   UNL     1      43.701   4.661  10.823  0.00  0.00    +0.000 OA
ATOM      9  C   UNL     1      44.754   4.839  10.218  0.00  0.00    +0.000 C 
ATOM     10  N   UNL     1      45.548   5.942  10.428  0.00  0.00    +0.000 N 
ATOM     11  H   UNL     1      46.357   6.105   9.847  0.00  0.00    +0.000 HD
BRANCH   9  12
ATOM     12  C   UNL     1      45.239   3.897   9.230  0.00  0.00    +0.000 A 
ATOM     13  C   UNL     1      45.772   4.065   7.962  0.00  0.00    +0.000 A 
ATOM     14  C   UNL     1      46.100   2.785   7.453  0.00  0.00    +0.000 A 
ATOM     15 CL   UNL     1      46.797   2.489   5.937  0.00  0.00    +0.000 Cl
ATOM     16  C   UNL     1      45.758   1.859   8.407  0.00  0.00    +0.000 A 
ATOM     17  N   UNL     1      45.240   2.537   9.477  0.00  0.00    +0.000 N 
ATOM     18  H   UNL     1      44.907   2.125  10.342  0.00  0.00    +0.000 HD
ENDBRANCH   9  12
ENDBRANCH   7  10
ENDBRANCH   1   7
BRANCH   4  19
ATOM     19  C   UNL     1      49.705   8.852  14.511  0.00  0.00    +0.000 C 
BRANCH  19  20
ATOM     20  O   UNL     1      49.326   9.175  15.854  0.00  0.00    +0.000 OA
BRANCH  20  21
ATOM     21  C   UNL     1      50.291   8.977  16.790  0.00  0.00    +0.000 C 
ATOM     22  O   UNL     1      50.940   9.868  17.326  0.00  0.00    +0.000 OA
BRANCH  21  23
ATOM     23  C   UNL     1      50.432   7.576  17.168  0.00  0.00    +0.000 A 
ATOM     24  C   UNL     1      51.513   6.826  16.735  0.00  0.00    +0.000 A 
ATOM     25  S   UNL     1      51.495   5.223  17.320  0.00  0.00    +0.000 S 
ATOM     26  C   UNL     1      50.015   5.473  18.126  0.00  0.00    +0.000 A 
ATOM     27  N   UNL     1      49.411   4.466  18.810  0.00  0.00    +0.000 NA
ATOM     28  C   UNL     1      48.283   4.792  19.348  0.00  0.00    +0.000 A 
ATOM     29  N   UNL     1      47.707   6.035  19.267  0.00  0.00    +0.000 N 
ATOM     30  C   UNL     1      48.260   7.077  18.556  0.00  0.00    +0.000 A 
ATOM     31  O   UNL     1      47.667   8.142  18.427  0.00  0.00    +0.000 OA
ATOM     32  C   UNL     1      49.548   6.765  17.962  0.00  0.00    +0.000 A 
ATOM     33  H   UNL     1      46.805   6.213  19.683  0.00  0.00    +0.000 HD
ENDBRANCH  21  23
ENDBRANCH  20  21
ENDBRANCH  19  20
ENDBRANCH   4  19
TORSDOF 7
ENDMDL
MODEL 9
REMARK VINA RESULT:    -6.243      6.036      7.815
REMARK INTER + INTRA:          -9.665
REMARK INTER:                  -8.828
REMARK INTRA:                  -0.836
REMARK UNBOUND:                -0.867
REMARK  Name = 
REMARK  7 active torsions:
REMARK  status: ('A' for Active; 'I' for Inactive)
REMARK    1  A    between atoms: C_2  and  C_25
REMARK    2  A    between atoms: N_3  and  C_4
REMARK    3  A    between atoms: C_4  and  C_5
REMARK    4  A    between atoms: C_8  and  C_9
REMARK    5  A    between atoms: C_9  and  O_10
REMARK    6  A    between atoms: O_10  and  C_11
REMARK    7  A    between atoms: C_11  and  C_13
REMARK                            x       y       z     vdW  Elec       q    Type
REMARK                         _______ _______ _______ _____ _____    ______ ____
ROOT
ATOM      1  C   UNL     1      47.559   8.333  12.382  0.00  0.00    +0.000 A 
ATOM      2  C   UNL     1      48.578   7.384  12.226  0.00  0.00    +0.000 A 
ATOM      3  C   UNL     1      49.837   7.761  11.748  0.00  0.00    +0.000 A 
ATOM      4  C   UNL     1      50.105   9.098  11.429  0.00  0.00    +0.000 A 
ATOM      5  C   UNL     1      49.097  10.053  11.612  0.00  0.00    +0.000 A 
ATOM      6  C   UNL     1      47.837   9.675  12.088  0.00  0.00    +0.000 A 
ENDROOT
BRANCH   1   7
ATOM      7  C   UNL     1      46.190   7.909  12.844  0.00  0.00    +0.000 C 
BRANCH   7  10
ATOM      8  O   UNL     1      43.965   7.309  11.303  0.00  0.00    +0.000 OA
ATOM      9  C   UNL     1      44.719   6.392  11.613  0.00  0.00    +0.000 C 
ATOM     10  N   UNL     1      45.844   6.589  12.379  0.00  0.00    +0.000 N 
ATOM     11  H   UNL     1      46.492   5.832  12.535  0.00  0.00    +0.000 HD
BRANCH   9  12
ATOM     12  C   UNL     1      44.481   5.028  11.189  0.00  0.00    +0.000 A 
ATOM     13  C   UNL     1      44.893   4.308  10.079  0.00  0.00    +0.000 A 
ATOM     14  C   UNL     1      44.377   2.995  10.192  0.00  0.00    +0.000 A 
ATOM     15 CL   UNL     1      44.633   1.747   9.074  0.00  0.00    +0.000 Cl
ATOM     16  C   UNL     1      43.654   2.933  11.357  0.00  0.00    +0.000 A 
ATOM     17  N   UNL     1      43.721   4.162  11.954  0.00  0.00    +0.000 N 
ATOM     18  H   UNL     1      43.293   4.423  12.836  0.00  0.00    +0.000 HD
ENDBRANCH   9  12
ENDBRANCH   7  10
ENDBRANCH   1   7
BRANCH   4  19
ATOM     19  C   UNL     1      51.452   9.498  10.873  0.00  0.00    +0.000 C 
BRANCH  19  20
ATOM     20  O   UNL     1      52.177   8.342  10.437  0.00  0.00    +0.000 OA
BRANCH  20  21
ATOM     21  C   UNL     1      53.359   8.603   9.818  0.00  0.00    +0.000 C 
ATOM     22  O   UNL     1      54.331   9.123  10.355  0.00  0.00    +0.000 OA
BRANCH  21  23
ATOM     23  C   UNL     1      53.395   8.119   8.443  0.00  0.00    +0.000 A 
ATOM     24  C   UNL     1      53.214   8.986   7.377  0.00  0.00    +0.000 A 
ATOM     25  S   UNL     1      53.326   8.215   5.859  0.00  0.00    +0.000 S 
ATOM     26  C   UNL     1      53.569   6.693   6.586  0.00  0.00    +0.000 A 
ATOM     27  N   UNL     1      53.706   5.571   5.831  0.00  0.00    +0.000 NA
ATOM     28  C   UNL     1      53.856   4.487   6.516  0.00  0.00    +0.000 A 
ATOM     29  N   UNL     1      53.887   4.424   7.886  0.00  0.00    +0.000 N 
ATOM     30  C   UNL     1      53.716   5.526   8.695  0.00  0.00    +0.000 A 
ATOM     31  O   UNL     1      53.652   5.413   9.915  0.00  0.00    +0.000 OA
ATOM     32  C   UNL     1      53.577   6.774   7.967  0.00  0.00    +0.000 A 
ATOM     33  H   UNL     1      53.974   3.537   8.360  0.00  0.00    +0.000 HD
ENDBRANCH  21  23
ENDBRANCH  20  21
ENDBRANCH  19  20
ENDBRANCH   4  19
TORSDOF 7
ENDMDL
