MODEL 1
REMARK VINA RESULT:    -7.848      0.000      0.000
REMARK INTER + INTRA:         -10.825
REMARK INTER:                 -10.371
REMARK INTRA:                  -0.454
REMARK UNBOUND:                -0.454
REMARK  Name = 
REMARK  7 active torsions:
REMARK  status: ('A' for Active; 'I' for Inactive)
REMARK    1  A    between atoms: C_1  and  C_2
REMARK    2  A    between atoms: C_2  and  N_3
REMARK    3  A    between atoms: C_2  and  C_18
REMARK    4  A    between atoms: C_7  and  C_8
REMARK    5  A    between atoms: C_8  and  N_9
REMARK    6  A    between atoms: N_9  and  C_10
REMARK    7  A    between atoms: C_13  and  N_14
REMARK                            x       y       z     vdW  Elec       q    Type
REMARK                         _______ _______ _______ _____ _____    ______ ____
ROOT
ATOM      1  N   UNL     1      47.373   5.532  14.969  0.00  0.00    +0.000 N 
ATOM      2  C   UNL     1      46.524   4.982  14.038  0.00  0.00    +0.000 A 
ATOM      3  N   UNL     1      45.788   5.874  13.365  0.00  0.00    +0.000 NA
ATOM      4  C   UNL     1      45.173   5.437  12.247  0.00  0.00    +0.000 A 
ATOM      5  C   UNL     1      45.246   4.137  11.797  0.00  0.00    +0.000 A 
ATOM      6  C   UNL     1      45.878   3.269  12.659  0.00  0.00    +0.000 A 
ATOM      7  N   UNL     1      46.517   3.663  13.783  0.00  0.00    +0.000 NA
ATOM      8  H   UNL     1      47.100   6.480  15.202  0.00  0.00    +0.000 HD
ENDROOT
BRANCH   1  10
ATOM      9  C   UNL     1      46.817   4.191  16.948  0.00  0.00    +0.000 C 
ATOM     10  C   UNL     1      47.927   4.717  16.013  0.00  0.00    +0.000 C 
BRANCH  10  11
ATOM     11  C   UNL     1      49.007   5.391  16.841  0.00  0.00    +0.000 A 
ATOM     12  C   UNL     1      49.085   6.755  17.065  0.00  0.00    +0.000 A 
ATOM     13  S   UNL     1      50.693   7.235  17.420  0.00  0.00    +0.000 S 
ATOM     14  C   UNL     1      51.209   5.613  17.513  0.00  0.00    +0.000 A 
ATOM     15  N   UNL     1      52.517   5.266  17.636  0.00  0.00    +0.000 NA
ATOM     16  C   UNL     1      52.711   3.999  17.812  0.00  0.00    +0.000 A 
ATOM     17  N   UNL     1      51.716   3.060  17.938  0.00  0.00    +0.000 N 
ATOM     18  C   UNL     1      50.381   3.359  17.780  0.00  0.00    +0.000 A 
ATOM     19  O   UNL     1      49.500   2.518  17.927  0.00  0.00    +0.000 OA
ATOM     20  C   UNL     1      50.137   4.748  17.450  0.00  0.00    +0.000 A 
ATOM     21  H   UNL     1      51.936   2.103  18.174  0.00  0.00    +0.000 HD
ENDBRANCH  10  11
ENDBRANCH   1  10
BRANCH   5  22
ATOM     22  C   UNL     1      44.721   3.720  10.464  0.00  0.00    +0.000 C 
BRANCH  22  23
ATOM     23  N   UNL     1      45.248   2.399  10.075  0.00  0.00    +0.000 NA
ATOM     24  H   UNL     1      44.823   1.695  10.662  0.00  0.00    +0.000 HD
BRANCH  23  25
ATOM     25  C   UNL     1      44.957   2.087   8.670  0.00  0.00    +0.000 C 
ATOM     26  C   UNL     1      44.992   3.325   7.762  0.00  0.00    +0.000 C 
ATOM     27  C   UNL     1      46.355   3.350   7.068  0.00  0.00    +0.000 C 
ATOM     28  C   UNL     1      47.121   2.138   7.592  0.00  0.00    +0.000 C 
ATOM     29  C   UNL     1      46.025   1.173   8.042  0.00  0.00    +0.000 C 
BRANCH  28  30
ATOM     30  N   UNL     1      48.009   1.582   6.579  0.00  0.00    +0.000 NA
ATOM     31  H   UNL     1      48.112   0.584   6.707  0.00  0.00    +0.000 HD
ATOM     32  H   UNL     1      48.945   1.981   6.690  0.00  0.00    +0.000 HD
ENDBRANCH  28  30
ENDBRANCH  23  25
ENDBRANCH  22  23
ENDBRANCH   5  22
TORSDOF 6
ENDMDL
MODEL 2
REMARK VINA RESULT:    -7.774      2.100      2.656
REMARK INTER + INTRA:         -10.727
REMARK INTER:                 -10.005
REMARK INTRA:                  -0.722
REMARK UNBOUND:                -0.454
REMARK  Name = 
REMARK  7 active torsions:
REMARK  status: ('A' for Active; 'I' for Inactive)
REMARK    1  A    between atoms: C_1  and  C_2
REMARK    2  A    between atoms: C_2  and  N_3
REMARK    3  A    between atoms: C_2  and  C_18
REMARK    4  A    between atoms: C_7  and  C_8
REMARK    5  A    between atoms: C_8  and  N_9
REMARK    6  A    between atoms: N_9  and  C_10
REMARK    7  A    between atoms: C_13  and  N_14
REMARK                            x       y       z     vdW  Elec       q    Type
REMARK                         _______ _______ _______ _____ _____    ______ ____
ROOT
ATOM      1  N   UNL     1      46.895   5.296  15.059  0.00  0.00    +0.000 N 
ATOM      2  C   UNL     1      46.223   4.610  14.075  0.00  0.00    +0.000 A 
ATOM      3  N   UNL     1      45.161   5.256  13.577  0.00  0.00    +0.000 NA
ATOM      4  C   UNL     1      44.649   4.786  12.422  0.00  0.00    +0.000 A 
ATOM      5  C   UNL     1      45.143   3.681  11.764  0.00  0.00    +0.000 A 
ATOM      6  C   UNL     1      46.116   2.993  12.455  0.00  0.00    +0.000 A 
ATOM      7  N   UNL     1      46.666   3.432  13.609  0.00  0.00    +0.000 NA
ATOM      8  H   UNL     1      46.322   6.035  15.450  0.00  0.00    +0.000 HD
ENDROOT
BRANCH   1  10
ATOM      9  C   UNL     1      47.014   3.881  17.059  0.00  0.00    +0.000 C 
ATOM     10  C   UNL     1      47.792   4.603  15.939  0.00  0.00    +0.000 C 
BRANCH  10  11
ATOM     11  C   UNL     1      48.874   5.471  16.556  0.00  0.00    +0.000 A 
ATOM     12  C   UNL     1      49.474   5.225  17.779  0.00  0.00    +0.000 A 
ATOM     13  S   UNL     1      50.100   6.668  18.464  0.00  0.00    +0.000 S 
ATOM     14  C   UNL     1      49.791   7.541  17.034  0.00  0.00    +0.000 A 
ATOM     15  N   UNL     1      49.938   8.889  16.952  0.00  0.00    +0.000 NA
ATOM     16  C   UNL     1      49.774   9.365  15.760  0.00  0.00    +0.000 A 
ATOM     17  N   UNL     1      49.539   8.610  14.636  0.00  0.00    +0.000 N 
ATOM     18  C   UNL     1      49.343   7.248  14.677  0.00  0.00    +0.000 A 
ATOM     19  O   UNL     1      49.166   6.580  13.663  0.00  0.00    +0.000 OA
ATOM     20  C   UNL     1      49.388   6.700  16.018  0.00  0.00    +0.000 A 
ATOM     21  H   UNL     1      49.521   9.037  13.721  0.00  0.00    +0.000 HD
ENDBRANCH  10  11
ENDBRANCH   1  10
BRANCH   5  22
ATOM     22  C   UNL     1      44.689   3.293  10.396  0.00  0.00    +0.000 C 
BRANCH  22  23
ATOM     23  N   UNL     1      45.542   2.229   9.836  0.00  0.00    +0.000 NA
ATOM     24  H   UNL     1      45.356   1.369  10.333  0.00  0.00    +0.000 HD
BRANCH  23  25
ATOM     25  C   UNL     1      45.283   2.017   8.406  0.00  0.00    +0.000 C 
ATOM     26  C   UNL     1      45.255   3.326   7.603  0.00  0.00    +0.000 C 
ATOM     27  C   UNL     1      46.621   3.485   6.933  0.00  0.00    +0.000 C 
ATOM     28  C   UNL     1      47.450   2.279   7.367  0.00  0.00    +0.000 C 
ATOM     29  C   UNL     1      46.408   1.220   7.721  0.00  0.00    +0.000 C 
BRANCH  28  30
ATOM     30  N   UNL     1      48.379   1.859   6.324  0.00  0.00    +0.000 NA
ATOM     31  H   UNL     1      48.238   2.405   5.484  0.00  0.00    +0.000 HD
ATOM     32  H   UNL     1      48.184   0.888   6.067  0.00  0.00    +0.000 HD
ENDBRANCH  28  30
ENDBRANCH  23  25
ENDBRANCH  22  23
ENDBRANCH   5  22
TORSDOF 6
ENDMDL
MODEL 3
REMARK VINA RESULT:    -7.450      1.470      1.832
REMARK INTER + INTRA:         -10.299
REMARK INTER:                  -9.634
REMARK INTRA:                  -0.665
REMARK UNBOUND:                -0.454
REMARK  Name = 
REMARK  7 active torsions:
REMARK  status: ('A' for Active; 'I' for Inactive)
REMARK    1  A    between atoms: C_1  and  C_2
REMARK    2  A    between atoms: C_2  and  N_3
REMARK    3  A    between atoms: C_2  and  C_18
REMARK    4  A    between atoms: C_7  and  C_8
REMARK    5  A    between atoms: C_8  and  N_9
REMARK    6  A    between atoms: N_9  and  C_10
REMARK    7  A    between atoms: C_13  and  N_14
REMARK                            x       y       z     vdW  Elec       q    Type
REMARK                         _______ _______ _______ _____ _____    ______ ____
ROOT
ATOM      1  N   UNL     1      47.557   4.444  15.910  0.00  0.00    +0.000 N 
ATOM      2  C   UNL     1      47.067   4.448  14.626  0.00  0.00    +0.000 A 
ATOM      3  N   UNL     1      47.119   3.260  14.010  0.00  0.00    +0.000 NA
ATOM      4  C   UNL     1      46.389   3.126  12.884  0.00  0.00    +0.000 A 
ATOM      5  C   UNL     1      45.635   4.142  12.340  0.00  0.00    +0.000 A 
ATOM      6  C   UNL     1      45.798   5.365  12.953  0.00  0.00    +0.000 A 
ATOM      7  N   UNL     1      46.509   5.545  14.088  0.00  0.00    +0.000 NA
ATOM      8  H   UNL     1      48.138   3.631  16.081  0.00  0.00    +0.000 HD
ENDROOT
BRANCH   1  10
ATOM      9  C   UNL     1      49.055   6.382  15.774  0.00  0.00    +0.000 C 
ATOM     10  C   UNL     1      47.922   5.677  16.549  0.00  0.00    +0.000 C 
BRANCH  10  11
ATOM     11  C   UNL     1      48.317   5.544  18.009  0.00  0.00    +0.000 A 
ATOM     12  C   UNL     1      47.662   6.165  19.058  0.00  0.00    +0.000 A 
ATOM     13  S   UNL     1      48.702   6.368  20.406  0.00  0.00    +0.000 S 
ATOM     14  C   UNL     1      49.916   5.420  19.676  0.00  0.00    +0.000 A 
ATOM     15  N   UNL     1      51.162   5.291  20.204  0.00  0.00    +0.000 NA
ATOM     16  C   UNL     1      51.911   4.441  19.581  0.00  0.00    +0.000 A 
ATOM     17  N   UNL     1      51.509   3.664  18.521  0.00  0.00    +0.000 N 
ATOM     18  C   UNL     1      50.272   3.789  17.930  0.00  0.00    +0.000 A 
ATOM     19  O   UNL     1      49.912   3.068  17.005  0.00  0.00    +0.000 OA
ATOM     20  C   UNL     1      49.453   4.829  18.520  0.00  0.00    +0.000 A 
ATOM     21  H   UNL     1      52.114   2.948  18.146  0.00  0.00    +0.000 HD
ENDBRANCH  10  11
ENDBRANCH   1  10
BRANCH   5  22
ATOM     22  C   UNL     1      44.688   3.920  11.208  0.00  0.00    +0.000 C 
BRANCH  22  23
ATOM     23  N   UNL     1      44.881   2.588  10.607  0.00  0.00    +0.000 NA
ATOM     24  H   UNL     1      44.322   1.918  11.118  0.00  0.00    +0.000 HD
BRANCH  23  25
ATOM     25  C   UNL     1      44.480   2.563   9.194  0.00  0.00    +0.000 C 
ATOM     26  C   UNL     1      45.011   3.766   8.401  0.00  0.00    +0.000 C 
ATOM     27  C   UNL     1      46.262   3.306   7.650  0.00  0.00    +0.000 C 
ATOM     28  C   UNL     1      46.471   1.843   8.028  0.00  0.00    +0.000 C 
ATOM     29  C   UNL     1      45.080   1.364   8.439  0.00  0.00    +0.000 C 
BRANCH  28  30
ATOM     30  N   UNL     1      47.050   1.080   6.929  0.00  0.00    +0.000 NA
ATOM     31  H   UNL     1      47.479   0.231   7.274  0.00  0.00    +0.000 HD
ATOM     32  H   UNL     1      47.803   1.623   6.496  0.00  0.00    +0.000 HD
ENDBRANCH  28  30
ENDBRANCH  23  25
ENDBRANCH  22  23
ENDBRANCH   5  22
TORSDOF 6
ENDMDL
MODEL 4
REMARK VINA RESULT:    -7.229      2.679      3.283
REMARK INTER + INTRA:         -10.006
REMARK INTER:                  -9.031
REMARK INTRA:                  -0.976
REMARK UNBOUND:                -0.454
REMARK  Name = 
REMARK  7 active torsions:
REMARK  status: ('A' for Active; 'I' for Inactive)
REMARK    1  A    between atoms: C_1  and  C_2
REMARK    2  A    between atoms: C_2  and  N_3
REMARK    3  A    between atoms: C_2  and  C_18
REMARK    4  A    between atoms: C_7  and  C_8
REMARK    5  A    between atoms: C_8  and  N_9
REMARK    6  A    between atoms: N_9  and  C_10
REMARK    7  A    between atoms: C_13  and  N_14
REMARK                            x       y       z     vdW  Elec       q    Type
REMARK                         _______ _______ _______ _____ _____    ______ ____
ROOT
ATOM      1  N   UNL     1      47.674   7.363  12.841  0.00  0.00    +0.000 N 
ATOM      2  C   UNL     1      46.632   6.575  12.414  0.00  0.00    +0.000 A 
ATOM      3  N   UNL     1      46.417   6.612  11.093  0.00  0.00    +0.000 NA
ATOM      4  C   UNL     1      45.626   5.648  10.578  0.00  0.00    +0.000 A 
ATOM      5  C   UNL     1      45.025   4.670  11.339  0.00  0.00    +0.000 A 
ATOM      6  C   UNL     1      45.170   4.834  12.699  0.00  0.00    +0.000 A 
ATOM      7  N   UNL     1      45.960   5.777  13.259  0.00  0.00    +0.000 NA
ATOM      8  H   UNL     1      47.919   8.059  12.146  0.00  0.00    +0.000 HD
ENDROOT
BRANCH   1  10
ATOM      9  C   UNL     1      47.823   9.262  14.389  0.00  0.00    +0.000 C 
ATOM     10  C   UNL     1      47.785   7.727  14.226  0.00  0.00    +0.000 C 
BRANCH  10  11
ATOM     11  C   UNL     1      48.969   7.114  14.952  0.00  0.00    +0.000 A 
ATOM     12  C   UNL     1      48.866   6.192  15.979  0.00  0.00    +0.000 A 
ATOM     13  S   UNL     1      50.255   6.228  16.986  0.00  0.00    +0.000 S 
ATOM     14  C   UNL     1      51.066   7.276  15.914  0.00  0.00    +0.000 A 
ATOM     15  N   UNL     1      52.260   7.851  16.215  0.00  0.00    +0.000 NA
ATOM     16  C   UNL     1      52.783   8.519  15.239  0.00  0.00    +0.000 A 
ATOM     17  N   UNL     1      52.253   8.612  13.974  0.00  0.00    +0.000 N 
ATOM     18  C   UNL     1      51.028   8.080  13.636  0.00  0.00    +0.000 A 
ATOM     19  O   UNL     1      50.580   8.142  12.496  0.00  0.00    +0.000 OA
ATOM     20  C   UNL     1      50.353   7.438  14.745  0.00  0.00    +0.000 A 
ATOM     21  H   UNL     1      52.763   9.067  13.232  0.00  0.00    +0.000 HD
ENDBRANCH  10  11
ENDBRANCH   1  10
BRANCH   5  22
ATOM     22  C   UNL     1      44.315   3.505  10.732  0.00  0.00    +0.000 C 
BRANCH  22  23
ATOM     23  N   UNL     1      45.270   2.538  10.163  0.00  0.00    +0.000 NA
ATOM     24  H   UNL     1      45.269   1.706  10.737  0.00  0.00    +0.000 HD
BRANCH  23  25
ATOM     25  C   UNL     1      44.918   2.168   8.786  0.00  0.00    +0.000 C 
ATOM     26  C   UNL     1      44.965   3.358   7.817  0.00  0.00    +0.000 C 
ATOM     27  C   UNL     1      46.303   3.297   7.077  0.00  0.00    +0.000 C 
ATOM     28  C   UNL     1      47.043   2.085   7.635  0.00  0.00    +0.000 C 
ATOM     29  C   UNL     1      45.930   1.185   8.169  0.00  0.00    +0.000 C 
BRANCH  28  30
ATOM     30  N   UNL     1      47.874   1.446   6.621  0.00  0.00    +0.000 NA
ATOM     31  H   UNL     1      48.810   1.828   6.639  0.00  0.00    +0.000 HD
ATOM     32  H   UNL     1      47.499   1.657   5.692  0.00  0.00    +0.000 HD
ENDBRANCH  28  30
ENDBRANCH  23  25
ENDBRANCH  22  23
ENDBRANCH   5  22
TORSDOF 6
ENDMDL
MODEL 5
REMARK VINA RESULT:    -7.212      2.755      4.081
REMARK INTER + INTRA:          -9.984
REMARK INTER:                  -9.225
REMARK INTRA:                  -0.759
REMARK UNBOUND:                -0.454
REMARK  Name = 
REMARK  7 active torsions:
REMARK  status: ('A' for Active; 'I' for Inactive)
REMARK    1  A    between atoms: C_1  and  C_2
REMARK    2  A    between atoms: C_2  and  N_3
REMARK    3  A    between atoms: C_2  and  C_18
REMARK    4  A    between atoms: C_7  and  C_8
REMARK    5  A    between atoms: C_8  and  N_9
REMARK    6  A    between atoms: N_9  and  C_10
REMARK    7  A    between atoms: C_13  and  N_14
REMARK                            x       y       z     vdW  Elec       q    Type
REMARK                         _______ _______ _______ _____ _____    ______ ____
ROOT
ATOM      1  N   UNL     1      47.597   4.417  16.485  0.00  0.00    +0.000 N 
ATOM      2  C   UNL     1      47.336   4.746  15.176  0.00  0.00    +0.000 A 
ATOM      3  N   UNL     1      46.363   4.022  14.608  0.00  0.00    +0.000 NA
ATOM      4  C   UNL     1      45.856   4.488  13.448  0.00  0.00    +0.000 A 
ATOM      5  C   UNL     1      46.304   5.633  12.827  0.00  0.00    +0.000 A 
ATOM      6  C   UNL     1      47.422   6.195  13.403  0.00  0.00    +0.000 A 
ATOM      7  N   UNL     1      47.958   5.769  14.569  0.00  0.00    +0.000 NA
ATOM      8  H   UNL     1      47.226   3.502  16.716  0.00  0.00    +0.000 HD
ENDROOT
BRANCH   1  10
ATOM      9  C   UNL     1      49.666   3.583  17.507  0.00  0.00    +0.000 C 
ATOM     10  C   UNL     1      48.833   4.816  17.097  0.00  0.00    +0.000 C 
BRANCH  10  11
ATOM     11  C   UNL     1      48.680   5.741  18.292  0.00  0.00    +0.000 A 
ATOM     12  C   UNL     1      48.489   5.313  19.595  0.00  0.00    +0.000 A 
ATOM     13  S   UNL     1      47.704   6.515  20.534  0.00  0.00    +0.000 S 
ATOM     14  C   UNL     1      47.851   7.661  19.281  0.00  0.00    +0.000 A 
ATOM     15  N   UNL     1      47.257   8.882  19.331  0.00  0.00    +0.000 NA
ATOM     16  C   UNL     1      47.575   9.663  18.350  0.00  0.00    +0.000 A 
ATOM     17  N   UNL     1      48.478   9.356  17.360  0.00  0.00    +0.000 N 
ATOM     18  C   UNL     1      49.073   8.119  17.247  0.00  0.00    +0.000 A 
ATOM     19  O   UNL     1      49.902   7.868  16.378  0.00  0.00    +0.000 OA
ATOM     20  C   UNL     1      48.636   7.176  18.256  0.00  0.00    +0.000 A 
ATOM     21  H   UNL     1      48.755  10.049  16.681  0.00  0.00    +0.000 HD
ENDBRANCH  10  11
ENDBRANCH   1  10
BRANCH   5  22
ATOM     22  C   UNL     1      45.606   6.235  11.653  0.00  0.00    +0.000 C 
BRANCH  22  23
ATOM     23  N   UNL     1      45.855   5.453  10.429  0.00  0.00    +0.000 NA
ATOM     24  H   UNL     1      46.390   4.630  10.673  0.00  0.00    +0.000 HD
BRANCH  23  25
ATOM     25  C   UNL     1      44.603   5.032   9.785  0.00  0.00    +0.000 C 
ATOM     26  C   UNL     1      44.799   3.873   8.798  0.00  0.00    +0.000 C 
ATOM     27  C   UNL     1      44.406   2.582   9.519  0.00  0.00    +0.000 C 
ATOM     28  C   UNL     1      44.006   2.990  10.933  0.00  0.00    +0.000 C 
ATOM     29  C   UNL     1      43.594   4.455  10.794  0.00  0.00    +0.000 C 
BRANCH  28  30
ATOM     30  N   UNL     1      42.950   2.135  11.463  0.00  0.00    +0.000 NA
ATOM     31  H   UNL     1      43.347   1.328  11.927  0.00  0.00    +0.000 HD
ATOM     32  H   UNL     1      42.388   1.770  10.689  0.00  0.00    +0.000 HD
ENDBRANCH  28  30
ENDBRANCH  23  25
ENDBRANCH  22  23
ENDBRANCH   5  22
TORSDOF 6
ENDMDL
MODEL 6
REMARK VINA RESULT:    -7.003      2.493      3.470
REMARK INTER + INTRA:          -9.709
REMARK INTER:                  -8.834
REMARK INTRA:                  -0.874
REMARK UNBOUND:                -0.454
REMARK  Name = 
REMARK  7 active torsions:
REMARK  status: ('A' for Active; 'I' for Inactive)
REMARK    1  A    between atoms: C_1  and  C_2
REMARK    2  A    between atoms: C_2  and  N_3
REMARK    3  A    between atoms: C_2  and  C_18
REMARK    4  A    between atoms: C_7  and  C_8
REMARK    5  A    between atoms: C_8  and  N_9
REMARK    6  A    between atoms: N_9  and  C_10
REMARK    7  A    between atoms: C_13  and  N_14
REMARK                            x       y       z     vdW  Elec       q    Type
REMARK                         _______ _______ _______ _____ _____    ______ ____
ROOT
ATOM      1  N   UNL     1      49.399   7.077  14.905  0.00  0.00    +0.000 N 
ATOM      2  C   UNL     1      48.412   7.033  13.950  0.00  0.00    +0.000 A 
ATOM      3  N   UNL     1      48.795   7.455  12.738  0.00  0.00    +0.000 NA
ATOM      4  C   UNL     1      47.981   7.157  11.705  0.00  0.00    +0.000 A 
ATOM      5  C   UNL     1      46.791   6.478  11.844  0.00  0.00    +0.000 A 
ATOM      6  C   UNL     1      46.412   6.252  13.149  0.00  0.00    +0.000 A 
ATOM      7  N   UNL     1      47.197   6.524  14.214  0.00  0.00    +0.000 NA
ATOM      8  H   UNL     1      50.159   7.684  14.621  0.00  0.00    +0.000 HD
ENDROOT
BRANCH   1  10
ATOM      9  C   UNL     1      49.193   8.426  16.944  0.00  0.00    +0.000 C 
ATOM     10  C   UNL     1      49.059   7.030  16.299  0.00  0.00    +0.000 C 
BRANCH  10  11
ATOM     11  C   UNL     1      49.851   6.022  17.112  0.00  0.00    +0.000 A 
ATOM     12  C   UNL     1      51.017   6.311  17.799  0.00  0.00    +0.000 A 
ATOM     13  S   UNL     1      51.975   4.905  18.016  0.00  0.00    +0.000 S 
ATOM     14  C   UNL     1      50.729   3.904  17.423  0.00  0.00    +0.000 A 
ATOM     15  N   UNL     1      50.907   2.579  17.181  0.00  0.00    +0.000 NA
ATOM     16  C   UNL     1      49.823   1.955  16.848  0.00  0.00    +0.000 A 
ATOM     17  N   UNL     1      48.572   2.522  16.796  0.00  0.00    +0.000 N 
ATOM     18  C   UNL     1      48.352   3.867  16.994  0.00  0.00    +0.000 A 
ATOM     19  O   UNL     1      47.226   4.355  16.978  0.00  0.00    +0.000 OA
ATOM     20  C   UNL     1      49.565   4.620  17.239  0.00  0.00    +0.000 A 
ATOM     21  H   UNL     1      47.755   1.955  16.627  0.00  0.00    +0.000 HD
ENDBRANCH  10  11
ENDBRANCH   1  10
BRANCH   5  22
ATOM     22  C   UNL     1      46.004   5.991  10.673  0.00  0.00    +0.000 C 
BRANCH  22  23
ATOM     23  N   UNL     1      44.556   6.143  10.906  0.00  0.00    +0.000 NA
ATOM     24  H   UNL     1      44.256   7.024  10.512  0.00  0.00    +0.000 HD
BRANCH  23  25
ATOM     25  C   UNL     1      43.786   5.057  10.285  0.00  0.00    +0.000 C 
ATOM     26  C   UNL     1      44.675   4.019   9.584  0.00  0.00    +0.000 C 
ATOM     27  C   UNL     1      44.839   2.834  10.537  0.00  0.00    +0.000 C 
ATOM     28  C   UNL     1      44.066   3.194  11.802  0.00  0.00    +0.000 C 
ATOM     29  C   UNL     1      43.030   4.211  11.326  0.00  0.00    +0.000 C 
BRANCH  28  30
ATOM     30  N   UNL     1      43.482   2.016  12.431  0.00  0.00    +0.000 NA
ATOM     31  H   UNL     1      42.700   2.278  13.017  0.00  0.00    +0.000 HD
ATOM     32  H   UNL     1      44.172   1.585  13.053  0.00  0.00    +0.000 HD
ENDBRANCH  28  30
ENDBRANCH  23  25
ENDBRANCH  22  23
ENDBRANCH   5  22
TORSDOF 6
ENDMDL
MODEL 7
REMARK VINA RESULT:    -6.984      2.749      4.127
REMARK INTER + INTRA:          -9.683
REMARK INTER:                  -8.770
REMARK INTRA:                  -0.913
REMARK UNBOUND:                -0.454
REMARK  Name = 
REMARK  7 active torsions:
REMARK  status: ('A' for Active; 'I' for Inactive)
REMARK    1  A    between atoms: C_1  and  C_2
REMARK    2  A    between atoms: C_2  and  N_3
REMARK    3  A    between atoms: C_2  and  C_18
REMARK    4  A    between atoms: C_7  and  C_8
REMARK    5  A    between atoms: C_8  and  N_9
REMARK    6  A    between atoms: N_9  and  C_10
REMARK    7  A    between atoms: C_13  and  N_14
REMARK                            x       y       z     vdW  Elec       q    Type
REMARK                         _______ _______ _______ _____ _____    ______ ____
ROOT
ATOM      1  N   UNL     1      50.587   7.172  15.123  0.00  0.00    +0.000 N 
ATOM      2  C   UNL     1      49.489   7.215  14.298  0.00  0.00    +0.000 A 
ATOM      3  N   UNL     1      49.760   7.558  13.032  0.00  0.00    +0.000 NA
ATOM      4  C   UNL     1      48.796   7.325  12.118  0.00  0.00    +0.000 A 
ATOM      5  C   UNL     1      47.566   6.789  12.429  0.00  0.00    +0.000 A 
ATOM      6  C   UNL     1      47.331   6.643  13.779  0.00  0.00    +0.000 A 
ATOM      7  N   UNL     1      48.270   6.853  14.729  0.00  0.00    +0.000 NA
ATOM      8  H   UNL     1      51.367   7.683  14.725  0.00  0.00    +0.000 HD
ENDROOT
BRANCH   1  10
ATOM      9  C   UNL     1      51.436   8.167  17.199  0.00  0.00    +0.000 C 
ATOM     10  C   UNL     1      50.422   7.202  16.548  0.00  0.00    +0.000 C 
BRANCH  10  11
ATOM     11  C   UNL     1      50.510   5.846  17.227  0.00  0.00    +0.000 A 
ATOM     12  C   UNL     1      51.686   5.141  17.418  0.00  0.00    +0.000 A 
ATOM     13  S   UNL     1      51.384   3.459  17.565  0.00  0.00    +0.000 S 
ATOM     14  C   UNL     1      49.700   3.716  17.619  0.00  0.00    +0.000 A 
ATOM     15  N   UNL     1      48.801   2.696  17.586  0.00  0.00    +0.000 NA
ATOM     16  C   UNL     1      47.575   3.070  17.756  0.00  0.00    +0.000 A 
ATOM     17  N   UNL     1      47.173   4.358  18.018  0.00  0.00    +0.000 N 
ATOM     18  C   UNL     1      48.042   5.427  18.022  0.00  0.00    +0.000 A 
ATOM     19  O   UNL     1      47.676   6.567  18.289  0.00  0.00    +0.000 OA
ATOM     20  C   UNL     1      49.407   5.061  17.702  0.00  0.00    +0.000 A 
ATOM     21  H   UNL     1      46.210   4.564  18.240  0.00  0.00    +0.000 HD
ENDBRANCH  10  11
ENDBRANCH   1  10
BRANCH   5  22
ATOM     22  C   UNL     1      46.590   6.362  11.384  0.00  0.00    +0.000 C 
BRANCH  22  23
ATOM     23  N   UNL     1      45.324   5.913  11.991  0.00  0.00    +0.000 NA
ATOM     24  H   UNL     1      44.914   6.687  12.495  0.00  0.00    +0.000 HD
BRANCH  23  25
ATOM     25  C   UNL     1      44.369   5.445  10.978  0.00  0.00    +0.000 C 
ATOM     26  C   UNL     1      45.021   4.560   9.905  0.00  0.00    +0.000 C 
ATOM     27  C   UNL     1      44.742   3.103  10.278  0.00  0.00    +0.000 C 
ATOM     28  C   UNL     1      43.950   3.141  11.582  0.00  0.00    +0.000 C 
ATOM     29  C   UNL     1      43.292   4.521  11.575  0.00  0.00    +0.000 C 
BRANCH  28  30
ATOM     30  N   UNL     1      42.997   2.041  11.667  0.00  0.00    +0.000 NA
ATOM     31  H   UNL     1      42.811   1.662  10.747  0.00  0.00    +0.000 HD
ATOM     32  H   UNL     1      42.101   2.393  12.016  0.00  0.00    +0.000 HD
ENDBRANCH  28  30
ENDBRANCH  23  25
ENDBRANCH  22  23
ENDBRANCH   5  22
TORSDOF 6
ENDMDL
MODEL 8
REMARK VINA RESULT:    -6.775      5.235      8.129
REMARK INTER + INTRA:          -9.406
REMARK INTER:                  -8.464
REMARK INTRA:                  -0.943
REMARK UNBOUND:                -0.454
REMARK  Name = 
REMARK  7 active torsions:
REMARK  status: ('A' for Active; 'I' for Inactive)
REMARK    1  A    between atoms: C_1  and  C_2
REMARK    2  A    between atoms: C_2  and  N_3
REMARK    3  A    between atoms: C_2  and  C_18
REMARK    4  A    between atoms: C_7  and  C_8
REMARK    5  A    between atoms: C_8  and  N_9
REMARK    6  A    between atoms: N_9  and  C_10
REMARK    7  A    between atoms: C_13  and  N_14
REMARK                            x       y       z     vdW  Elec       q    Type
REMARK                         _______ _______ _______ _____ _____    ______ ____
ROOT
ATOM      1  N   UNL     1      47.269   6.442  12.619  0.00  0.00    +0.000 N 
ATOM      2  C   UNL     1      48.365   7.272  12.650  0.00  0.00    +0.000 A 
ATOM      3  N   UNL     1      49.092   7.186  13.770  0.00  0.00    +0.000 NA
ATOM      4  C   UNL     1      50.324   7.734  13.740  0.00  0.00    +0.000 A 
ATOM      5  C   UNL     1      50.841   8.385  12.641  0.00  0.00    +0.000 A 
ATOM      6  C   UNL     1      49.944   8.569  11.613  0.00  0.00    +0.000 A 
ATOM      7  N   UNL     1      48.704   8.030  11.595  0.00  0.00    +0.000 NA
ATOM      8  H   UNL     1      47.024   6.122  13.549  0.00  0.00    +0.000 HD
ENDROOT
BRANCH   1  10
ATOM      9  C   UNL     1      44.958   7.242  12.413  0.00  0.00    +0.000 C 
ATOM     10  C   UNL     1      46.203   6.687  11.689  0.00  0.00    +0.000 C 
BRANCH  10  11
ATOM     11  C   UNL     1      45.804   5.486  10.850  0.00  0.00    +0.000 A 
ATOM     12  C   UNL     1      45.877   5.436   9.469  0.00  0.00    +0.000 A 
ATOM     13  S   UNL     1      44.773   4.290   8.830  0.00  0.00    +0.000 S 
ATOM     14  C   UNL     1      44.397   3.709  10.387  0.00  0.00    +0.000 A 
ATOM     15  N   UNL     1      43.398   2.816  10.615  0.00  0.00    +0.000 NA
ATOM     16  C   UNL     1      43.335   2.398  11.838  0.00  0.00    +0.000 A 
ATOM     17  N   UNL     1      44.215   2.744  12.835  0.00  0.00    +0.000 N 
ATOM     18  C   UNL     1      45.215   3.675  12.660  0.00  0.00    +0.000 A 
ATOM     19  O   UNL     1      46.015   3.951  13.549  0.00  0.00    +0.000 OA
ATOM     20  C   UNL     1      45.231   4.262  11.336  0.00  0.00    +0.000 A 
ATOM     21  H   UNL     1      44.167   2.304  13.742  0.00  0.00    +0.000 HD
ENDBRANCH  10  11
ENDBRANCH   1  10
BRANCH   5  22
ATOM     22  C   UNL     1      52.269   8.813  12.561  0.00  0.00    +0.000 C 
BRANCH  22  23
ATOM     23  N   UNL     1      53.117   7.733  12.025  0.00  0.00    +0.000 NA
ATOM     24  H   UNL     1      52.633   6.853  12.140  0.00  0.00    +0.000 HD
BRANCH  23  25
ATOM     25  C   UNL     1      53.418   7.930  10.601  0.00  0.00    +0.000 C 
ATOM     26  C   UNL     1      54.923   7.897  10.298  0.00  0.00    +0.000 C 
ATOM     27  C   UNL     1      55.258   6.499   9.775  0.00  0.00    +0.000 C 
ATOM     28  C   UNL     1      53.951   5.712   9.799  0.00  0.00    +0.000 C 
ATOM     29  C   UNL     1      52.869   6.788   9.727  0.00  0.00    +0.000 C 
BRANCH  28  30
ATOM     30  N   UNL     1      53.885   4.743   8.711  0.00  0.00    +0.000 NA
ATOM     31  H   UNL     1      53.382   5.129   7.923  0.00  0.00    +0.000 HD
ATOM     32  H   UNL     1      53.350   3.925   9.016  0.00  0.00    +0.000 HD
ENDBRANCH  28  30
ENDBRANCH  23  25
ENDBRANCH  22  23
ENDBRANCH   5  22
TORSDOF 6
ENDMDL
MODEL 9
REMARK VINA RESULT:    -6.689      2.011      2.757
REMARK INTER + INTRA:          -9.293
REMARK INTER:                  -9.056
REMARK INTRA:                  -0.237
REMARK UNBOUND:                -0.454
REMARK  Name = 
REMARK  7 active torsions:
REMARK  status: ('A' for Active; 'I' for Inactive)
REMARK    1  A    between atoms: C_1  and  C_2
REMARK    2  A    between atoms: C_2  and  N_3
REMARK    3  A    between atoms: C_2  and  C_18
REMARK    4  A    between atoms: C_7  and  C_8
REMARK    5  A    between atoms: C_8  and  N_9
REMARK    6  A    between atoms: N_9  and  C_10
REMARK    7  A    between atoms: C_13  and  N_14
REMARK                            x       y       z     vdW  Elec       q    Type
REMARK                         _______ _______ _______ _____ _____    ______ ____
ROOT
ATOM      1  N   UNL     1      47.117   6.468  13.974  0.00  0.00    +0.000 N 
ATOM      2  C   UNL     1      46.532   5.908  12.864  0.00  0.00    +0.000 A 
ATOM      3  N   UNL     1      45.994   4.700  13.072  0.00  0.00    +0.000 NA
ATOM      4  C   UNL     1      45.153   4.236  12.125  0.00  0.00    +0.000 A 
ATOM      5  C   UNL     1      44.854   4.924  10.970  0.00  0.00    +0.000 A 
ATOM      6  C   UNL     1      45.598   6.067  10.777  0.00  0.00    +0.000 A 
ATOM      7  N   UNL     1      46.444   6.575  11.701  0.00  0.00    +0.000 NA
ATOM      8  H   UNL     1      47.305   5.770  14.684  0.00  0.00    +0.000 HD
ENDROOT
BRANCH   1  10
ATOM      9  C   UNL     1      49.254   7.127  12.965  0.00  0.00    +0.000 C 
ATOM     10  C   UNL     1      48.049   7.551  13.832  0.00  0.00    +0.000 C 
BRANCH  10  11
ATOM     11  C   UNL     1      48.550   8.134  15.141  0.00  0.00    +0.000 A 
ATOM     12  C   UNL     1      48.431   9.465  15.502  0.00  0.00    +0.000 A 
ATOM     13  S   UNL     1      49.634   9.910  16.640  0.00  0.00    +0.000 S 
ATOM     14  C   UNL     1      50.133   8.290  16.820  0.00  0.00    +0.000 A 
ATOM     15  N   UNL     1      51.235   7.937  17.533  0.00  0.00    +0.000 NA
ATOM     16  C   UNL     1      51.392   6.660  17.661  0.00  0.00    +0.000 A 
ATOM     17  N   UNL     1      50.517   5.708  17.196  0.00  0.00    +0.000 N 
ATOM     18  C   UNL     1      49.411   6.017  16.436  0.00  0.00    +0.000 A 
ATOM     19  O   UNL     1      48.619   5.160  16.054  0.00  0.00    +0.000 OA
ATOM     20  C   UNL     1      49.278   7.433  16.160  0.00  0.00    +0.000 A 
ATOM     21  H   UNL     1      50.649   4.732  17.418  0.00  0.00    +0.000 HD
ENDBRANCH  10  11
ENDBRANCH   1  10
BRANCH   5  22
ATOM     22  C   UNL     1      43.780   4.485  10.031  0.00  0.00    +0.000 C 
BRANCH  22  23
ATOM     23  N   UNL     1      44.324   4.226   8.686  0.00  0.00    +0.000 NA
ATOM     24  H   UNL     1      44.318   5.090   8.161  0.00  0.00    +0.000 HD
BRANCH  23  25
ATOM     25  C   UNL     1      45.699   3.712   8.742  0.00  0.00    +0.000 C 
ATOM     26  C   UNL     1      45.771   2.183   8.620  0.00  0.00    +0.000 C 
ATOM     27  C   UNL     1      46.122   1.853   7.168  0.00  0.00    +0.000 C 
ATOM     28  C   UNL     1      46.229   3.191   6.441  0.00  0.00    +0.000 C 
ATOM     29  C   UNL     1      46.549   4.191   7.551  0.00  0.00    +0.000 C 
BRANCH  28  30
ATOM     30  N   UNL     1      47.232   3.152   5.384  0.00  0.00    +0.000 NA
ATOM     31  H   UNL     1      46.818   3.395   4.494  0.00  0.00    +0.000 HD
ATOM     32  H   UNL     1      47.582   2.195   5.282  0.00  0.00    +0.000 HD
ENDBRANCH  28  30
ENDBRANCH  23  25
ENDBRANCH  22  23
ENDBRANCH   5  22
TORSDOF 6
ENDMDL
