MODEL 1
REMARK VINA RESULT:    -7.502      0.000      0.000
REMARK INTER + INTRA:         -12.953
REMARK INTER:                 -11.669
REMARK INTRA:                  -1.285
REMARK UNBOUND:                -1.285
REMARK  Name = 
REMARK  10 active torsions:
REMARK  status: ('A' for Active; 'I' for Inactive)
REMARK    1  A    between atoms: C_2  and  C_3
REMARK    2  A    between atoms: C_3  and  N_4
REMARK    3  A    between atoms: C_3  and  C_21
REMARK    4  A    between atoms: N_4  and  C_5
REMARK    5  A    between atoms: C_5  and  C_6
REMARK    6  A    between atoms: C_9  and  C_10
REMARK    7  A    between atoms: C_10  and  C_11
REMARK    8  A    between atoms: C_10  and  C_13
REMARK    9  A    between atoms: C_11  and  O_12
REMARK   10  A    between atoms: C_13  and  N_14
REMARK                            x       y       z     vdW  Elec       q    Type
REMARK                         _______ _______ _______ _____ _____    ______ ____
ROOT
ATOM      1  C   UNL     1      48.265   6.328  15.437  0.00  0.00    +0.000 C 
ENDROOT
BRANCH   1   2
ATOM      2  C   UNL     1      47.384   5.922  14.278  0.00  0.00    +0.000 A 
ATOM      3  C   UNL     1      47.154   6.804  13.219  0.00  0.00    +0.000 A 
ATOM      4  C   UNL     1      46.360   6.425  12.136  0.00  0.00    +0.000 A 
ATOM      5  C   UNL     1      45.766   5.153  12.072  0.00  0.00    +0.000 A 
ATOM      6  C   UNL     1      46.016   4.264  13.129  0.00  0.00    +0.000 A 
ATOM      7  C   UNL     1      46.817   4.642  14.216  0.00  0.00    +0.000 A 
BRANCH   5   8
ATOM      8  C   UNL     1      44.813   4.742  10.941  0.00  0.00    +0.000 C 
BRANCH   8   9
ATOM      9  C   UNL     1      43.334   5.033  11.268  0.00  0.00    +0.000 C 
BRANCH   9  10
ATOM     10  O   UNL     1      42.562   3.845  11.418  0.00  0.00    +0.000 OA
ATOM     11  H   UNL     1      43.169   3.144  11.713  0.00  0.00    +0.000 HD
ENDBRANCH   9  10
ENDBRANCH   8   9
BRANCH   8  12
ATOM     12  C   UNL     1      45.016   3.267  10.495  0.00  0.00    +0.000 C 
BRANCH  12  13
ATOM     13  N   UNL     1      44.484   2.895   9.172  0.00  0.00    +0.000 NA
ATOM     14  C   UNL     1      45.015   1.579   8.767  0.00  0.00    +0.000 C 
ATOM     15  C   UNL     1      46.327   1.889   8.070  0.00  0.00    +0.000 C 
ATOM     16  C   UNL     1      46.002   3.155   7.306  0.00  0.00    +0.000 C 
ATOM     17  C   UNL     1      44.898   3.830   8.111  0.00  0.00    +0.000 C 
ENDBRANCH  12  13
ENDBRANCH   8  12
ENDBRANCH   5   8
ENDBRANCH   1   2
BRANCH   1  18
ATOM     18  N   UNL     1      49.153   5.239  15.863  0.00  0.00    +0.000 NA
ATOM     19  H   UNL     1      48.939   4.421  15.294  0.00  0.00    +0.000 HD
BRANCH  18  20
ATOM     20  C   UNL     1      48.906   4.866  17.269  0.00  0.00    +0.000 C 
BRANCH  20  21
ATOM     21  C   UNL     1      50.247   4.466  17.863  0.00  0.00    +0.000 A 
ATOM     22  C   UNL     1      51.067   5.275  18.638  0.00  0.00    +0.000 A 
ATOM     23  S   UNL     1      52.479   4.481  19.188  0.00  0.00    +0.000 S 
ATOM     24  C   UNL     1      52.066   3.047  18.373  0.00  0.00    +0.000 A 
ATOM     25  N   UNL     1      52.861   1.946  18.418  0.00  0.00    +0.000 NA
ATOM     26  C   UNL     1      52.419   0.938  17.739  0.00  0.00    +0.000 A 
ATOM     27  N   UNL     1      51.254   0.933  17.013  0.00  0.00    +0.000 N 
ATOM     28  C   UNL     1      50.427   2.028  16.918  0.00  0.00    +0.000 A 
ATOM     29  O   UNL     1      49.420   2.033  16.217  0.00  0.00    +0.000 OA
ATOM     30  C   UNL     1      50.872   3.174  17.689  0.00  0.00    +0.000 A 
ATOM     31  H   UNL     1      50.979   0.116  16.491  0.00  0.00    +0.000 HD
ENDBRANCH  20  21
BRANCH  20  33
ATOM     32  N   UNL     1      47.765   6.779  18.707  0.00  0.00    +0.000 NA
ATOM     33  C   UNL     1      48.278   5.943  18.080  0.00  0.00    +0.000 C 
ENDBRANCH  20  33
ENDBRANCH  18  20
ENDBRANCH   1  18
TORSDOF 10
ENDMDL
MODEL 2
REMARK VINA RESULT:    -6.743      2.419      2.898
REMARK INTER + INTRA:         -11.773
REMARK INTER:                 -10.388
REMARK INTRA:                  -1.385
REMARK UNBOUND:                -1.285
REMARK  Name = 
REMARK  10 active torsions:
REMARK  status: ('A' for Active; 'I' for Inactive)
REMARK    1  A    between atoms: C_2  and  C_3
REMARK    2  A    between atoms: C_3  and  N_4
REMARK    3  A    between atoms: C_3  and  C_21
REMARK    4  A    between atoms: N_4  and  C_5
REMARK    5  A    between atoms: C_5  and  C_6
REMARK    6  A    between atoms: C_9  and  C_10
REMARK    7  A    between atoms: C_10  and  C_11
REMARK    8  A    between atoms: C_10  and  C_13
REMARK    9  A    between atoms: C_11  and  O_12
REMARK   10  A    between atoms: C_13  and  N_14
REMARK                            x       y       z     vdW  Elec       q    Type
REMARK                         _______ _______ _______ _____ _____    ______ ____
ROOT
ATOM      1  C   UNL     1      49.084   7.133  13.698  0.00  0.00    +0.000 C 
ENDROOT
BRANCH   1   2
ATOM      2  C   UNL     1      47.931   6.480  12.971  0.00  0.00    +0.000 A 
ATOM      3  C   UNL     1      47.289   5.365  13.516  0.00  0.00    +0.000 A 
ATOM      4  C   UNL     1      46.210   4.773  12.859  0.00  0.00    +0.000 A 
ATOM      5  C   UNL     1      45.734   5.271  11.635  0.00  0.00    +0.000 A 
ATOM      6  C   UNL     1      46.369   6.403  11.102  0.00  0.00    +0.000 A 
ATOM      7  C   UNL     1      47.451   7.001  11.762  0.00  0.00    +0.000 A 
BRANCH   5   8
ATOM      8  C   UNL     1      44.610   4.585  10.845  0.00  0.00    +0.000 C 
BRANCH   8   9
ATOM      9  C   UNL     1      43.265   4.579  11.600  0.00  0.00    +0.000 C 
BRANCH   9  10
ATOM     10  O   UNL     1      42.614   3.313  11.549  0.00  0.00    +0.000 OA
ATOM     11  H   UNL     1      42.893   2.879  10.724  0.00  0.00    +0.000 HD
ENDBRANCH   9  10
ENDBRANCH   8   9
BRANCH   8  12
ATOM     12  C   UNL     1      44.999   3.158  10.367  0.00  0.00    +0.000 C 
BRANCH  12  13
ATOM     13  N   UNL     1      44.518   2.751   9.035  0.00  0.00    +0.000 NA
ATOM     14  C   UNL     1      45.149   1.477   8.639  0.00  0.00    +0.000 C 
ATOM     15  C   UNL     1      46.446   1.881   7.965  0.00  0.00    +0.000 C 
ATOM     16  C   UNL     1      46.044   3.121   7.195  0.00  0.00    +0.000 C 
ATOM     17  C   UNL     1      44.881   3.715   7.981  0.00  0.00    +0.000 C 
ENDBRANCH  12  13
ENDBRANCH   8  12
ENDBRANCH   5   8
ENDBRANCH   1   2
BRANCH   1  18
ATOM     18  N   UNL     1      49.230   6.624  15.068  0.00  0.00    +0.000 NA
ATOM     19  H   UNL     1      48.728   5.738  15.128  0.00  0.00    +0.000 HD
BRANCH  18  20
ATOM     20  C   UNL     1      48.613   7.539  16.047  0.00  0.00    +0.000 C 
BRANCH  20  21
ATOM     21  C   UNL     1      49.280   7.268  17.387  0.00  0.00    +0.000 A 
ATOM     22  C   UNL     1      50.268   8.044  17.976  0.00  0.00    +0.000 A 
ATOM     23  S   UNL     1      50.752   7.476  19.514  0.00  0.00    +0.000 S 
ATOM     24  C   UNL     1      49.692   6.149  19.426  0.00  0.00    +0.000 A 
ATOM     25  N   UNL     1      49.606   5.236  20.430  0.00  0.00    +0.000 NA
ATOM     26  C   UNL     1      48.764   4.279  20.212  0.00  0.00    +0.000 A 
ATOM     27  N   UNL     1      48.005   4.147  19.077  0.00  0.00    +0.000 N 
ATOM     28  C   UNL     1      48.072   5.031  18.024  0.00  0.00    +0.000 A 
ATOM     29  O   UNL     1      47.434   4.870  16.988  0.00  0.00    +0.000 OA
ATOM     30  C   UNL     1      48.985   6.138  18.240  0.00  0.00    +0.000 A 
ATOM     31  H   UNL     1      47.381   3.364  18.965  0.00  0.00    +0.000 HD
ENDBRANCH  20  21
BRANCH  20  33
ATOM     32  N   UNL     1      48.843  10.104  15.420  0.00  0.00    +0.000 NA
ATOM     33  C   UNL     1      48.730   8.977  15.689  0.00  0.00    +0.000 C 
ENDBRANCH  20  33
ENDBRANCH  18  20
ENDBRANCH   1  18
TORSDOF 10
ENDMDL
MODEL 3
REMARK VINA RESULT:    -6.618      3.145      4.126
REMARK INTER + INTRA:         -11.578
REMARK INTER:                 -10.330
REMARK INTRA:                  -1.249
REMARK UNBOUND:                -1.285
REMARK  Name = 
REMARK  10 active torsions:
REMARK  status: ('A' for Active; 'I' for Inactive)
REMARK    1  A    between atoms: C_2  and  C_3
REMARK    2  A    between atoms: C_3  and  N_4
REMARK    3  A    between atoms: C_3  and  C_21
REMARK    4  A    between atoms: N_4  and  C_5
REMARK    5  A    between atoms: C_5  and  C_6
REMARK    6  A    between atoms: C_9  and  C_10
REMARK    7  A    between atoms: C_10  and  C_11
REMARK    8  A    between atoms: C_10  and  C_13
REMARK    9  A    between atoms: C_11  and  O_12
REMARK   10  A    between atoms: C_13  and  N_14
REMARK                            x       y       z     vdW  Elec       q    Type
REMARK                         _______ _______ _______ _____ _____    ______ ____
ROOT
ATOM      1  C   UNL     1      47.959   7.963  13.456  0.00  0.00    +0.000 C 
ENDROOT
BRANCH   1   2
ATOM      2  C   UNL     1      47.036   6.926  12.861  0.00  0.00    +0.000 A 
ATOM      3  C   UNL     1      46.760   5.743  13.553  0.00  0.00    +0.000 A 
ATOM      4  C   UNL     1      45.890   4.792  13.018  0.00  0.00    +0.000 A 
ATOM      5  C   UNL     1      45.266   4.986  11.775  0.00  0.00    +0.000 A 
ATOM      6  C   UNL     1      45.531   6.184  11.094  0.00  0.00    +0.000 A 
ATOM      7  C   UNL     1      46.401   7.142  11.631  0.00  0.00    +0.000 A 
BRANCH   5   8
ATOM      8  C   UNL     1      44.379   3.918  11.120  0.00  0.00    +0.000 C 
BRANCH   8   9
ATOM      9  C   UNL     1      43.406   3.254  12.116  0.00  0.00    +0.000 C 
BRANCH   9  10
ATOM     10  O   UNL     1      42.932   1.991  11.660  0.00  0.00    +0.000 OA
ATOM     11  H   UNL     1      42.539   2.131  10.781  0.00  0.00    +0.000 HD
ENDBRANCH   9  10
ENDBRANCH   8   9
BRANCH   8  12
ATOM     12  C   UNL     1      45.199   2.857  10.336  0.00  0.00    +0.000 C 
BRANCH  12  13
ATOM     13  N   UNL     1      44.698   2.484   9.000  0.00  0.00    +0.000 NA
ATOM     14  C   UNL     1      45.536   1.412   8.429  0.00  0.00    +0.000 C 
ATOM     15  C   UNL     1      46.665   2.138   7.721  0.00  0.00    +0.000 C 
ATOM     16  C   UNL     1      45.959   3.334   7.118  0.00  0.00    +0.000 C 
ATOM     17  C   UNL     1      44.771   3.597   8.037  0.00  0.00    +0.000 C 
ENDBRANCH  12  13
ENDBRANCH   8  12
ENDBRANCH   5   8
ENDBRANCH   1   2
BRANCH   1  18
ATOM     18  N   UNL     1      47.650   8.233  14.866  0.00  0.00    +0.000 NA
ATOM     19  H   UNL     1      47.239   9.164  14.923  0.00  0.00    +0.000 HD
BRANCH  18  20
ATOM     20  C   UNL     1      48.875   8.248  15.689  0.00  0.00    +0.000 C 
BRANCH  20  21
ATOM     21  C   UNL     1      48.742   7.122  16.702  0.00  0.00    +0.000 A 
ATOM     22  C   UNL     1      49.018   5.781  16.468  0.00  0.00    +0.000 A 
ATOM     23  S   UNL     1      48.812   4.796  17.850  0.00  0.00    +0.000 S 
ATOM     24  C   UNL     1      48.304   6.116  18.794  0.00  0.00    +0.000 A 
ATOM     25  N   UNL     1      47.958   5.969  20.100  0.00  0.00    +0.000 NA
ATOM     26  C   UNL     1      47.583   7.062  20.681  0.00  0.00    +0.000 A 
ATOM     27  N   UNL     1      47.515   8.289  20.071  0.00  0.00    +0.000 N 
ATOM     28  C   UNL     1      47.833   8.486  18.747  0.00  0.00    +0.000 A 
ATOM     29  O   UNL     1      47.710   9.575  18.195  0.00  0.00    +0.000 OA
ATOM     30  C   UNL     1      48.288   7.288  18.064  0.00  0.00    +0.000 A 
ATOM     31  H   UNL     1      47.195   9.098  20.580  0.00  0.00    +0.000 HD
ENDBRANCH  20  21
BRANCH  20  33
ATOM     32  N   UNL     1      51.123   8.004  14.306  0.00  0.00    +0.000 NA
ATOM     33  C   UNL     1      50.131   8.100  14.908  0.00  0.00    +0.000 C 
ENDBRANCH  20  33
ENDBRANCH  18  20
ENDBRANCH   1  18
TORSDOF 10
ENDMDL
MODEL 4
REMARK VINA RESULT:    -6.457      2.199      2.616
REMARK INTER + INTRA:         -11.327
REMARK INTER:                 -10.146
REMARK INTRA:                  -1.182
REMARK UNBOUND:                -1.285
REMARK  Name = 
REMARK  10 active torsions:
REMARK  status: ('A' for Active; 'I' for Inactive)
REMARK    1  A    between atoms: C_2  and  C_3
REMARK    2  A    between atoms: C_3  and  N_4
REMARK    3  A    between atoms: C_3  and  C_21
REMARK    4  A    between atoms: N_4  and  C_5
REMARK    5  A    between atoms: C_5  and  C_6
REMARK    6  A    between atoms: C_9  and  C_10
REMARK    7  A    between atoms: C_10  and  C_11
REMARK    8  A    between atoms: C_10  and  C_13
REMARK    9  A    between atoms: C_11  and  O_12
REMARK   10  A    between atoms: C_13  and  N_14
REMARK                            x       y       z     vdW  Elec       q    Type
REMARK                         _______ _______ _______ _____ _____    ______ ____
ROOT
ATOM      1  C   UNL     1      48.649   6.540  15.099  0.00  0.00    +0.000 C 
ENDROOT
BRANCH   1   2
ATOM      2  C   UNL     1      47.628   6.168  14.049  0.00  0.00    +0.000 A 
ATOM      3  C   UNL     1      47.174   7.121  13.133  0.00  0.00    +0.000 A 
ATOM      4  C   UNL     1      46.249   6.776  12.147  0.00  0.00    +0.000 A 
ATOM      5  C   UNL     1      45.743   5.471  12.041  0.00  0.00    +0.000 A 
ATOM      6  C   UNL     1      46.217   4.513  12.950  0.00  0.00    +0.000 A 
ATOM      7  C   UNL     1      47.149   4.856  13.939  0.00  0.00    +0.000 A 
BRANCH   5   8
ATOM      8  C   UNL     1      44.656   5.085  11.027  0.00  0.00    +0.000 C 
BRANCH   8   9
ATOM      9  C   UNL     1      43.268   5.647  11.395  0.00  0.00    +0.000 C 
BRANCH   9  10
ATOM     10  O   UNL     1      42.275   4.630  11.500  0.00  0.00    +0.000 OA
ATOM     11  H   UNL     1      41.485   5.039  11.894  0.00  0.00    +0.000 HD
ENDBRANCH   9  10
ENDBRANCH   8   9
BRANCH   8  12
ATOM     12  C   UNL     1      44.597   3.554  10.766  0.00  0.00    +0.000 C 
BRANCH  12  13
ATOM     13  N   UNL     1      44.132   3.126   9.435  0.00  0.00    +0.000 NA
ATOM     14  C   UNL     1      44.680   1.793   9.114  0.00  0.00    +0.000 C 
ATOM     15  C   UNL     1      46.025   2.074   8.471  0.00  0.00    +0.000 C 
ATOM     16  C   UNL     1      45.741   3.306   7.637  0.00  0.00    +0.000 C 
ATOM     17  C   UNL     1      44.600   4.015   8.357  0.00  0.00    +0.000 C 
ENDBRANCH  12  13
ENDBRANCH   8  12
ENDBRANCH   5   8
ENDBRANCH   1   2
BRANCH   1  18
ATOM     18  N   UNL     1      48.107   6.428  16.459  0.00  0.00    +0.000 NA
ATOM     19  H   UNL     1      48.444   7.225  16.997  0.00  0.00    +0.000 HD
BRANCH  18  20
ATOM     20  C   UNL     1      48.600   5.210  17.132  0.00  0.00    +0.000 C 
BRANCH  20  21
ATOM     21  C   UNL     1      49.088   5.633  18.509  0.00  0.00    +0.000 A 
ATOM     22  C   UNL     1      48.286   5.897  19.611  0.00  0.00    +0.000 A 
ATOM     23  S   UNL     1      49.174   6.293  21.018  0.00  0.00    +0.000 S 
ATOM     24  C   UNL     1      50.656   6.171  20.192  0.00  0.00    +0.000 A 
ATOM     25  N   UNL     1      51.842   6.397  20.817  0.00  0.00    +0.000 NA
ATOM     26  C   UNL     1      52.880   6.277  20.055  0.00  0.00    +0.000 A 
ATOM     27  N   UNL     1      52.839   5.958  18.721  0.00  0.00    +0.000 N 
ATOM     28  C   UNL     1      51.664   5.741  18.039  0.00  0.00    +0.000 A 
ATOM     29  O   UNL     1      51.635   5.516  16.832  0.00  0.00    +0.000 OA
ATOM     30  C   UNL     1      50.474   5.838  18.864  0.00  0.00    +0.000 A 
ATOM     31  H   UNL     1      53.688   5.899  18.182  0.00  0.00    +0.000 HD
ENDBRANCH  20  21
BRANCH  20  33
ATOM     32  N   UNL     1      46.775   3.298  17.331  0.00  0.00    +0.000 NA
ATOM     33  C   UNL     1      47.585   4.130  17.249  0.00  0.00    +0.000 C 
ENDBRANCH  20  33
ENDBRANCH  18  20
ENDBRANCH   1  18
TORSDOF 10
ENDMDL
MODEL 5
REMARK VINA RESULT:    -6.437      2.676      3.849
REMARK INTER + INTRA:         -11.296
REMARK INTER:                 -10.210
REMARK INTRA:                  -1.086
REMARK UNBOUND:                -1.285
REMARK  Name = 
REMARK  10 active torsions:
REMARK  status: ('A' for Active; 'I' for Inactive)
REMARK    1  A    between atoms: C_2  and  C_3
REMARK    2  A    between atoms: C_3  and  N_4
REMARK    3  A    between atoms: C_3  and  C_21
REMARK    4  A    between atoms: N_4  and  C_5
REMARK    5  A    between atoms: C_5  and  C_6
REMARK    6  A    between atoms: C_9  and  C_10
REMARK    7  A    between atoms: C_10  and  C_11
REMARK    8  A    between atoms: C_10  and  C_13
REMARK    9  A    between atoms: C_11  and  O_12
REMARK   10  A    between atoms: C_13  and  N_14
REMARK                            x       y       z     vdW  Elec       q    Type
REMARK                         _______ _______ _______ _____ _____    ______ ____
ROOT
ATOM      1  C   UNL     1      46.535   8.817  12.923  0.00  0.00    +0.000 C 
ENDROOT
BRANCH   1   2
ATOM      2  C   UNL     1      45.935   7.531  12.403  0.00  0.00    +0.000 A 
ATOM      3  C   UNL     1      46.582   6.800  11.404  0.00  0.00    +0.000 A 
ATOM      4  C   UNL     1      46.043   5.601  10.937  0.00  0.00    +0.000 A 
ATOM      5  C   UNL     1      44.840   5.089  11.449  0.00  0.00    +0.000 A 
ATOM      6  C   UNL     1      44.204   5.817  12.467  0.00  0.00    +0.000 A 
ATOM      7  C   UNL     1      44.746   7.020  12.940  0.00  0.00    +0.000 A 
BRANCH   5   8
ATOM      8  C   UNL     1      44.176   3.823  10.891  0.00  0.00    +0.000 C 
BRANCH   8   9
ATOM      9  C   UNL     1      43.394   3.034  11.963  0.00  0.00    +0.000 C 
BRANCH   9  10
ATOM     10  O   UNL     1      43.034   1.727  11.527  0.00  0.00    +0.000 OA
ATOM     11  H   UNL     1      42.085   1.615  11.706  0.00  0.00    +0.000 HD
ENDBRANCH   9  10
ENDBRANCH   8   9
BRANCH   8  12
ATOM     12  C   UNL     1      45.176   2.907  10.131  0.00  0.00    +0.000 C 
BRANCH  12  13
ATOM     13  N   UNL     1      44.772   2.453   8.789  0.00  0.00    +0.000 NA
ATOM     14  C   UNL     1      45.677   1.384   8.324  0.00  0.00    +0.000 C 
ATOM     15  C   UNL     1      46.824   2.114   7.651  0.00  0.00    +0.000 C 
ATOM     16  C   UNL     1      46.120   3.254   6.946  0.00  0.00    +0.000 C 
ATOM     17  C   UNL     1      44.870   3.520   7.776  0.00  0.00    +0.000 C 
ENDBRANCH  12  13
ENDBRANCH   8  12
ENDBRANCH   5   8
ENDBRANCH   1   2
BRANCH   1  18
ATOM     18  N   UNL     1      47.080   8.663  14.278  0.00  0.00    +0.000 NA
ATOM     19  H   UNL     1      46.530   9.250  14.904  0.00  0.00    +0.000 HD
BRANCH  18  20
ATOM     20  C   UNL     1      48.475   9.140  14.351  0.00  0.00    +0.000 C 
BRANCH  20  21
ATOM     21  C   UNL     1      48.970   8.844  15.758  0.00  0.00    +0.000 A 
ATOM     22  C   UNL     1      49.494   9.772  16.648  0.00  0.00    +0.000 A 
ATOM     23  S   UNL     1      49.900   9.100  18.167  0.00  0.00    +0.000 S 
ATOM     24  C   UNL     1      49.436   7.541  17.672  0.00  0.00    +0.000 A 
ATOM     25  N   UNL     1      49.534   6.469  18.504  0.00  0.00    +0.000 NA
ATOM     26  C   UNL     1      49.153   5.350  17.980  0.00  0.00    +0.000 A 
ATOM     27  N   UNL     1      48.689   5.203  16.698  0.00  0.00    +0.000 N 
ATOM     28  C   UNL     1      48.592   6.251  15.812  0.00  0.00    +0.000 A 
ATOM     29  O   UNL     1      48.233   6.098  14.648  0.00  0.00    +0.000 OA
ATOM     30  C   UNL     1      48.983   7.533  16.368  0.00  0.00    +0.000 A 
ATOM     31  H   UNL     1      48.426   4.295  16.348  0.00  0.00    +0.000 HD
ENDBRANCH  20  21
BRANCH  20  33
ATOM     32  N   UNL     1      50.096   8.070  12.547  0.00  0.00    +0.000 NA
ATOM     33  C   UNL     1      49.377   8.528  13.341  0.00  0.00    +0.000 C 
ENDBRANCH  20  33
ENDBRANCH  18  20
ENDBRANCH   1  18
TORSDOF 10
ENDMDL
MODEL 6
REMARK VINA RESULT:    -6.065      1.807      2.248
REMARK INTER + INTRA:         -10.718
REMARK INTER:                  -9.653
REMARK INTRA:                  -1.066
REMARK UNBOUND:                -1.285
REMARK  Name = 
REMARK  10 active torsions:
REMARK  status: ('A' for Active; 'I' for Inactive)
REMARK    1  A    between atoms: C_2  and  C_3
REMARK    2  A    between atoms: C_3  and  N_4
REMARK    3  A    between atoms: C_3  and  C_21
REMARK    4  A    between atoms: N_4  and  C_5
REMARK    5  A    between atoms: C_5  and  C_6
REMARK    6  A    between atoms: C_9  and  C_10
REMARK    7  A    between atoms: C_10  and  C_11
REMARK    8  A    between atoms: C_10  and  C_13
REMARK    9  A    between atoms: C_11  and  O_12
REMARK   10  A    between atoms: C_13  and  N_14
REMARK                            x       y       z     vdW  Elec       q    Type
REMARK                         _______ _______ _______ _____ _____    ______ ____
ROOT
ATOM      1  C   UNL     1      47.999   7.455  13.862  0.00  0.00    +0.000 C 
ENDROOT
BRANCH   1   2
ATOM      2  C   UNL     1      46.900   6.685  13.165  0.00  0.00    +0.000 A 
ATOM      3  C   UNL     1      46.216   7.249  12.084  0.00  0.00    +0.000 A 
ATOM      4  C   UNL     1      45.217   6.533  11.424  0.00  0.00    +0.000 A 
ATOM      5  C   UNL     1      44.863   5.233  11.818  0.00  0.00    +0.000 A 
ATOM      6  C   UNL     1      45.567   4.664  12.891  0.00  0.00    +0.000 A 
ATOM      7  C   UNL     1      46.574   5.380  13.554  0.00  0.00    +0.000 A 
BRANCH   5   8
ATOM      8  C   UNL     1      43.707   4.458  11.171  0.00  0.00    +0.000 C 
BRANCH   8   9
ATOM      9  C   UNL     1      43.162   3.331  12.072  0.00  0.00    +0.000 C 
BRANCH   9  10
ATOM     10  O   UNL     1      43.146   2.066  11.417  0.00  0.00    +0.000 OA
ATOM     11  H   UNL     1      42.686   1.443  12.007  0.00  0.00    +0.000 HD
ENDBRANCH   9  10
ENDBRANCH   8   9
BRANCH   8  12
ATOM     12  C   UNL     1      44.059   3.930   9.753  0.00  0.00    +0.000 C 
BRANCH  12  13
ATOM     13  N   UNL     1      45.459   3.532   9.522  0.00  0.00    +0.000 NA
ATOM     14  C   UNL     1      46.026   4.307   8.401  0.00  0.00    +0.000 C 
ATOM     15  C   UNL     1      45.672   3.509   7.160  0.00  0.00    +0.000 C 
ATOM     16  C   UNL     1      45.852   2.079   7.627  0.00  0.00    +0.000 C 
ATOM     17  C   UNL     1      45.589   2.118   9.128  0.00  0.00    +0.000 C 
ENDBRANCH  12  13
ENDBRANCH   8  12
ENDBRANCH   5   8
ENDBRANCH   1   2
BRANCH   1  18
ATOM     18  N   UNL     1      49.004   6.564  14.456  0.00  0.00    +0.000 NA
ATOM     19  H   UNL     1      48.672   5.606  14.354  0.00  0.00    +0.000 HD
BRANCH  18  20
ATOM     20  C   UNL     1      49.157   6.819  15.901  0.00  0.00    +0.000 C 
BRANCH  20  21
ATOM     21  C   UNL     1      50.609   6.532  16.250  0.00  0.00    +0.000 A 
ATOM     22  C   UNL     1      51.707   7.274  15.835  0.00  0.00    +0.000 A 
ATOM     23  S   UNL     1      53.190   6.698  16.462  0.00  0.00    +0.000 S 
ATOM     24  C   UNL     1      52.423   5.414  17.270  0.00  0.00    +0.000 A 
ATOM     25  N   UNL     1      53.125   4.514  18.009  0.00  0.00    +0.000 NA
ATOM     26  C   UNL     1      52.403   3.589  18.553  0.00  0.00    +0.000 A 
ATOM     27  N   UNL     1      51.041   3.479  18.420  0.00  0.00    +0.000 N 
ATOM     28  C   UNL     1      50.289   4.350  17.667  0.00  0.00    +0.000 A 
ATOM     29  O   UNL     1      49.081   4.207  17.505  0.00  0.00    +0.000 OA
ATOM     30  C   UNL     1      51.057   5.423  17.061  0.00  0.00    +0.000 A 
ATOM     31  H   UNL     1      50.543   2.720  18.858  0.00  0.00    +0.000 HD
ENDBRANCH  20  21
BRANCH  20  33
ATOM     32  N   UNL     1      48.514   9.285  16.632  0.00  0.00    +0.000 NA
ATOM     33  C   UNL     1      48.784   8.198  16.316  0.00  0.00    +0.000 C 
ENDBRANCH  20  33
ENDBRANCH  18  20
ENDBRANCH   1  18
TORSDOF 10
ENDMDL
MODEL 7
REMARK VINA RESULT:    -5.994      3.105      3.736
REMARK INTER + INTRA:         -10.607
REMARK INTER:                  -9.221
REMARK INTRA:                  -1.386
REMARK UNBOUND:                -1.285
REMARK  Name = 
REMARK  10 active torsions:
REMARK  status: ('A' for Active; 'I' for Inactive)
REMARK    1  A    between atoms: C_2  and  C_3
REMARK    2  A    between atoms: C_3  and  N_4
REMARK    3  A    between atoms: C_3  and  C_21
REMARK    4  A    between atoms: N_4  and  C_5
REMARK    5  A    between atoms: C_5  and  C_6
REMARK    6  A    between atoms: C_9  and  C_10
REMARK    7  A    between atoms: C_10  and  C_11
REMARK    8  A    between atoms: C_10  and  C_13
REMARK    9  A    between atoms: C_11  and  O_12
REMARK   10  A    between atoms: C_13  and  N_14
REMARK                            x       y       z     vdW  Elec       q    Type
REMARK                         _______ _______ _______ _____ _____    ______ ____
ROOT
ATOM      1  C   UNL     1      48.442   6.321  15.318  0.00  0.00    +0.000 C 
ENDROOT
BRANCH   1   2
ATOM      2  C   UNL     1      47.514   5.885  14.208  0.00  0.00    +0.000 A 
ATOM      3  C   UNL     1      47.394   6.649  13.045  0.00  0.00    +0.000 A 
ATOM      4  C   UNL     1      46.555   6.239  12.007  0.00  0.00    +0.000 A 
ATOM      5  C   UNL     1      45.807   5.054  12.095  0.00  0.00    +0.000 A 
ATOM      6  C   UNL     1      45.947   4.280  13.257  0.00  0.00    +0.000 A 
ATOM      7  C   UNL     1      46.792   4.688  14.298  0.00  0.00    +0.000 A 
BRANCH   5   8
ATOM      8  C   UNL     1      44.807   4.626  11.011  0.00  0.00    +0.000 C 
BRANCH   8   9
ATOM      9  C   UNL     1      43.339   4.817  11.442  0.00  0.00    +0.000 C 
BRANCH   9  10
ATOM     10  O   UNL     1      42.610   3.593  11.462  0.00  0.00    +0.000 OA
ATOM     11  H   UNL     1      42.542   3.315  12.392  0.00  0.00    +0.000 HD
ENDBRANCH   9  10
ENDBRANCH   8   9
BRANCH   8  12
ATOM     12  C   UNL     1      45.064   3.181  10.497  0.00  0.00    +0.000 C 
BRANCH  12  13
ATOM     13  N   UNL     1      44.523   2.844   9.168  0.00  0.00    +0.000 NA
ATOM     14  C   UNL     1      45.046   1.536   8.728  0.00  0.00    +0.000 C 
ATOM     15  C   UNL     1      46.355   1.856   8.033  0.00  0.00    +0.000 C 
ATOM     16  C   UNL     1      46.032   3.142   7.300  0.00  0.00    +0.000 C 
ATOM     17  C   UNL     1      44.936   3.803   8.128  0.00  0.00    +0.000 C 
ENDBRANCH  12  13
ENDBRANCH   8  12
ENDBRANCH   5   8
ENDBRANCH   1   2
BRANCH   1  18
ATOM     18  N   UNL     1      48.290   7.747  15.636  0.00  0.00    +0.000 NA
ATOM     19  H   UNL     1      48.269   8.262  14.757  0.00  0.00    +0.000 HD
BRANCH  18  20
ATOM     20  C   UNL     1      49.445   8.249  16.405  0.00  0.00    +0.000 C 
BRANCH  20  21
ATOM     21  C   UNL     1      50.568   8.493  15.410  0.00  0.00    +0.000 A 
ATOM     22  C   UNL     1      50.544   9.405  14.363  0.00  0.00    +0.000 A 
ATOM     23  S   UNL     1      52.003   9.456  13.474  0.00  0.00    +0.000 S 
ATOM     24  C   UNL     1      52.700   8.231  14.425  0.00  0.00    +0.000 A 
ATOM     25  N   UNL     1      53.961   7.778  14.195  0.00  0.00    +0.000 NA
ATOM     26  C   UNL     1      54.346   6.838  14.995  0.00  0.00    +0.000 A 
ATOM     27  N   UNL     1      53.581   6.304  16.001  0.00  0.00    +0.000 N 
ATOM     28  C   UNL     1      52.293   6.712  16.260  0.00  0.00    +0.000 A 
ATOM     29  O   UNL     1      51.597   6.186  17.123  0.00  0.00    +0.000 OA
ATOM     30  C   UNL     1      51.830   7.788  15.403  0.00  0.00    +0.000 A 
ATOM     31  H   UNL     1      53.939   5.558  16.576  0.00  0.00    +0.000 HD
ENDBRANCH  20  21
BRANCH  20  33
ATOM     32  N   UNL     1      48.920  10.443  17.798  0.00  0.00    +0.000 NA
ATOM     33  C   UNL     1      49.163   9.483  17.184  0.00  0.00    +0.000 C 
ENDBRANCH  20  33
ENDBRANCH  18  20
ENDBRANCH   1  18
TORSDOF 10
ENDMDL
MODEL 8
REMARK VINA RESULT:    -5.904      4.039      5.218
REMARK INTER + INTRA:         -10.467
REMARK INTER:                  -9.261
REMARK INTRA:                  -1.206
REMARK UNBOUND:                -1.285
REMARK  Name = 
REMARK  10 active torsions:
REMARK  status: ('A' for Active; 'I' for Inactive)
REMARK    1  A    between atoms: C_2  and  C_3
REMARK    2  A    between atoms: C_3  and  N_4
REMARK    3  A    between atoms: C_3  and  C_21
REMARK    4  A    between atoms: N_4  and  C_5
REMARK    5  A    between atoms: C_5  and  C_6
REMARK    6  A    between atoms: C_9  and  C_10
REMARK    7  A    between atoms: C_10  and  C_11
REMARK    8  A    between atoms: C_10  and  C_13
REMARK    9  A    between atoms: C_11  and  O_12
REMARK   10  A    between atoms: C_13  and  N_14
REMARK                            x       y       z     vdW  Elec       q    Type
REMARK                         _______ _______ _______ _____ _____    ______ ____
ROOT
ATOM      1  C   UNL     1      47.124   8.340  13.535  0.00  0.00    +0.000 C 
ENDROOT
BRANCH   1   2
ATOM      2  C   UNL     1      46.388   7.173  12.919  0.00  0.00    +0.000 A 
ATOM      3  C   UNL     1      46.412   5.917  13.531  0.00  0.00    +0.000 A 
ATOM      4  C   UNL     1      45.715   4.842  12.978  0.00  0.00    +0.000 A 
ATOM      5  C   UNL     1      44.971   4.981  11.796  0.00  0.00    +0.000 A 
ATOM      6  C   UNL     1      44.933   6.249  11.196  0.00  0.00    +0.000 A 
ATOM      7  C   UNL     1      45.629   7.331  11.752  0.00  0.00    +0.000 A 
BRANCH   5   8
ATOM      8  C   UNL     1      44.271   3.796  11.115  0.00  0.00    +0.000 C 
BRANCH   8   9
ATOM      9  C   UNL     1      43.478   2.919  12.106  0.00  0.00    +0.000 C 
BRANCH   9  10
ATOM     10  O   UNL     1      43.004   1.714  11.513  0.00  0.00    +0.000 OA
ATOM     11  H   UNL     1      42.519   1.227  12.201  0.00  0.00    +0.000 HD
ENDBRANCH   9  10
ENDBRANCH   8   9
BRANCH   8  12
ATOM     12  C   UNL     1      45.242   2.942  10.254  0.00  0.00    +0.000 C 
BRANCH  12  13
ATOM     13  N   UNL     1      44.752   2.510   8.932  0.00  0.00    +0.000 NA
ATOM     14  C   UNL     1      45.590   1.408   8.420  0.00  0.00    +0.000 C 
ATOM     15  C   UNL     1      46.728   2.095   7.690  0.00  0.00    +0.000 C 
ATOM     16  C   UNL     1      46.034   3.265   7.025  0.00  0.00    +0.000 C 
ATOM     17  C   UNL     1      44.840   3.576   7.919  0.00  0.00    +0.000 C 
ENDBRANCH  12  13
ENDBRANCH   8  12
ENDBRANCH   5   8
ENDBRANCH   1   2
BRANCH   1  18
ATOM     18  N   UNL     1      48.479   8.486  12.989  0.00  0.00    +0.000 NA
ATOM     19  H   UNL     1      48.508   8.006  12.090  0.00  0.00    +0.000 HD
BRANCH  18  20
ATOM     20  C   UNL     1      49.480   7.838  13.859  0.00  0.00    +0.000 C 
BRANCH  20  21
ATOM     21  C   UNL     1      50.776   8.618  13.701  0.00  0.00    +0.000 A 
ATOM     22  C   UNL     1      51.363   9.424  14.666  0.00  0.00    +0.000 A 
ATOM     23  S   UNL     1      52.850  10.106  14.168  0.00  0.00    +0.000 S 
ATOM     24  C   UNL     1      52.736   9.388  12.631  0.00  0.00    +0.000 A 
ATOM     25  N   UNL     1      53.695   9.571  11.685  0.00  0.00    +0.000 NA
ATOM     26  C   UNL     1      53.462   8.969  10.564  0.00  0.00    +0.000 A 
ATOM     27  N   UNL     1      52.354   8.205  10.301  0.00  0.00    +0.000 N 
ATOM     28  C   UNL     1      51.346   8.007  11.216  0.00  0.00    +0.000 A 
ATOM     29  O   UNL     1      50.330   7.373  10.950  0.00  0.00    +0.000 OA
ATOM     30  C   UNL     1      51.581   8.643  12.500  0.00  0.00    +0.000 A 
ATOM     31  H   UNL     1      52.227   7.779   9.396  0.00  0.00    +0.000 HD
ENDBRANCH  20  21
BRANCH  20  33
ATOM     32  N   UNL     1      48.771   7.695  16.409  0.00  0.00    +0.000 NA
ATOM     33  C   UNL     1      49.084   7.771  15.290  0.00  0.00    +0.000 C 
ENDBRANCH  20  33
ENDBRANCH  18  20
ENDBRANCH   1  18
TORSDOF 10
ENDMDL
MODEL 9
REMARK VINA RESULT:    -5.773      2.906      3.741
REMARK INTER + INTRA:         -10.265
REMARK INTER:                  -9.097
REMARK INTRA:                  -1.168
REMARK UNBOUND:                -1.285
REMARK  Name = 
REMARK  10 active torsions:
REMARK  status: ('A' for Active; 'I' for Inactive)
REMARK    1  A    between atoms: C_2  and  C_3
REMARK    2  A    between atoms: C_3  and  N_4
REMARK    3  A    between atoms: C_3  and  C_21
REMARK    4  A    between atoms: N_4  and  C_5
REMARK    5  A    between atoms: C_5  and  C_6
REMARK    6  A    between atoms: C_9  and  C_10
REMARK    7  A    between atoms: C_10  and  C_11
REMARK    8  A    between atoms: C_10  and  C_13
REMARK    9  A    between atoms: C_11  and  O_12
REMARK   10  A    between atoms: C_13  and  N_14
REMARK                            x       y       z     vdW  Elec       q    Type
REMARK                         _______ _______ _______ _____ _____    ______ ____
ROOT
ATOM      1  C   UNL     1      48.689   9.263  14.019  0.00  0.00    +0.000 C 
ENDROOT
BRANCH   1   2
ATOM      2  C   UNL     1      47.658   8.304  13.470  0.00  0.00    +0.000 A 
ATOM      3  C   UNL     1      46.348   8.731  13.235  0.00  0.00    +0.000 A 
ATOM      4  C   UNL     1      45.398   7.856  12.707  0.00  0.00    +0.000 A 
ATOM      5  C   UNL     1      45.720   6.525  12.396  0.00  0.00    +0.000 A 
ATOM      6  C   UNL     1      47.042   6.107  12.615  0.00  0.00    +0.000 A 
ATOM      7  C   UNL     1      47.999   6.986  13.141  0.00  0.00    +0.000 A 
BRANCH   5   8
ATOM      8  C   UNL     1      44.675   5.515  11.902  0.00  0.00    +0.000 C 
BRANCH   8   9
ATOM      9  C   UNL     1      43.913   4.829  13.054  0.00  0.00    +0.000 C 
BRANCH   9  10
ATOM     10  O   UNL     1      42.720   5.521  13.411  0.00  0.00    +0.000 OA
ATOM     11  H   UNL     1      42.906   6.010  14.231  0.00  0.00    +0.000 HD
ENDBRANCH   9  10
ENDBRANCH   8   9
BRANCH   8  12
ATOM     12  C   UNL     1      45.270   4.472  10.915  0.00  0.00    +0.000 C 
BRANCH  12  13
ATOM     13  N   UNL     1      44.419   4.069   9.781  0.00  0.00    +0.000 NA
ATOM     14  C   UNL     1      44.238   2.605   9.781  0.00  0.00    +0.000 C 
ATOM     15  C   UNL     1      45.416   2.069   8.991  0.00  0.00    +0.000 C 
ATOM     16  C   UNL     1      45.565   3.095   7.886  0.00  0.00    +0.000 C 
ATOM     17  C   UNL     1      45.023   4.391   8.477  0.00  0.00    +0.000 C 
ENDBRANCH  12  13
ENDBRANCH   8  12
ENDBRANCH   5   8
ENDBRANCH   1   2
BRANCH   1  18
ATOM     18  N   UNL     1      49.661   8.588  14.888  0.00  0.00    +0.000 NA
ATOM     19  H   UNL     1      49.633   7.592  14.674  0.00  0.00    +0.000 HD
BRANCH  18  20
ATOM     20  C   UNL     1      49.301   8.737  16.311  0.00  0.00    +0.000 C 
BRANCH  20  21
ATOM     21  C   UNL     1      49.528   7.386  16.969  0.00  0.00    +0.000 A 
ATOM     22  C   UNL     1      50.398   6.400  16.523  0.00  0.00    +0.000 A 
ATOM     23  S   UNL     1      50.445   5.025  17.539  0.00  0.00    +0.000 S 
ATOM     24  C   UNL     1      49.272   5.679  18.582  0.00  0.00    +0.000 A 
ATOM     25  N   UNL     1      48.836   5.003  19.679  0.00  0.00    +0.000 NA
ATOM     26  C   UNL     1      47.936   5.626  20.368  0.00  0.00    +0.000 A 
ATOM     27  N   UNL     1      47.426   6.861  20.055  0.00  0.00    +0.000 N 
ATOM     28  C   UNL     1      47.817   7.574  18.946  0.00  0.00    +0.000 A 
ATOM     29  O   UNL     1      47.311   8.650  18.642  0.00  0.00    +0.000 OA
ATOM     30  C   UNL     1      48.850   6.924  18.159  0.00  0.00    +0.000 A 
ATOM     31  H   UNL     1      46.710   7.280  20.627  0.00  0.00    +0.000 HD
ENDBRANCH  20  21
BRANCH  20  33
ATOM     32  N   UNL     1      50.681  10.620  17.567  0.00  0.00    +0.000 NA
ATOM     33  C   UNL     1      50.064   9.797  17.021  0.00  0.00    +0.000 C 
ENDBRANCH  20  33
ENDBRANCH  18  20
ENDBRANCH   1  18
TORSDOF 10
ENDMDL
