MODEL 1
REMARK VINA RESULT:    -7.411      0.000      0.000
REMARK INTER + INTRA:         -10.661
REMARK INTER:                 -10.011
REMARK INTRA:                  -0.650
REMARK UNBOUND:                -0.650
REMARK  Name = 
REMARK  7 active torsions:
REMARK  status: ('A' for Active; 'I' for Inactive)
REMARK    1  A    between atoms: N_1  and  C_2
REMARK    2  A    between atoms: C_2  and  C_3
REMARK    3  A    between atoms: C_6  and  O_7
REMARK    4  A    between atoms: O_7  and  C_8
REMARK    5  A    between atoms: C_8  and  C_9
REMARK    6  A    between atoms: C_9  and  O_10
REMARK    7  A    between atoms: C_9  and  C_11
REMARK                            x       y       z     vdW  Elec       q    Type
REMARK                         _______ _______ _______ _____ _____    ______ ____
ROOT
ATOM      1  O   UNL     1      44.005   2.379  10.198  0.00  0.00    +0.000 OA
ENDROOT
BRANCH   1   5
ATOM      2  C   UNL     1      46.506   2.667   6.929  0.00  0.00    +0.000 A 
ATOM      3  C   UNL     1      45.697   3.750   7.292  0.00  0.00    +0.000 A 
ATOM      4  C   UNL     1      44.846   3.644   8.391  0.00  0.00    +0.000 A 
ATOM      5  C   UNL     1      44.848   2.459   9.107  0.00  0.00    +0.000 A 
ATOM      6  N   UNL     1      45.593   1.387   8.772  0.00  0.00    +0.000 NA
ATOM      7  C   UNL     1      46.399   1.514   7.695  0.00  0.00    +0.000 A 
BRANCH   2   8
ATOM      8  C   UNL     1      47.445   2.732   5.760  0.00  0.00    +0.000 C 
BRANCH   8   9
ATOM      9  N   UNL     1      48.507   1.739   5.868  0.00  0.00    +0.000 NA
ATOM     10  H   UNL     1      49.280   2.131   6.402  0.00  0.00    +0.000 HD
ATOM     11  H   UNL     1      48.874   1.540   4.938  0.00  0.00    +0.000 HD
ENDBRANCH   8   9
ENDBRANCH   2   8
ENDBRANCH   1   5
BRANCH   1  12
ATOM     12  C   UNL     1      43.751   3.672  10.776  0.00  0.00    +0.000 C 
BRANCH  12  13
ATOM     13  C   UNL     1      44.413   3.780  12.161  0.00  0.00    +0.000 C 
BRANCH  13  14
ATOM     14  C   UNL     1      45.548   4.779  12.310  0.00  0.00    +0.000 A 
ATOM     15  C   UNL     1      45.819   5.787  11.370  0.00  0.00    +0.000 A 
ATOM     16  C   UNL     1      46.859   6.697  11.577  0.00  0.00    +0.000 A 
ATOM     17  C   UNL     1      47.642   6.618  12.725  0.00  0.00    +0.000 A 
ATOM     18  C   UNL     1      47.388   5.627  13.669  0.00  0.00    +0.000 A 
ATOM     19  C   UNL     1      46.353   4.715  13.462  0.00  0.00    +0.000 A 
ENDBRANCH  13  14
BRANCH  13  20
ATOM     20  O   UNL     1      44.879   2.490  12.569  0.00  0.00    +0.000 OA
ATOM     21  H   UNL     1      44.086   1.924  12.580  0.00  0.00    +0.000 HD
ENDBRANCH  13  20
ENDBRANCH  12  13
ENDBRANCH   1  12
TORSDOF 7
ENDMDL
MODEL 2
REMARK VINA RESULT:    -7.343      1.556      1.797
REMARK INTER + INTRA:         -10.569
REMARK INTER:                  -9.993
REMARK INTRA:                  -0.576
REMARK UNBOUND:                -0.650
REMARK  Name = 
REMARK  7 active torsions:
REMARK  status: ('A' for Active; 'I' for Inactive)
REMARK    1  A    between atoms: N_1  and  C_2
REMARK    2  A    between atoms: C_2  and  C_3
REMARK    3  A    between atoms: C_6  and  O_7
REMARK    4  A    between atoms: O_7  and  C_8
REMARK    5  A    between atoms: C_8  and  C_9
REMARK    6  A    between atoms: C_9  and  O_10
REMARK    7  A    between atoms: C_9  and  C_11
REMARK                            x       y       z     vdW  Elec       q    Type
REMARK                         _______ _______ _______ _____ _____    ______ ____
ROOT
ATOM      1  O   UNL     1      43.579   4.748   9.643  0.00  0.00    +0.000 OA
ENDROOT
BRANCH   1   5
ATOM      2  C   UNL     1      46.374   2.297   7.855  0.00  0.00    +0.000 A 
ATOM      3  C   UNL     1      45.462   1.767   8.774  0.00  0.00    +0.000 A 
ATOM      4  C   UNL     1      44.526   2.601   9.383  0.00  0.00    +0.000 A 
ATOM      5  C   UNL     1      44.520   3.941   9.036  0.00  0.00    +0.000 A 
ATOM      6  N   UNL     1      45.400   4.492   8.175  0.00  0.00    +0.000 NA
ATOM      7  C   UNL     1      46.303   3.662   7.609  0.00  0.00    +0.000 A 
BRANCH   2   8
ATOM      8  C   UNL     1      47.396   1.441   7.164  0.00  0.00    +0.000 C 
BRANCH   8   9
ATOM      9  N   UNL     1      48.420   2.248   6.512  0.00  0.00    +0.000 NA
ATOM     10  H   UNL     1      49.301   2.138   7.010  0.00  0.00    +0.000 HD
ATOM     11  H   UNL     1      48.170   3.233   6.590  0.00  0.00    +0.000 HD
ENDBRANCH   8   9
ENDBRANCH   2   8
ENDBRANCH   1   5
BRANCH   1  12
ATOM     12  C   UNL     1      43.394   4.408  11.030  0.00  0.00    +0.000 C 
BRANCH  12  13
ATOM     13  C   UNL     1      43.747   5.607  11.927  0.00  0.00    +0.000 C 
BRANCH  13  14
ATOM     14  C   UNL     1      45.213   5.808  12.269  0.00  0.00    +0.000 A 
ATOM     15  C   UNL     1      46.060   6.676  11.562  0.00  0.00    +0.000 A 
ATOM     16  C   UNL     1      47.394   6.843  11.943  0.00  0.00    +0.000 A 
ATOM     17  C   UNL     1      47.902   6.150  13.037  0.00  0.00    +0.000 A 
ATOM     18  C   UNL     1      47.079   5.285  13.753  0.00  0.00    +0.000 A 
ATOM     19  C   UNL     1      45.748   5.115  13.371  0.00  0.00    +0.000 A 
ENDBRANCH  13  14
BRANCH  13  20
ATOM     20  O   UNL     1      42.996   5.531  13.143  0.00  0.00    +0.000 OA
ATOM     21  H   UNL     1      43.632   5.743  13.850  0.00  0.00    +0.000 HD
ENDBRANCH  13  20
ENDBRANCH  12  13
ENDBRANCH   1  12
TORSDOF 7
ENDMDL
MODEL 3
REMARK VINA RESULT:    -7.133      2.546      6.100
REMARK INTER + INTRA:         -10.285
REMARK INTER:                  -9.826
REMARK INTRA:                  -0.459
REMARK UNBOUND:                -0.650
REMARK  Name = 
REMARK  7 active torsions:
REMARK  status: ('A' for Active; 'I' for Inactive)
REMARK    1  A    between atoms: N_1  and  C_2
REMARK    2  A    between atoms: C_2  and  C_3
REMARK    3  A    between atoms: C_6  and  O_7
REMARK    4  A    between atoms: O_7  and  C_8
REMARK    5  A    between atoms: C_8  and  C_9
REMARK    6  A    between atoms: C_9  and  O_10
REMARK    7  A    between atoms: C_9  and  C_11
REMARK                            x       y       z     vdW  Elec       q    Type
REMARK                         _______ _______ _______ _____ _____    ______ ____
ROOT
ATOM      1  O   UNL     1      44.238   4.208  11.264  0.00  0.00    +0.000 OA
ENDROOT
BRANCH   1   5
ATOM      2  C   UNL     1      47.212   5.993  13.497  0.00  0.00    +0.000 A 
ATOM      3  C   UNL     1      46.863   6.517  12.247  0.00  0.00    +0.000 A 
ATOM      4  C   UNL     1      45.865   5.904  11.492  0.00  0.00    +0.000 A 
ATOM      5  C   UNL     1      45.231   4.794  12.023  0.00  0.00    +0.000 A 
ATOM      6  N   UNL     1      45.559   4.246  13.211  0.00  0.00    +0.000 NA
ATOM      7  C   UNL     1      46.538   4.854  13.916  0.00  0.00    +0.000 A 
BRANCH   2   8
ATOM      8  C   UNL     1      48.274   6.620  14.354  0.00  0.00    +0.000 C 
BRANCH   8   9
ATOM      9  N   UNL     1      49.515   6.815  13.615  0.00  0.00    +0.000 NA
ATOM     10  H   UNL     1      50.217   7.211  14.237  0.00  0.00    +0.000 HD
ATOM     11  H   UNL     1      49.363   7.506  12.881  0.00  0.00    +0.000 HD
ENDBRANCH   8   9
ENDBRANCH   2   8
ENDBRANCH   1   5
BRANCH   1  12
ATOM     12  C   UNL     1      44.690   2.997  10.631  0.00  0.00    +0.000 C 
BRANCH  12  13
ATOM     13  C   UNL     1      44.423   3.051   9.117  0.00  0.00    +0.000 C 
BRANCH  13  14
ATOM     14  C   UNL     1      45.557   2.633   8.197  0.00  0.00    +0.000 A 
ATOM     15  C   UNL     1      46.151   1.362   8.231  0.00  0.00    +0.000 A 
ATOM     16  C   UNL     1      47.172   1.024   7.339  0.00  0.00    +0.000 A 
ATOM     17  C   UNL     1      47.613   1.949   6.397  0.00  0.00    +0.000 A 
ATOM     18  C   UNL     1      47.036   3.215   6.345  0.00  0.00    +0.000 A 
ATOM     19  C   UNL     1      46.020   3.554   7.239  0.00  0.00    +0.000 A 
ENDBRANCH  13  14
BRANCH  13  20
ATOM     20  O   UNL     1      43.996   4.368   8.754  0.00  0.00    +0.000 OA
ATOM     21  H   UNL     1      43.705   4.296   7.827  0.00  0.00    +0.000 HD
ENDBRANCH  13  20
ENDBRANCH  12  13
ENDBRANCH   1  12
TORSDOF 7
ENDMDL
MODEL 4
REMARK VINA RESULT:    -6.696      2.869      6.254
REMARK INTER + INTRA:          -9.694
REMARK INTER:                  -9.265
REMARK INTRA:                  -0.429
REMARK UNBOUND:                -0.650
REMARK  Name = 
REMARK  7 active torsions:
REMARK  status: ('A' for Active; 'I' for Inactive)
REMARK    1  A    between atoms: N_1  and  C_2
REMARK    2  A    between atoms: C_2  and  C_3
REMARK    3  A    between atoms: C_6  and  O_7
REMARK    4  A    between atoms: O_7  and  C_8
REMARK    5  A    between atoms: C_8  and  C_9
REMARK    6  A    between atoms: C_9  and  O_10
REMARK    7  A    between atoms: C_9  and  C_11
REMARK                            x       y       z     vdW  Elec       q    Type
REMARK                         _______ _______ _______ _____ _____    ______ ____
ROOT
ATOM      1  O   UNL     1      43.830   4.071  11.359  0.00  0.00    +0.000 OA
ENDROOT
BRANCH   1   5
ATOM      2  C   UNL     1      45.939   7.310  12.801  0.00  0.00    +0.000 A 
ATOM      3  C   UNL     1      46.226   6.022  13.266  0.00  0.00    +0.000 A 
ATOM      4  C   UNL     1      45.504   4.932  12.783  0.00  0.00    +0.000 A 
ATOM      5  C   UNL     1      44.527   5.165  11.831  0.00  0.00    +0.000 A 
ATOM      6  N   UNL     1      44.205   6.394  11.379  0.00  0.00    +0.000 NA
ATOM      7  C   UNL     1      44.913   7.433  11.872  0.00  0.00    +0.000 A 
BRANCH   2   8
ATOM      8  C   UNL     1      46.693   8.516  13.281  0.00  0.00    +0.000 C 
BRANCH   8   9
ATOM      9  N   UNL     1      47.492   8.216  14.462  0.00  0.00    +0.000 NA
ATOM     10  H   UNL     1      47.179   8.798  15.236  0.00  0.00    +0.000 HD
ATOM     11  H   UNL     1      48.462   8.475  14.284  0.00  0.00    +0.000 HD
ENDBRANCH   8   9
ENDBRANCH   2   8
ENDBRANCH   1   5
BRANCH   1  12
ATOM     12  C   UNL     1      44.687   3.150  10.658  0.00  0.00    +0.000 C 
BRANCH  12  13
ATOM     13  C   UNL     1      44.351   3.142   9.157  0.00  0.00    +0.000 C 
BRANCH  13  14
ATOM     14  C   UNL     1      45.459   2.734   8.201  0.00  0.00    +0.000 A 
ATOM     15  C   UNL     1      46.002   3.594   7.234  0.00  0.00    +0.000 A 
ATOM     16  C   UNL     1      47.042   3.171   6.402  0.00  0.00    +0.000 A 
ATOM     17  C   UNL     1      47.558   1.884   6.526  0.00  0.00    +0.000 A 
ATOM     18  C   UNL     1      47.035   1.016   7.480  0.00  0.00    +0.000 A 
ATOM     19  C   UNL     1      45.994   1.437   8.307  0.00  0.00    +0.000 A 
ENDBRANCH  13  14
BRANCH  13  20
ATOM     20  O   UNL     1      43.860   4.430   8.770  0.00  0.00    +0.000 OA
ATOM     21  H   UNL     1      43.585   4.330   7.841  0.00  0.00    +0.000 HD
ENDBRANCH  13  20
ENDBRANCH  12  13
ENDBRANCH   1  12
TORSDOF 7
ENDMDL
MODEL 5
REMARK VINA RESULT:    -6.634      2.857      6.448
REMARK INTER + INTRA:          -9.610
REMARK INTER:                  -9.142
REMARK INTRA:                  -0.469
REMARK UNBOUND:                -0.650
REMARK  Name = 
REMARK  7 active torsions:
REMARK  status: ('A' for Active; 'I' for Inactive)
REMARK    1  A    between atoms: N_1  and  C_2
REMARK    2  A    between atoms: C_2  and  C_3
REMARK    3  A    between atoms: C_6  and  O_7
REMARK    4  A    between atoms: O_7  and  C_8
REMARK    5  A    between atoms: C_8  and  C_9
REMARK    6  A    between atoms: C_9  and  O_10
REMARK    7  A    between atoms: C_9  and  C_11
REMARK                            x       y       z     vdW  Elec       q    Type
REMARK                         _______ _______ _______ _____ _____    ______ ____
ROOT
ATOM      1  O   UNL     1      44.950   5.185  10.813  0.00  0.00    +0.000 OA
ENDROOT
BRANCH   1   5
ATOM      2  C   UNL     1      46.864   4.326  14.366  0.00  0.00    +0.000 A 
ATOM      3  C   UNL     1      46.348   3.291  13.579  0.00  0.00    +0.000 A 
ATOM      4  C   UNL     1      45.693   3.587  12.384  0.00  0.00    +0.000 A 
ATOM      5  C   UNL     1      45.593   4.914  12.005  0.00  0.00    +0.000 A 
ATOM      6  N   UNL     1      46.055   5.939  12.749  0.00  0.00    +0.000 NA
ATOM      7  C   UNL     1      46.675   5.624  13.907  0.00  0.00    +0.000 A 
BRANCH   2   8
ATOM      8  C   UNL     1      47.585   4.062  15.655  0.00  0.00    +0.000 C 
BRANCH   8   9
ATOM      9  N   UNL     1      48.285   2.783  15.628  0.00  0.00    +0.000 NA
ATOM     10  H   UNL     1      48.478   2.528  14.661  0.00  0.00    +0.000 HD
ATOM     11  H   UNL     1      47.671   2.058  15.996  0.00  0.00    +0.000 HD
ENDBRANCH   8   9
ENDBRANCH   2   8
ENDBRANCH   1   5
BRANCH   1  12
ATOM     12  C   UNL     1      44.722   3.991  10.043  0.00  0.00    +0.000 C 
BRANCH  12  13
ATOM     13  C   UNL     1      45.141   4.209   8.579  0.00  0.00    +0.000 C 
BRANCH  13  14
ATOM     14  C   UNL     1      45.952   3.107   7.919  0.00  0.00    +0.000 A 
ATOM     15  C   UNL     1      45.987   1.785   8.390  0.00  0.00    +0.000 A 
ATOM     16  C   UNL     1      46.728   0.806   7.723  0.00  0.00    +0.000 A 
ATOM     17  C   UNL     1      47.442   1.130   6.573  0.00  0.00    +0.000 A 
ATOM     18  C   UNL     1      47.420   2.435   6.089  0.00  0.00    +0.000 A 
ATOM     19  C   UNL     1      46.684   3.414   6.757  0.00  0.00    +0.000 A 
ENDBRANCH  13  14
BRANCH  13  20
ATOM     20  O   UNL     1      45.861   5.441   8.467  0.00  0.00    +0.000 OA
ATOM     21  H   UNL     1      45.951   5.598   7.510  0.00  0.00    +0.000 HD
ENDBRANCH  13  20
ENDBRANCH  12  13
ENDBRANCH   1  12
TORSDOF 7
ENDMDL
MODEL 6
REMARK VINA RESULT:    -6.563      2.642      5.841
REMARK INTER + INTRA:          -9.514
REMARK INTER:                  -8.938
REMARK INTRA:                  -0.576
REMARK UNBOUND:                -0.650
REMARK  Name = 
REMARK  7 active torsions:
REMARK  status: ('A' for Active; 'I' for Inactive)
REMARK    1  A    between atoms: N_1  and  C_2
REMARK    2  A    between atoms: C_2  and  C_3
REMARK    3  A    between atoms: C_6  and  O_7
REMARK    4  A    between atoms: O_7  and  C_8
REMARK    5  A    between atoms: C_8  and  C_9
REMARK    6  A    between atoms: C_9  and  O_10
REMARK    7  A    between atoms: C_9  and  C_11
REMARK                            x       y       z     vdW  Elec       q    Type
REMARK                         _______ _______ _______ _____ _____    ______ ____
ROOT
ATOM      1  O   UNL     1      43.984   4.691  12.409  0.00  0.00    +0.000 OA
ENDROOT
BRANCH   1   5
ATOM      2  C   UNL     1      47.617   6.448  13.269  0.00  0.00    +0.000 A 
ATOM      3  C   UNL     1      47.184   5.336  14.000  0.00  0.00    +0.000 A 
ATOM      4  C   UNL     1      45.952   4.752  13.713  0.00  0.00    +0.000 A 
ATOM      5  C   UNL     1      45.197   5.290  12.684  0.00  0.00    +0.000 A 
ATOM      6  N   UNL     1      45.569   6.376  11.976  0.00  0.00    +0.000 NA
ATOM      7  C   UNL     1      46.763   6.928  12.284  0.00  0.00    +0.000 A 
BRANCH   2   8
ATOM      8  C   UNL     1      48.938   7.109  13.532  0.00  0.00    +0.000 C 
BRANCH   8   9
ATOM      9  N   UNL     1      49.837   6.987  12.391  0.00  0.00    +0.000 NA
ATOM     10  H   UNL     1      50.411   6.154  12.504  0.00  0.00    +0.000 HD
ATOM     11  H   UNL     1      50.480   7.778  12.385  0.00  0.00    +0.000 HD
ENDBRANCH   8   9
ENDBRANCH   2   8
ENDBRANCH   1   5
BRANCH   1  12
ATOM     12  C   UNL     1      44.147   3.459  11.682  0.00  0.00    +0.000 C 
BRANCH  12  13
ATOM     13  C   UNL     1      43.836   3.671  10.191  0.00  0.00    +0.000 C 
BRANCH  13  14
ATOM     14  C   UNL     1      44.907   3.263   9.194  0.00  0.00    +0.000 A 
ATOM     15  C   UNL     1      45.306   1.932   8.990  0.00  0.00    +0.000 A 
ATOM     16  C   UNL     1      46.277   1.614   8.036  0.00  0.00    +0.000 A 
ATOM     17  C   UNL     1      46.861   2.618   7.269  0.00  0.00    +0.000 A 
ATOM     18  C   UNL     1      46.477   3.943   7.455  0.00  0.00    +0.000 A 
ATOM     19  C   UNL     1      45.512   4.262   8.410  0.00  0.00    +0.000 A 
ENDBRANCH  13  14
BRANCH  13  20
ATOM     20  O   UNL     1      43.494   5.042   9.964  0.00  0.00    +0.000 OA
ATOM     21  H   UNL     1      44.111   5.349   9.275  0.00  0.00    +0.000 HD
ENDBRANCH  13  20
ENDBRANCH  12  13
ENDBRANCH   1  12
TORSDOF 7
ENDMDL
MODEL 7
REMARK VINA RESULT:    -6.284      3.060      6.155
REMARK INTER + INTRA:          -9.138
REMARK INTER:                  -8.621
REMARK INTRA:                  -0.517
REMARK UNBOUND:                -0.650
REMARK  Name = 
REMARK  7 active torsions:
REMARK  status: ('A' for Active; 'I' for Inactive)
REMARK    1  A    between atoms: N_1  and  C_2
REMARK    2  A    between atoms: C_2  and  C_3
REMARK    3  A    between atoms: C_6  and  O_7
REMARK    4  A    between atoms: O_7  and  C_8
REMARK    5  A    between atoms: C_8  and  C_9
REMARK    6  A    between atoms: C_9  and  O_10
REMARK    7  A    between atoms: C_9  and  C_11
REMARK                            x       y       z     vdW  Elec       q    Type
REMARK                         _______ _______ _______ _____ _____    ______ ____
ROOT
ATOM      1  O   UNL     1      45.569   3.915  12.065  0.00  0.00    +0.000 OA
ENDROOT
BRANCH   1   5
ATOM      2  C   UNL     1      47.615   7.136  13.634  0.00  0.00    +0.000 A 
ATOM      3  C   UNL     1      46.940   7.259  12.414  0.00  0.00    +0.000 A 
ATOM      4  C   UNL     1      46.259   6.166  11.883  0.00  0.00    +0.000 A 
ATOM      5  C   UNL     1      46.258   4.983  12.603  0.00  0.00    +0.000 A 
ATOM      6  N   UNL     1      46.918   4.820  13.768  0.00  0.00    +0.000 NA
ATOM      7  C   UNL     1      47.579   5.893  14.253  0.00  0.00    +0.000 A 
BRANCH   2   8
ATOM      8  C   UNL     1      48.356   8.284  14.254  0.00  0.00    +0.000 C 
BRANCH   8   9
ATOM      9  N   UNL     1      47.482   9.100  15.088  0.00  0.00    +0.000 NA
ATOM     10  H   UNL     1      46.539   8.718  15.060  0.00  0.00    +0.000 HD
ATOM     11  H   UNL     1      47.422  10.038  14.692  0.00  0.00    +0.000 HD
ENDBRANCH   8   9
ENDBRANCH   2   8
ENDBRANCH   1   5
BRANCH   1  12
ATOM     12  C   UNL     1      44.151   4.157  12.023  0.00  0.00    +0.000 C 
BRANCH  12  13
ATOM     13  C   UNL     1      43.642   4.109  10.572  0.00  0.00    +0.000 C 
BRANCH  13  14
ATOM     14  C   UNL     1      44.601   3.581   9.518  0.00  0.00    +0.000 A 
ATOM     15  C   UNL     1      45.333   4.411   8.654  0.00  0.00    +0.000 A 
ATOM     16  C   UNL     1      46.224   3.867   7.724  0.00  0.00    +0.000 A 
ATOM     17  C   UNL     1      46.400   2.489   7.646  0.00  0.00    +0.000 A 
ATOM     18  C   UNL     1      45.685   1.649   8.495  0.00  0.00    +0.000 A 
ATOM     19  C   UNL     1      44.792   2.190   9.420  0.00  0.00    +0.000 A 
ENDBRANCH  13  14
BRANCH  13  20
ATOM     20  O   UNL     1      43.196   5.411  10.178  0.00  0.00    +0.000 OA
ATOM     21  H   UNL     1      42.405   5.585  10.720  0.00  0.00    +0.000 HD
ENDBRANCH  13  20
ENDBRANCH  12  13
ENDBRANCH   1  12
TORSDOF 7
ENDMDL
MODEL 8
REMARK VINA RESULT:    -6.132      3.391      6.287
REMARK INTER + INTRA:          -8.933
REMARK INTER:                  -8.278
REMARK INTRA:                  -0.654
REMARK UNBOUND:                -0.650
REMARK  Name = 
REMARK  7 active torsions:
REMARK  status: ('A' for Active; 'I' for Inactive)
REMARK    1  A    between atoms: N_1  and  C_2
REMARK    2  A    between atoms: C_2  and  C_3
REMARK    3  A    between atoms: C_6  and  O_7
REMARK    4  A    between atoms: O_7  and  C_8
REMARK    5  A    between atoms: C_8  and  C_9
REMARK    6  A    between atoms: C_9  and  O_10
REMARK    7  A    between atoms: C_9  and  C_11
REMARK                            x       y       z     vdW  Elec       q    Type
REMARK                         _______ _______ _______ _____ _____    ______ ____
ROOT
ATOM      1  O   UNL     1      45.631   4.845  12.217  0.00  0.00    +0.000 OA
ENDROOT
BRANCH   1   5
ATOM      2  C   UNL     1      46.621   8.850  12.249  0.00  0.00    +0.000 A 
ATOM      3  C   UNL     1      47.593   7.889  11.950  0.00  0.00    +0.000 A 
ATOM      4  C   UNL     1      47.256   6.537  11.950  0.00  0.00    +0.000 A 
ATOM      5  C   UNL     1      45.946   6.189  12.232  0.00  0.00    +0.000 A 
ATOM      6  N   UNL     1      44.989   7.085  12.551  0.00  0.00    +0.000 NA
ATOM      7  C   UNL     1      45.347   8.387  12.554  0.00  0.00    +0.000 A 
BRANCH   2   8
ATOM      8  C   UNL     1      46.929  10.319  12.254  0.00  0.00    +0.000 C 
BRANCH   8   9
ATOM      9  N   UNL     1      45.713  11.123  12.267  0.00  0.00    +0.000 NA
ATOM     10  H   UNL     1      45.025  10.700  11.648  0.00  0.00    +0.000 HD
ATOM     11  H   UNL     1      45.917  12.044  11.880  0.00  0.00    +0.000 HD
ENDBRANCH   8   9
ENDBRANCH   2   8
ENDBRANCH   1   5
BRANCH   1  12
ATOM     12  C   UNL     1      44.214   4.625  12.343  0.00  0.00    +0.000 C 
BRANCH  12  13
ATOM     13  C   UNL     1      43.584   4.387  10.959  0.00  0.00    +0.000 C 
BRANCH  13  14
ATOM     14  C   UNL     1      44.460   3.737   9.902  0.00  0.00    +0.000 A 
ATOM     15  C   UNL     1      44.603   2.347   9.763  0.00  0.00    +0.000 A 
ATOM     16  C   UNL     1      45.400   1.807   8.751  0.00  0.00    +0.000 A 
ATOM     17  C   UNL     1      46.063   2.644   7.859  0.00  0.00    +0.000 A 
ATOM     18  C   UNL     1      45.933   4.025   7.978  0.00  0.00    +0.000 A 
ATOM     19  C   UNL     1      45.141   4.566   8.991  0.00  0.00    +0.000 A 
ENDBRANCH  13  14
BRANCH  13  20
ATOM     20  O   UNL     1      43.080   5.623  10.445  0.00  0.00    +0.000 OA
ATOM     21  H   UNL     1      42.161   5.436  10.183  0.00  0.00    +0.000 HD
ENDBRANCH  13  20
ENDBRANCH  12  13
ENDBRANCH   1  12
TORSDOF 7
ENDMDL
MODEL 9
REMARK VINA RESULT:    -5.850      4.339      6.485
REMARK INTER + INTRA:          -8.552
REMARK INTER:                  -8.230
REMARK INTRA:                  -0.321
REMARK UNBOUND:                -0.650
REMARK  Name = 
REMARK  7 active torsions:
REMARK  status: ('A' for Active; 'I' for Inactive)
REMARK    1  A    between atoms: N_1  and  C_2
REMARK    2  A    between atoms: C_2  and  C_3
REMARK    3  A    between atoms: C_6  and  O_7
REMARK    4  A    between atoms: O_7  and  C_8
REMARK    5  A    between atoms: C_8  and  C_9
REMARK    6  A    between atoms: C_9  and  O_10
REMARK    7  A    between atoms: C_9  and  C_11
REMARK                            x       y       z     vdW  Elec       q    Type
REMARK                         _______ _______ _______ _____ _____    ______ ____
ROOT
ATOM      1  O   UNL     1      47.566   3.028  14.505  0.00  0.00    +0.000 OA
ENDROOT
BRANCH   1   5
ATOM      2  C   UNL     1      45.168   5.285  12.020  0.00  0.00    +0.000 A 
ATOM      3  C   UNL     1      46.122   5.909  12.832  0.00  0.00    +0.000 A 
ATOM      4  C   UNL     1      46.922   5.143  13.677  0.00  0.00    +0.000 A 
ATOM      5  C   UNL     1      46.756   3.769  13.668  0.00  0.00    +0.000 A 
ATOM      6  N   UNL     1      45.830   3.136  12.919  0.00  0.00    +0.000 NA
ATOM      7  C   UNL     1      45.060   3.904  12.118  0.00  0.00    +0.000 A 
BRANCH   2   8
ATOM      8  C   UNL     1      44.287   6.062  11.086  0.00  0.00    +0.000 C 
BRANCH   8   9
ATOM      9  N   UNL     1      43.447   5.183  10.282  0.00  0.00    +0.000 NA
ATOM     10  H   UNL     1      42.991   5.728   9.554  0.00  0.00    +0.000 HD
ATOM     11  H   UNL     1      42.701   4.808  10.867  0.00  0.00    +0.000 HD
ENDBRANCH   8   9
ENDBRANCH   2   8
ENDBRANCH   1   5
BRANCH   1  12
ATOM     12  C   UNL     1      47.543   3.527  15.855  0.00  0.00    +0.000 C 
BRANCH  12  13
ATOM     13  C   UNL     1      48.464   2.685  16.754  0.00  0.00    +0.000 C 
BRANCH  13  14
ATOM     14  C   UNL     1      49.393   3.437  17.692  0.00  0.00    +0.000 A 
ATOM     15  C   UNL     1      48.939   4.259  18.735  0.00  0.00    +0.000 A 
ATOM     16  C   UNL     1      49.842   4.902  19.586  0.00  0.00    +0.000 A 
ATOM     17  C   UNL     1      51.212   4.731  19.410  0.00  0.00    +0.000 A 
ATOM     18  C   UNL     1      51.683   3.919  18.382  0.00  0.00    +0.000 A 
ATOM     19  C   UNL     1      50.782   3.280  17.531  0.00  0.00    +0.000 A 
ENDBRANCH  13  14
BRANCH  13  20
ATOM     20  O   UNL     1      49.244   1.801  15.943  0.00  0.00    +0.000 OA
ATOM     21  H   UNL     1      48.690   1.612  15.165  0.00  0.00    +0.000 HD
ENDBRANCH  13  20
ENDBRANCH  12  13
ENDBRANCH   1  12
TORSDOF 7
ENDMDL
